ver_1.2
     RDKit          3D

 19 20  0  0  0  0  0  0  0  0999 V2000
    0.9850   -2.6877    0.1541 C   0  0  0  0  0  0  0  0  0  0  0  0
    1.8746   -1.4758    0.1485 C   0  0  0  0  0  0  0  0  0  0  0  0
    3.2287   -1.5683   -0.1560 C   0  0  0  0  0  0  0  0  0  0  0  0
    3.9999   -0.4063   -0.1366 C   0  0  0  0  0  0  0  0  0  0  0  0
    5.8607   -0.5127   -0.5563 Br  0  0  0  0  0  0  0  0  0  0  0  0
    3.4438    0.8088    0.1778 C   0  0  0  0  0  0  0  0  0  0  0  0
    4.1718    1.9489    0.2127 F   0  0  0  0  0  0  0  0  0  0  0  0
    2.0885    0.9260    0.4874 C   0  0  0  0  0  0  0  0  0  0  0  0
    1.3395   -0.2595    0.4578 C   0  0  0  0  0  0  0  0  0  0  0  0
   -0.0517   -0.0796    0.7804 N   0  0  0  0  0  0  0  0  0  0  0  0
   -0.9933    0.2577   -0.2605 C   0  0  0  0  0  0  0  0  0  0  0  0
   -0.5280    0.3773   -1.4188 O   0  0  0  0  0  0  0  0  0  0  0  0
   -2.3952    0.4456    0.0581 C   0  0  0  0  0  0  0  0  0  0  0  0
   -2.7556    1.2396    1.1669 C   0  0  0  0  0  0  0  0  0  0  0  0
   -4.1118    1.3896    1.4262 C   0  0  0  0  0  0  0  0  0  0  0  0
   -5.0679    0.8214    0.6797 N   0  0  0  0  0  0  0  0  0  0  0  0
   -4.7170    0.0759   -0.3595 C   0  0  0  0  0  0  0  0  0  0  0  0
   -3.3754   -0.1444   -0.7199 C   0  0  0  0  0  0  0  0  0  0  0  0
   -2.9966   -1.1565   -2.1422 S   0  0  0  0  0  0  0  0  0  0  0  0
  1  2  1  0
  2  3  2  0
  3  4  1  0
  4  5  1  0
  4  6  2  0
  6  7  1  0
  6  8  1  0
  8  9  2  0
  9 10  1  0
 10 11  1  0
 11 12  2  0
 11 13  1  0
 13 14  2  0
 14 15  1  0
 15 16  2  0
 16 17  1  0
 17 18  2  0
 18 19  1  0
  9  2  1  0
 18 13  1  0
M  END
>  <ref_url>  (1) 
https://hippo.winokan.com

>  <submitter_name>  (1) 
Max Winokan

>  <submitter_email>  (1) 
max.winokan@diamond.ac.uk

>  <submitter_institution>  (1) 
DLS

>  <generation_date>  (1) 
2025-12-09

>  <method>  (1) 
openbind_d68ev3c_c2_elabs_scored_5plus_products

>  <exports>  (1) 
exports

>  <gnina_score>  (1) 
gnina_score

>  <gnina_score_min>  (1) 
gnina_score_min

>  <smina_score_min>  (1) 
smina_score_min

>  <rmsd(smina/fragmenstein)>  (1) 
rmsd(smina/fragmenstein)

>  <HIPPO Pose ID>  (1) 
HIPPO Pose ID

>  <HIPPO Compound ID>  (1) 
HIPPO Compound ID

>  <smiles>  (1) 
smiles

>  <ref_pdb>  (1) 
protein reference

>  <ref_mols>  (1) 
fragment inspirations

>  <alias>  (1) 
alias

>  <distance_score>  (1) 
distance_score

>  <energy_score>  (1) 
energy_score

>  <inspiration_score>  (1) 
inspiration_score

>  <subsites>  (1) 
subsites

>  <tags>  (1) 
tags

$$$$
P63628
     RDKit          3D

 19 20  0  0  0  0  0  0  0  0999 V2000
    2.5236   -3.5608   34.4116 C   0  0  0  0  0  0  0  0  0  0  0  0
    1.8502   -3.6021   35.7552 C   0  0  0  0  0  0  0  0  0  0  0  0
    2.3248   -2.7739   36.7870 C   0  0  0  0  0  0  0  0  0  0  0  0
    1.7753   -2.8536   38.0679 C   0  0  0  0  0  0  0  0  0  0  0  0
    2.4385   -1.7295   39.4368 Br  0  0  0  0  0  0  0  0  0  0  0  0
    0.7528   -3.7587   38.3279 C   0  0  0  0  0  0  0  0  0  0  0  0
    0.1967   -3.8354   39.5465 F   0  0  0  0  0  0  0  0  0  0  0  0
    0.2814   -4.5976   37.3252 C   0  0  0  0  0  0  0  0  0  0  0  0
    0.8234   -4.5183   36.0404 C   0  0  0  0  0  0  0  0  0  0  0  0
    0.3432   -5.3612   35.0447 N   0  0  0  0  0  0  0  0  0  0  0  0
   -0.3427   -6.7419   35.1436 C   0  0  0  0  0  0  0  0  0  0  0  0
   -0.5424   -7.4218   36.0699 O   0  0  0  0  0  0  0  0  0  0  0  0
   -0.8055   -7.2616   33.8054 C   0  0  0  0  0  0  0  0  0  0  0  0
   -0.1365   -6.9142   32.6212 C   0  0  0  0  0  0  0  0  0  0  0  0
   -0.5995   -7.4052   31.4117 C   0  0  0  0  0  0  0  0  0  0  0  0
   -1.6560   -8.2299   31.2998 N   0  0  0  0  0  0  0  0  0  0  0  0
   -2.2526   -8.5958   32.4574 C   0  0  0  0  0  0  0  0  0  0  0  0
   -1.8913   -8.1495   33.7240 C   0  0  0  0  0  0  0  0  0  0  0  0
   -2.9459   -8.6944   35.0520 S   0  0  0  0  0  0  0  0  0  0  0  0
  1  2  1  0
  2  3  2  0
  3  4  1  0
  4  5  1  0
  4  6  2  0
  6  7  1  0
  6  8  1  0
  8  9  2  0
  9 10  1  0
 10 11  1  0
 11 12  2  0
 11 13  1  0
 13 14  2  0
 14 15  1  0
 15 16  2  0
 16 17  1  0
 17 18  2  0
 18 19  1  0
  9  2  1  0
 18 13  1  0
M  END
>  <ref_mols>  (1) 
7gov-a

>  <gnina_score>  (1) 
5.054

>  <smina_score_min>  (1) 
-5.517

>  <ref_pdb>  (1) 
7gov-a

>  <inspiration_score>  (1) 
None

>  <inchikey>  (1) 
CETOJDPOWUFOTB-UHFFFAOYSA-N

>  <tags>  (1) 
BulkDock Fragalysis export,openbind_d68ev3c_c2_elabs_scored,openbind_d68ev3c_c2_elabs_scored_4.5plus,openbind_d68ev3c_c2_elabs,openbind_d68ev3c_c2_elabs_scored_5plus,syndirella_product,openbind_d68ev3c_c2_elabs_scored_top80percent,syndirella_placed

>  <smiles>  (1) 
Cc1cc(Br)c(F)cc1NC(=O)c1ccncc1S

>  <subsites>  (1) 
None

>  <rmsd(smina/fragmenstein)>  (1) 
1.01

>  <alias>  (1) 
None

>  <energy_score>  (1) 
-21.44458

>  <HIPPO Pose ID>  (1) 
63628

>  <distance_score>  (1) 
0.575535

>  <HIPPO Compound ID>  (1) 
99719

>  <gnina_score_min>  (1) 
5.011

>  <name>  (1) 
P63628

>  <exports>  (1) 
['/opt/xchem-fragalysis-2/maxwin/BulkDock/OUTPUTS/openbind_d68ev3c_c2_elabs_1LOTQJ3.sdf', '/opt/xchem-fragalysis-2/maxwin/BulkDock/OUTPUTS/openbind_d68ev3c_c2_elabs_1LSYEHW.sdf', '/opt/xchem-fragalysis-2/maxwin/BulkDock/OUTPUTS/openbind_d68ev3c_c2_elabs_1LSYI5W.sdf']

$$$$
P63629
     RDKit          3D

 19 20  0  0  0  0  0  0  0  0999 V2000
    2.5067   -3.5951   34.3891 C   0  0  0  0  0  0  0  0  0  0  0  0
    1.8579   -3.6145   35.7481 C   0  0  0  0  0  0  0  0  0  0  0  0
    2.3118   -2.7668   36.7809 C   0  0  0  0  0  0  0  0  0  0  0  0
    3.6756   -1.4671   36.5045 Br  0  0  0  0  0  0  0  0  0  0  0  0
    1.7621   -2.8305   38.0637 C   0  0  0  0  0  0  0  0  0  0  0  0
    0.7536   -3.7420   38.3271 C   0  0  0  0  0  0  0  0  0  0  0  0
    0.2149   -3.7939   39.5527 F   0  0  0  0  0  0  0  0  0  0  0  0
    0.2742   -4.5806   37.3338 C   0  0  0  0  0  0  0  0  0  0  0  0
    0.8058   -4.5038   36.0433 C   0  0  0  0  0  0  0  0  0  0  0  0
    0.2394   -5.3111   35.0603 N   0  0  0  0  0  0  0  0  0  0  0  0
   -0.3569   -6.7335   35.1507 C   0  0  0  0  0  0  0  0  0  0  0  0
   -0.5365   -7.4200   36.0762 O   0  0  0  0  0  0  0  0  0  0  0  0
   -0.8089   -7.2579   33.8128 C   0  0  0  0  0  0  0  0  0  0  0  0
   -0.1358   -6.9029   32.6340 C   0  0  0  0  0  0  0  0  0  0  0  0
   -0.5907   -7.3944   31.4215 C   0  0  0  0  0  0  0  0  0  0  0  0
   -1.6431   -8.2243   31.3028 N   0  0  0  0  0  0  0  0  0  0  0  0
   -2.2433   -8.5958   32.4572 C   0  0  0  0  0  0  0  0  0  0  0  0
   -1.8892   -8.1511   33.7261 C   0  0  0  0  0  0  0  0  0  0  0  0
   -2.9453   -8.6988   35.0506 S   0  0  0  0  0  0  0  0  0  0  0  0
  1  2  1  0
  2  3  2  0
  3  4  1  0
  3  5  1  0
  5  6  2  0
  6  7  1  0
  6  8  1  0
  8  9  2  0
  9 10  1  0
 10 11  1  0
 11 12  2  0
 11 13  1  0
 13 14  2  0
 14 15  1  0
 15 16  2  0
 16 17  1  0
 17 18  2  0
 18 19  1  0
  9  2  1  0
 18 13  1  0
M  END
>  <ref_mols>  (2) 
7gov-a

>  <gnina_score>  (2) 
5.057

>  <smina_score_min>  (2) 
-5.573

>  <ref_pdb>  (2) 
7gov-a

>  <inspiration_score>  (2) 
None

>  <inchikey>  (2) 
GDDAUXYHYMVXDR-UHFFFAOYSA-N

>  <tags>  (2) 
BulkDock Fragalysis export,openbind_d68ev3c_c2_elabs_scored,openbind_d68ev3c_c2_elabs_scored_4.5plus,openbind_d68ev3c_c2_elabs,openbind_d68ev3c_c2_elabs_scored_5plus,syndirella_product,openbind_d68ev3c_c2_elabs_scored_top80percent,syndirella_placed

>  <smiles>  (2) 
Cc1c(Br)cc(F)cc1NC(=O)c1ccncc1S

>  <subsites>  (2) 
None

>  <rmsd(smina/fragmenstein)>  (2) 
0.972

>  <alias>  (2) 
None

>  <energy_score>  (2) 
-15.671714

>  <HIPPO Pose ID>  (2) 
63629

>  <distance_score>  (2) 
0.574585

>  <HIPPO Compound ID>  (2) 
99720

>  <gnina_score_min>  (2) 
5.036

>  <name>  (2) 
P63629

>  <exports>  (2) 
['/opt/xchem-fragalysis-2/maxwin/BulkDock/OUTPUTS/openbind_d68ev3c_c2_elabs_1LOTQJ3.sdf', '/opt/xchem-fragalysis-2/maxwin/BulkDock/OUTPUTS/openbind_d68ev3c_c2_elabs_1LSYEHW.sdf', '/opt/xchem-fragalysis-2/maxwin/BulkDock/OUTPUTS/openbind_d68ev3c_c2_elabs_1LSYI5W.sdf']

$$$$
P63633
     RDKit          3D

 19 20  0  0  0  0  0  0  0  0999 V2000
    2.6633   -3.6106   34.0705 C   0  0  0  0  0  0  0  0  0  0  0  0
    2.0922   -3.5206   35.4580 C   0  0  0  0  0  0  0  0  0  0  0  0
    2.7195   -2.6846   36.4000 C   0  0  0  0  0  0  0  0  0  0  0  0
    2.2768   -2.6356   37.7198 C   0  0  0  0  0  0  0  0  0  0  0  0
    1.2100   -3.4289   38.1074 C   0  0  0  0  0  0  0  0  0  0  0  0
    0.7651   -3.3365   39.3726 F   0  0  0  0  0  0  0  0  0  0  0  0
    0.5825   -4.2777   37.1956 C   0  0  0  0  0  0  0  0  0  0  0  0
   -0.9403   -5.1780   37.8286 Br  0  0  0  0  0  0  0  0  0  0  0  0
    1.0155   -4.3325   35.8607 C   0  0  0  0  0  0  0  0  0  0  0  0
    0.3981   -5.1403   34.8968 N   0  0  0  0  0  0  0  0  0  0  0  0
    0.0364   -6.6429   34.9284 C   0  0  0  0  0  0  0  0  0  0  0  0
    0.1263   -7.4240   35.7900 O   0  0  0  0  0  0  0  0  0  0  0  0
   -0.5827   -7.1047   33.6488 C   0  0  0  0  0  0  0  0  0  0  0  0
   -0.0070   -6.7292   32.4298 C   0  0  0  0  0  0  0  0  0  0  0  0
   -0.5500   -7.2291   31.2583 C   0  0  0  0  0  0  0  0  0  0  0  0
   -1.6092   -8.0633   31.2199 N   0  0  0  0  0  0  0  0  0  0  0  0
   -2.1273   -8.4282   32.4166 C   0  0  0  0  0  0  0  0  0  0  0  0
   -1.6750   -7.9829   33.6523 C   0  0  0  0  0  0  0  0  0  0  0  0
   -2.6221   -8.4946   35.0623 S   0  0  0  0  0  0  0  0  0  0  0  0
  1  2  1  0
  2  3  2  0
  3  4  1  0
  4  5  2  0
  5  6  1  0
  5  7  1  0
  7  8  1  0
  7  9  2  0
  9 10  1  0
 10 11  1  0
 11 12  2  0
 11 13  1  0
 13 14  2  0
 14 15  1  0
 15 16  2  0
 16 17  1  0
 17 18  2  0
 18 19  1  0
  9  2  1  0
 18 13  1  0
M  END
>  <ref_mols>  (3) 
7gov-a

>  <gnina_score>  (3) 
5.118

>  <smina_score_min>  (3) 
-4.694

>  <ref_pdb>  (3) 
7gov-a

>  <inspiration_score>  (3) 
None

>  <inchikey>  (3) 
RNOADZJATRHVQG-UHFFFAOYSA-N

>  <tags>  (3) 
BulkDock Fragalysis export,openbind_d68ev3c_c2_elabs_scored,openbind_d68ev3c_c2_elabs_scored_4.5plus,openbind_d68ev3c_c2_elabs,openbind_d68ev3c_c2_elabs_scored_5plus,syndirella_product,openbind_d68ev3c_c2_elabs_scored_top80percent,syndirella_placed

>  <smiles>  (3) 
Cc1ccc(F)c(Br)c1NC(=O)c1ccncc1S

>  <subsites>  (3) 
None

>  <rmsd(smina/fragmenstein)>  (3) 
0.462

>  <alias>  (3) 
None

>  <energy_score>  (3) 
-12.473496

>  <HIPPO Pose ID>  (3) 
63633

>  <distance_score>  (3) 
0.555218

>  <HIPPO Compound ID>  (3) 
99725

>  <gnina_score_min>  (3) 
5.023

>  <name>  (3) 
P63633

>  <exports>  (3) 
['/opt/xchem-fragalysis-2/maxwin/BulkDock/OUTPUTS/openbind_d68ev3c_c2_elabs_1LOTQJ3.sdf', '/opt/xchem-fragalysis-2/maxwin/BulkDock/OUTPUTS/openbind_d68ev3c_c2_elabs_1LSYEHW.sdf', '/opt/xchem-fragalysis-2/maxwin/BulkDock/OUTPUTS/openbind_d68ev3c_c2_elabs_1LSYI5W.sdf']

$$$$
P63645
     RDKit          3D

 19 20  0  0  0  0  0  0  0  0999 V2000
    3.3580   -1.5727   36.5552 C   0  0  0  0  0  0  0  0  0  0  0  0
    2.2936   -2.6193   36.7385 C   0  0  0  0  0  0  0  0  0  0  0  0
    1.7174   -2.7695   38.0104 C   0  0  0  0  0  0  0  0  0  0  0  0
    0.7544   -3.7433   38.2352 C   0  0  0  0  0  0  0  0  0  0  0  0
    0.2054   -3.8575   39.4526 F   0  0  0  0  0  0  0  0  0  0  0  0
    0.3407   -4.5833   37.2152 C   0  0  0  0  0  0  0  0  0  0  0  0
    0.8904   -4.4383   35.9409 C   0  0  0  0  0  0  0  0  0  0  0  0
    0.4286   -5.2585   34.9167 N   0  0  0  0  0  0  0  0  0  0  0  0
   -0.1327   -6.6937   34.9591 C   0  0  0  0  0  0  0  0  0  0  0  0
   -0.2248   -7.4421   35.8469 O   0  0  0  0  0  0  0  0  0  0  0  0
   -0.6467   -7.1537   33.6232 C   0  0  0  0  0  0  0  0  0  0  0  0
   -0.0066   -6.7620   32.4396 C   0  0  0  0  0  0  0  0  0  0  0  0
   -0.4926   -7.2215   31.2255 C   0  0  0  0  0  0  0  0  0  0  0  0
   -1.5457   -8.0525   31.1081 N   0  0  0  0  0  0  0  0  0  0  0  0
   -2.1133   -8.4572   32.2633 C   0  0  0  0  0  0  0  0  0  0  0  0
   -1.7282   -8.0352   33.5242 C   0  0  0  0  0  0  0  0  0  0  0  0
   -2.9429   -8.7270   35.0437 I   0  0  0  0  0  0  0  0  0  0  0  0
    1.8891   -3.4759   35.6878 C   0  0  0  0  0  0  0  0  0  0  0  0
    2.5450   -3.4208   34.3316 C   0  0  0  0  0  0  0  0  0  0  0  0
  1  2  1  0
  2  3  2  0
  3  4  1  0
  4  5  1  0
  4  6  2  0
  6  7  1  0
  7  8  1  0
  8  9  1  0
  9 10  2  0
  9 11  1  0
 11 12  2  0
 12 13  1  0
 13 14  2  0
 14 15  1  0
 15 16  2  0
 16 17  1  0
  7 18  2  0
 18 19  1  0
 18  2  1  0
 16 11  1  0
M  END
>  <ref_mols>  (4) 
7gov-a

>  <gnina_score>  (4) 
4.99

>  <smina_score_min>  (4) 
-5.096

>  <ref_pdb>  (4) 
7gov-a

>  <inspiration_score>  (4) 
None

>  <inchikey>  (4) 
QCFPRCJGNDCGPT-UHFFFAOYSA-N

>  <tags>  (4) 
BulkDock Fragalysis export,openbind_d68ev3c_c2_elabs_scored,openbind_d68ev3c_c2_elabs_scored_4.5plus,openbind_d68ev3c_c2_elabs,openbind_d68ev3c_c2_elabs_scored_5plus,syndirella_product,openbind_d68ev3c_c2_elabs_scored_top80percent,syndirella_placed

>  <smiles>  (4) 
Cc1cc(F)cc(NC(=O)c2ccncc2I)c1C

>  <subsites>  (4) 
None

>  <rmsd(smina/fragmenstein)>  (4) 
1.331

>  <alias>  (4) 
None

>  <energy_score>  (4) 
-7.0273

>  <HIPPO Pose ID>  (4) 
63645

>  <distance_score>  (4) 
0.529663

>  <HIPPO Compound ID>  (4) 
99742

>  <gnina_score_min>  (4) 
5.063

>  <name>  (4) 
P63645

>  <exports>  (4) 
['/opt/xchem-fragalysis-2/maxwin/BulkDock/OUTPUTS/openbind_d68ev3c_c2_elabs_1LOTQJ3.sdf', '/opt/xchem-fragalysis-2/maxwin/BulkDock/OUTPUTS/openbind_d68ev3c_c2_elabs_1LSYEHW.sdf', '/opt/xchem-fragalysis-2/maxwin/BulkDock/OUTPUTS/openbind_d68ev3c_c2_elabs_1LSYI5W.sdf']

$$$$
P63665
     RDKit          3D

 19 20  0  0  0  0  0  0  0  0999 V2000
    2.5786   -3.4082   34.3510 C   0  0  0  0  0  0  0  0  0  0  0  0
    1.8986   -3.4965   35.6880 C   0  0  0  0  0  0  0  0  0  0  0  0
    2.3530   -2.6944   36.7490 C   0  0  0  0  0  0  0  0  0  0  0  0
    1.8004   -2.8269   38.0247 C   0  0  0  0  0  0  0  0  0  0  0  0
    2.4325   -1.7310   39.4309 Br  0  0  0  0  0  0  0  0  0  0  0  0
    0.7980   -3.7626   38.2520 C   0  0  0  0  0  0  0  0  0  0  0  0
    0.2360   -3.8873   39.4642 F   0  0  0  0  0  0  0  0  0  0  0  0
    0.3522   -4.5806   37.2207 C   0  0  0  0  0  0  0  0  0  0  0  0
    0.8931   -4.4425   35.9397 C   0  0  0  0  0  0  0  0  0  0  0  0
    0.4291   -5.2620   34.9185 N   0  0  0  0  0  0  0  0  0  0  0  0
   -0.1436   -6.6925   34.9646 C   0  0  0  0  0  0  0  0  0  0  0  0
   -0.2449   -7.4365   35.8549 O   0  0  0  0  0  0  0  0  0  0  0  0
   -0.6536   -7.1559   33.6276 C   0  0  0  0  0  0  0  0  0  0  0  0
   -0.0111   -6.7663   32.4444 C   0  0  0  0  0  0  0  0  0  0  0  0
   -0.4946   -7.2273   31.2298 C   0  0  0  0  0  0  0  0  0  0  0  0
   -1.5472   -8.0585   31.1117 N   0  0  0  0  0  0  0  0  0  0  0  0
   -2.1166   -8.4625   32.2661 C   0  0  0  0  0  0  0  0  0  0  0  0
   -1.7342   -8.0386   33.5274 C   0  0  0  0  0  0  0  0  0  0  0  0
   -2.9517   -8.7307   35.0451 I   0  0  0  0  0  0  0  0  0  0  0  0
  1  2  1  0
  2  3  2  0
  3  4  1  0
  4  5  1  0
  4  6  2  0
  6  7  1  0
  6  8  1  0
  8  9  2  0
  9 10  1  0
 10 11  1  0
 11 12  2  0
 11 13  1  0
 13 14  2  0
 14 15  1  0
 15 16  2  0
 16 17  1  0
 17 18  2  0
 18 19  1  0
  9  2  1  0
 18 13  1  0
M  END
>  <ref_mols>  (5) 
7gov-a

>  <gnina_score>  (5) 
5.024

>  <smina_score_min>  (5) 
-5.125

>  <ref_pdb>  (5) 
7gov-a

>  <inspiration_score>  (5) 
None

>  <inchikey>  (5) 
VNHZHAFNNJKZAV-UHFFFAOYSA-N

>  <tags>  (5) 
BulkDock Fragalysis export,openbind_d68ev3c_c2_elabs_scored,openbind_d68ev3c_c2_elabs_scored_4.5plus,openbind_d68ev3c_c2_elabs,openbind_d68ev3c_c2_elabs_scored_5plus,syndirella_product,openbind_d68ev3c_c2_elabs_scored_top80percent,syndirella_placed

>  <smiles>  (5) 
Cc1cc(Br)c(F)cc1NC(=O)c1ccncc1I

>  <subsites>  (5) 
None

>  <rmsd(smina/fragmenstein)>  (5) 
1.578

>  <alias>  (5) 
None

>  <energy_score>  (5) 
-36.942908

>  <HIPPO Pose ID>  (5) 
63665

>  <distance_score>  (5) 
0.524041

>  <HIPPO Compound ID>  (5) 
99768

>  <gnina_score_min>  (5) 
5.022

>  <name>  (5) 
P63665

>  <exports>  (5) 
['/opt/xchem-fragalysis-2/maxwin/BulkDock/OUTPUTS/openbind_d68ev3c_c2_elabs_1LOTQJ3.sdf', '/opt/xchem-fragalysis-2/maxwin/BulkDock/OUTPUTS/openbind_d68ev3c_c2_elabs_1LSYEHW.sdf', '/opt/xchem-fragalysis-2/maxwin/BulkDock/OUTPUTS/openbind_d68ev3c_c2_elabs_1LSYI5W.sdf']

$$$$
P63686
     RDKit          3D

 20 21  0  0  0  0  0  0  0  0999 V2000
    3.4806   -4.6259   34.3260 C   0  0  0  0  0  0  0  0  0  0  0  0
    2.4899   -3.4845   34.5035 C   0  0  0  0  0  0  0  0  0  0  0  0
    1.8031   -3.5287   35.8499 C   0  0  0  0  0  0  0  0  0  0  0  0
    2.3095   -2.7256   36.8873 C   0  0  0  0  0  0  0  0  0  0  0  0
    1.7732   -2.7994   38.1728 C   0  0  0  0  0  0  0  0  0  0  0  0
    0.7420   -3.6902   38.4332 C   0  0  0  0  0  0  0  0  0  0  0  0
    0.2194   -3.7521   39.6651 F   0  0  0  0  0  0  0  0  0  0  0  0
    0.2361   -4.5096   37.4353 C   0  0  0  0  0  0  0  0  0  0  0  0
    0.7546   -4.4208   36.1426 C   0  0  0  0  0  0  0  0  0  0  0  0
    0.2044   -5.2186   35.1470 N   0  0  0  0  0  0  0  0  0  0  0  0
   -0.4206   -6.6298   35.2229 C   0  0  0  0  0  0  0  0  0  0  0  0
   -0.6404   -7.3098   36.1437 O   0  0  0  0  0  0  0  0  0  0  0  0
   -0.8305   -7.1516   33.8674 C   0  0  0  0  0  0  0  0  0  0  0  0
   -0.1925   -6.7197   32.6948 C   0  0  0  0  0  0  0  0  0  0  0  0
   -0.6634   -7.1351   31.4518 C   0  0  0  0  0  0  0  0  0  0  0  0
   -0.1143   -6.4956   30.2107 C   0  0  0  0  0  0  0  0  0  0  0  0
   -1.6715   -8.0246   31.3166 N   0  0  0  0  0  0  0  0  0  0  0  0
   -2.2110   -8.5027   32.4629 C   0  0  0  0  0  0  0  0  0  0  0  0
   -1.8669   -8.0817   33.7395 C   0  0  0  0  0  0  0  0  0  0  0  0
   -2.8750   -8.6520   35.0150 Cl  0  0  0  0  0  0  0  0  0  0  0  0
  1  2  1  0
  2  3  1  0
  3  4  2  0
  4  5  1  0
  5  6  2  0
  6  7  1  0
  6  8  1  0
  8  9  2  0
  9 10  1  0
 10 11  1  0
 11 12  2  0
 11 13  1  0
 13 14  2  0
 14 15  1  0
 15 16  1  0
 15 17  2  0
 17 18  1  0
 18 19  2  0
 19 20  1  0
  9  3  1  0
 19 13  1  0
M  END
>  <ref_mols>  (6) 
7gov-a

>  <gnina_score>  (6) 
5.004

>  <smina_score_min>  (6) 
-5.95

>  <ref_pdb>  (6) 
7gov-a

>  <inspiration_score>  (6) 
None

>  <inchikey>  (6) 
JNLMDFBETUMRGB-UHFFFAOYSA-N

>  <tags>  (6) 
BulkDock Fragalysis export,openbind_d68ev3c_c2_elabs_scored,openbind_d68ev3c_c2_elabs_scored_4.5plus,openbind_d68ev3c_c2_elabs,openbind_d68ev3c_c2_elabs_scored_5plus,syndirella_product,openbind_d68ev3c_c2_elabs_scored_top80percent,syndirella_placed

>  <smiles>  (6) 
CCc1ccc(F)cc1NC(=O)c1cc(C)ncc1Cl

>  <subsites>  (6) 
None

>  <rmsd(smina/fragmenstein)>  (6) 
0.88

>  <alias>  (6) 
None

>  <energy_score>  (6) 
-14.382438

>  <HIPPO Pose ID>  (6) 
63686

>  <distance_score>  (6) 
0.626264

>  <HIPPO Compound ID>  (6) 
99797

>  <gnina_score_min>  (6) 
5.097

>  <name>  (6) 
P63686

>  <exports>  (6) 
['/opt/xchem-fragalysis-2/maxwin/BulkDock/OUTPUTS/openbind_d68ev3c_c2_elabs_1LOTQJ3.sdf', '/opt/xchem-fragalysis-2/maxwin/BulkDock/OUTPUTS/openbind_d68ev3c_c2_elabs_1LSYEHW.sdf', '/opt/xchem-fragalysis-2/maxwin/BulkDock/OUTPUTS/openbind_d68ev3c_c2_elabs_1LSYI5W.sdf']

$$$$
P63697
     RDKit          3D

 20 21  0  0  0  0  0  0  0  0999 V2000
   -0.1193   -6.4975   30.2005 C   0  0  0  0  0  0  0  0  0  0  0  0
   -0.6681   -7.1325   31.4441 C   0  0  0  0  0  0  0  0  0  0  0  0
   -0.1893   -6.7210   32.6855 C   0  0  0  0  0  0  0  0  0  0  0  0
   -0.8219   -7.1498   33.8629 C   0  0  0  0  0  0  0  0  0  0  0  0
   -0.3873   -6.6426   35.2192 C   0  0  0  0  0  0  0  0  0  0  0  0
   -0.6581   -7.2999   36.1431 O   0  0  0  0  0  0  0  0  0  0  0  0
    0.3759   -5.3010   35.1340 N   0  0  0  0  0  0  0  0  0  0  0  0
    0.8634   -4.4732   36.1405 C   0  0  0  0  0  0  0  0  0  0  0  0
    0.2984   -4.5555   37.4147 C   0  0  0  0  0  0  0  0  0  0  0  0
    0.7357   -3.7017   38.4145 C   0  0  0  0  0  0  0  0  0  0  0  0
    0.1698   -3.7615   39.6271 F   0  0  0  0  0  0  0  0  0  0  0  0
    1.7315   -2.7699   38.1732 C   0  0  0  0  0  0  0  0  0  0  0  0
    2.3120   -2.6984   36.9053 C   0  0  0  0  0  0  0  0  0  0  0  0
    3.6579   -1.3753   36.6568 Br  0  0  0  0  0  0  0  0  0  0  0  0
    1.9017   -3.5592   35.8668 C   0  0  0  0  0  0  0  0  0  0  0  0
    2.5893   -3.5330   34.5254 C   0  0  0  0  0  0  0  0  0  0  0  0
   -1.8654   -8.0732   33.7376 C   0  0  0  0  0  0  0  0  0  0  0  0
   -2.8698   -8.6472   35.0146 Cl  0  0  0  0  0  0  0  0  0  0  0  0
   -2.2180   -8.4912   32.4618 C   0  0  0  0  0  0  0  0  0  0  0  0
   -1.6815   -8.0158   31.3133 N   0  0  0  0  0  0  0  0  0  0  0  0
  1  2  1  0
  2  3  2  0
  3  4  1  0
  4  5  1  0
  5  6  2  0
  5  7  1  0
  7  8  1  0
  8  9  2  0
  9 10  1  0
 10 11  1  0
 10 12  2  0
 12 13  1  0
 13 14  1  0
 13 15  2  0
 15 16  1  0
  4 17  2  0
 17 18  1  0
 17 19  1  0
 19 20  2  0
 20  2  1  0
 15  8  1  0
M  END
>  <ref_mols>  (7) 
7gov-a

>  <gnina_score>  (7) 
5.079

>  <smina_score_min>  (7) 
-6.126

>  <ref_pdb>  (7) 
7gov-a

>  <inspiration_score>  (7) 
None

>  <inchikey>  (7) 
QCKFOBJTEYSQAF-UHFFFAOYSA-N

>  <tags>  (7) 
BulkDock Fragalysis export,openbind_d68ev3c_c2_elabs_scored,openbind_d68ev3c_c2_elabs_scored_4.5plus,openbind_d68ev3c_c2_elabs,openbind_d68ev3c_c2_elabs_scored_5plus,syndirella_product,openbind_d68ev3c_c2_elabs_scored_top80percent,syndirella_placed

>  <smiles>  (7) 
Cc1cc(C(=O)Nc2cc(F)cc(Br)c2C)c(Cl)cn1

>  <subsites>  (7) 
None

>  <rmsd(smina/fragmenstein)>  (7) 
0.95

>  <alias>  (7) 
None

>  <energy_score>  (7) 
-17.569604

>  <HIPPO Pose ID>  (7) 
63697

>  <distance_score>  (7) 
0.623814

>  <HIPPO Compound ID>  (7) 
99814

>  <gnina_score_min>  (7) 
5.142

>  <name>  (7) 
P63697

>  <exports>  (7) 
['/opt/xchem-fragalysis-2/maxwin/BulkDock/OUTPUTS/openbind_d68ev3c_c2_elabs_1LOTQJ3.sdf', '/opt/xchem-fragalysis-2/maxwin/BulkDock/OUTPUTS/openbind_d68ev3c_c2_elabs_1LSYEHW.sdf', '/opt/xchem-fragalysis-2/maxwin/BulkDock/OUTPUTS/openbind_d68ev3c_c2_elabs_1LSYI5W.sdf']

$$$$
P63698
     RDKit          3D

 20 21  0  0  0  0  0  0  0  0999 V2000
   -0.1048   -6.3377   30.1948 C   0  0  0  0  0  0  0  0  0  0  0  0
   -0.6680   -6.9871   31.4248 C   0  0  0  0  0  0  0  0  0  0  0  0
   -0.3913   -6.4261   32.6692 C   0  0  0  0  0  0  0  0  0  0  0  0
   -0.9461   -6.9908   33.8265 C   0  0  0  0  0  0  0  0  0  0  0  0
   -0.7922   -6.2967   35.1498 C   0  0  0  0  0  0  0  0  0  0  0  0
   -1.6927   -6.3748   35.8861 O   0  0  0  0  0  0  0  0  0  0  0  0
    0.5276   -5.4991   35.2624 N   0  0  0  0  0  0  0  0  0  0  0  0
    0.9565   -4.5877   36.2293 C   0  0  0  0  0  0  0  0  0  0  0  0
    0.1607   -4.3595   37.3562 C   0  0  0  0  0  0  0  0  0  0  0  0
    0.5783   -3.4657   38.3325 C   0  0  0  0  0  0  0  0  0  0  0  0
   -0.1637   -3.2992   39.4348 F   0  0  0  0  0  0  0  0  0  0  0  0
    1.7575   -2.7521   38.1924 C   0  0  0  0  0  0  0  0  0  0  0  0
    2.5466   -2.9563   37.0634 C   0  0  0  0  0  0  0  0  0  0  0  0
    2.1656   -3.8855   36.0754 C   0  0  0  0  0  0  0  0  0  0  0  0
    3.1215   -4.1541   34.9467 C   0  0  0  0  0  0  0  0  0  0  0  0
    3.8291   -5.3591   35.2001 O   0  0  0  0  0  0  0  0  0  0  0  0
   -1.7893   -8.0958   33.6801 C   0  0  0  0  0  0  0  0  0  0  0  0
   -2.7134   -8.8222   34.9344 Cl  0  0  0  0  0  0  0  0  0  0  0  0
   -1.9933   -8.5954   32.4036 C   0  0  0  0  0  0  0  0  0  0  0  0
   -1.4776   -8.0608   31.2717 N   0  0  0  0  0  0  0  0  0  0  0  0
  1  2  1  0
  2  3  2  0
  3  4  1  0
  4  5  1  0
  5  6  2  0
  5  7  1  0
  7  8  1  0
  8  9  2  0
  9 10  1  0
 10 11  1  0
 10 12  2  0
 12 13  1  0
 13 14  2  0
 14 15  1  0
 15 16  1  0
  4 17  2  0
 17 18  1  0
 17 19  1  0
 19 20  2  0
 20  2  1  0
 14  8  1  0
M  END
>  <ref_mols>  (8) 
7gov-a

>  <gnina_score>  (8) 
4.911

>  <smina_score_min>  (8) 
-6.022

>  <ref_pdb>  (8) 
7gov-a

>  <inspiration_score>  (8) 
None

>  <inchikey>  (8) 
ZPIOPERDFZDINT-UHFFFAOYSA-N

>  <tags>  (8) 
BulkDock Fragalysis export,openbind_d68ev3c_c2_elabs_scored,openbind_d68ev3c_c2_elabs_scored_4.5plus,openbind_d68ev3c_c2_elabs,openbind_d68ev3c_c2_elabs_scored_5plus,syndirella_product,openbind_d68ev3c_c2_elabs_scored_top80percent,syndirella_placed

>  <smiles>  (8) 
Cc1cc(C(=O)Nc2cc(F)ccc2CO)c(Cl)cn1

>  <subsites>  (8) 
None

>  <rmsd(smina/fragmenstein)>  (8) 
0.941

>  <alias>  (8) 
None

>  <energy_score>  (8) 
-15.289438

>  <HIPPO Pose ID>  (8) 
63698

>  <distance_score>  (8) 
0.863709

>  <HIPPO Compound ID>  (8) 
99815

>  <gnina_score_min>  (8) 
5.071

>  <name>  (8) 
P63698

>  <exports>  (8) 
['/opt/xchem-fragalysis-2/maxwin/BulkDock/OUTPUTS/openbind_d68ev3c_c2_elabs_1LOTQJ3.sdf', '/opt/xchem-fragalysis-2/maxwin/BulkDock/OUTPUTS/openbind_d68ev3c_c2_elabs_1LSYEHW.sdf', '/opt/xchem-fragalysis-2/maxwin/BulkDock/OUTPUTS/openbind_d68ev3c_c2_elabs_1LSYI5W.sdf']

$$$$
P63708
     RDKit          3D

 20 21  0  0  0  0  0  0  0  0999 V2000
   -0.1142   -6.4933   30.2015 C   0  0  0  0  0  0  0  0  0  0  0  0
   -0.6602   -7.1311   31.4450 C   0  0  0  0  0  0  0  0  0  0  0  0
   -0.1852   -6.7150   32.6868 C   0  0  0  0  0  0  0  0  0  0  0  0
   -0.8184   -7.1451   33.8629 C   0  0  0  0  0  0  0  0  0  0  0  0
   -0.4072   -6.6217   35.2204 C   0  0  0  0  0  0  0  0  0  0  0  0
   -0.6638   -7.2861   36.1432 O   0  0  0  0  0  0  0  0  0  0  0  0
    0.2565   -5.2275   35.1438 N   0  0  0  0  0  0  0  0  0  0  0  0
    0.8071   -4.4339   36.1431 C   0  0  0  0  0  0  0  0  0  0  0  0
    0.2798   -4.5115   37.4337 C   0  0  0  0  0  0  0  0  0  0  0  0
    0.7851   -3.6899   38.4320 C   0  0  0  0  0  0  0  0  0  0  0  0
    0.2505   -3.7413   39.6591 F   0  0  0  0  0  0  0  0  0  0  0  0
    1.8196   -2.8059   38.1743 C   0  0  0  0  0  0  0  0  0  0  0  0
    2.3525   -2.7513   36.8921 C   0  0  0  0  0  0  0  0  0  0  0  0
    3.3568   -1.8930   36.6568 F   0  0  0  0  0  0  0  0  0  0  0  0
    1.8610   -3.5531   35.8537 C   0  0  0  0  0  0  0  0  0  0  0  0
    2.5176   -3.5122   34.5044 C   0  0  0  0  0  0  0  0  0  0  0  0
   -1.8570   -8.0746   33.7363 C   0  0  0  0  0  0  0  0  0  0  0  0
   -2.8648   -8.6480   35.0115 Cl  0  0  0  0  0  0  0  0  0  0  0  0
   -2.2051   -8.4965   32.4608 C   0  0  0  0  0  0  0  0  0  0  0  0
   -1.6688   -8.0200   31.3130 N   0  0  0  0  0  0  0  0  0  0  0  0
  1  2  1  0
  2  3  2  0
  3  4  1  0
  4  5  1  0
  5  6  2  0
  5  7  1  0
  7  8  1  0
  8  9  2  0
  9 10  1  0
 10 11  1  0
 10 12  2  0
 12 13  1  0
 13 14  1  0
 13 15  2  0
 15 16  1  0
  4 17  2  0
 17 18  1  0
 17 19  1  0
 19 20  2  0
 20  2  1  0
 15  8  1  0
M  END
>  <ref_mols>  (9) 
7gov-a

>  <gnina_score>  (9) 
4.989

>  <smina_score_min>  (9) 
-6.192

>  <ref_pdb>  (9) 
7gov-a

>  <inspiration_score>  (9) 
None

>  <inchikey>  (9) 
NKFPUDCVGBJNBN-UHFFFAOYSA-N

>  <tags>  (9) 
BulkDock Fragalysis export,openbind_d68ev3c_c2_elabs_scored,openbind_d68ev3c_c2_elabs_scored_4.5plus,openbind_d68ev3c_c2_elabs,openbind_d68ev3c_c2_elabs_scored_5plus,syndirella_product,openbind_d68ev3c_c2_elabs_scored_top80percent,syndirella_placed

>  <smiles>  (9) 
Cc1cc(C(=O)Nc2cc(F)cc(F)c2C)c(Cl)cn1

>  <subsites>  (9) 
None

>  <rmsd(smina/fragmenstein)>  (9) 
0.96

>  <alias>  (9) 
None

>  <energy_score>  (9) 
-9.419488

>  <HIPPO Pose ID>  (9) 
63708

>  <distance_score>  (9) 
0.623247

>  <HIPPO Compound ID>  (9) 
99827

>  <gnina_score_min>  (9) 
5.077

>  <name>  (9) 
P63708

>  <exports>  (9) 
['/opt/xchem-fragalysis-2/maxwin/BulkDock/OUTPUTS/openbind_d68ev3c_c2_elabs_1LOTQJ3.sdf', '/opt/xchem-fragalysis-2/maxwin/BulkDock/OUTPUTS/openbind_d68ev3c_c2_elabs_1LSYEHW.sdf', '/opt/xchem-fragalysis-2/maxwin/BulkDock/OUTPUTS/openbind_d68ev3c_c2_elabs_1LSYI5W.sdf']

$$$$
P63715
     RDKit          3D

 20 21  0  0  0  0  0  0  0  0999 V2000
    3.7171   -2.6743   34.1679 C   0  0  0  0  0  0  0  0  0  0  0  0
    2.4893   -3.5514   34.3846 C   0  0  0  0  0  0  0  0  0  0  0  0
    1.8609   -3.5432   35.7647 C   0  0  0  0  0  0  0  0  0  0  0  0
    2.3363   -2.7106   36.7934 C   0  0  0  0  0  0  0  0  0  0  0  0
    1.7949   -2.7745   38.0796 C   0  0  0  0  0  0  0  0  0  0  0  0
    0.7814   -3.6793   38.3530 C   0  0  0  0  0  0  0  0  0  0  0  0
    0.2542   -3.7304   39.5837 F   0  0  0  0  0  0  0  0  0  0  0  0
    0.2950   -4.5202   37.3652 C   0  0  0  0  0  0  0  0  0  0  0  0
    0.8187   -4.4428   36.0722 C   0  0  0  0  0  0  0  0  0  0  0  0
    0.2772   -5.2583   35.0835 N   0  0  0  0  0  0  0  0  0  0  0  0
   -0.4232   -6.6309   35.1878 C   0  0  0  0  0  0  0  0  0  0  0  0
   -0.7237   -7.2558   36.1244 O   0  0  0  0  0  0  0  0  0  0  0  0
   -0.8299   -7.1834   33.8416 C   0  0  0  0  0  0  0  0  0  0  0  0
   -0.1816   -6.7956   32.6594 C   0  0  0  0  0  0  0  0  0  0  0  0
   -0.6502   -7.2722   31.4473 C   0  0  0  0  0  0  0  0  0  0  0  0
   -0.1263   -6.7765   30.3197 F   0  0  0  0  0  0  0  0  0  0  0  0
   -1.6595   -8.1548   31.3211 N   0  0  0  0  0  0  0  0  0  0  0  0
   -2.2195   -8.5754   32.4755 C   0  0  0  0  0  0  0  0  0  0  0  0
   -1.8774   -8.1114   33.7384 C   0  0  0  0  0  0  0  0  0  0  0  0
   -2.8969   -8.6451   35.0214 Cl  0  0  0  0  0  0  0  0  0  0  0  0
  1  2  1  0
  2  3  1  0
  3  4  2  0
  4  5  1  0
  5  6  2  0
  6  7  1  0
  6  8  1  0
  8  9  2  0
  9 10  1  0
 10 11  1  0
 11 12  2  0
 11 13  1  0
 13 14  2  0
 14 15  1  0
 15 16  1  0
 15 17  2  0
 17 18  1  0
 18 19  2  0
 19 20  1  0
  9  3  1  0
 19 13  1  0
M  END
>  <ref_mols>  (10) 
7gov-a

>  <gnina_score>  (10) 
4.999

>  <smina_score_min>  (10) 
-5.97

>  <ref_pdb>  (10) 
7gov-a

>  <inspiration_score>  (10) 
None

>  <inchikey>  (10) 
DRVUXRFNJYYLLK-UHFFFAOYSA-N

>  <tags>  (10) 
BulkDock Fragalysis export,openbind_d68ev3c_c2_elabs_scored,openbind_d68ev3c_c2_elabs_scored_4.5plus,openbind_d68ev3c_c2_elabs,openbind_d68ev3c_c2_elabs_scored_5plus,syndirella_product,openbind_d68ev3c_c2_elabs_scored_top80percent,syndirella_placed

>  <smiles>  (10) 
CCc1ccc(F)cc1NC(=O)c1cc(F)ncc1Cl

>  <subsites>  (10) 
None

>  <rmsd(smina/fragmenstein)>  (10) 
0.953

>  <alias>  (10) 
None

>  <energy_score>  (10) 
-7.956133

>  <HIPPO Pose ID>  (10) 
63715

>  <distance_score>  (10) 
0.622061

>  <HIPPO Compound ID>  (10) 
99837

>  <gnina_score_min>  (10) 
5.074

>  <name>  (10) 
P63715

>  <exports>  (10) 
['/opt/xchem-fragalysis-2/maxwin/BulkDock/OUTPUTS/openbind_d68ev3c_c2_elabs_1LOTQJ3.sdf', '/opt/xchem-fragalysis-2/maxwin/BulkDock/OUTPUTS/openbind_d68ev3c_c2_elabs_1LSYEHW.sdf', '/opt/xchem-fragalysis-2/maxwin/BulkDock/OUTPUTS/openbind_d68ev3c_c2_elabs_1LSYI5W.sdf']

$$$$
P63716
     RDKit          3D

 20 21  0  0  0  0  0  0  0  0999 V2000
    2.6250   -3.5156   34.4219 C   0  0  0  0  0  0  0  0  0  0  0  0
    1.9366   -3.5489   35.7618 C   0  0  0  0  0  0  0  0  0  0  0  0
    2.3436   -2.6870   36.8020 C   0  0  0  0  0  0  0  0  0  0  0  0
    3.6848   -1.3591   36.5515 Br  0  0  0  0  0  0  0  0  0  0  0  0
    1.7664   -2.7617   38.0715 C   0  0  0  0  0  0  0  0  0  0  0  0
    0.7779   -3.7002   38.3143 C   0  0  0  0  0  0  0  0  0  0  0  0
    0.2136   -3.7651   39.5277 F   0  0  0  0  0  0  0  0  0  0  0  0
    0.3476   -4.5574   37.3139 C   0  0  0  0  0  0  0  0  0  0  0  0
    0.9096   -4.4726   36.0369 C   0  0  0  0  0  0  0  0  0  0  0  0
    0.4243   -5.3121   35.0376 N   0  0  0  0  0  0  0  0  0  0  0  0
   -0.3101   -6.6667   35.1349 C   0  0  0  0  0  0  0  0  0  0  0  0
   -0.5550   -7.3275   36.0628 O   0  0  0  0  0  0  0  0  0  0  0  0
   -0.7776   -7.1795   33.7962 C   0  0  0  0  0  0  0  0  0  0  0  0
   -0.1541   -6.7910   32.6016 C   0  0  0  0  0  0  0  0  0  0  0  0
   -0.6551   -7.2594   31.4000 C   0  0  0  0  0  0  0  0  0  0  0  0
   -0.1493   -6.7706   30.2611 F   0  0  0  0  0  0  0  0  0  0  0  0
   -1.6774   -8.1301   31.2955 N   0  0  0  0  0  0  0  0  0  0  0  0
   -2.2198   -8.5447   32.4606 C   0  0  0  0  0  0  0  0  0  0  0  0
   -1.8432   -8.0883   33.7154 C   0  0  0  0  0  0  0  0  0  0  0  0
   -2.8399   -8.6053   35.0221 Cl  0  0  0  0  0  0  0  0  0  0  0  0
  1  2  1  0
  2  3  2  0
  3  4  1  0
  3  5  1  0
  5  6  2  0
  6  7  1  0
  6  8  1  0
  8  9  2  0
  9 10  1  0
 10 11  1  0
 11 12  2  0
 11 13  1  0
 13 14  2  0
 14 15  1  0
 15 16  1  0
 15 17  2  0
 17 18  1  0
 18 19  2  0
 19 20  1  0
  9  2  1  0
 19 13  1  0
M  END
>  <ref_mols>  (11) 
7gov-a

>  <gnina_score>  (11) 
5.089

>  <smina_score_min>  (11) 
-6.2

>  <ref_pdb>  (11) 
7gov-a

>  <inspiration_score>  (11) 
None

>  <inchikey>  (11) 
VPCOYZXIHMEJGD-UHFFFAOYSA-N

>  <tags>  (11) 
BulkDock Fragalysis export,openbind_d68ev3c_c2_elabs_scored,openbind_d68ev3c_c2_elabs_scored_4.5plus,openbind_d68ev3c_c2_elabs,openbind_d68ev3c_c2_elabs_scored_5plus,syndirella_product,openbind_d68ev3c_c2_elabs_scored_top80percent,syndirella_placed

>  <smiles>  (11) 
Cc1c(Br)cc(F)cc1NC(=O)c1cc(F)ncc1Cl

>  <subsites>  (11) 
None

>  <rmsd(smina/fragmenstein)>  (11) 
1.014

>  <alias>  (11) 
None

>  <energy_score>  (11) 
-6.311878

>  <HIPPO Pose ID>  (11) 
63716

>  <distance_score>  (11) 
0.577167

>  <HIPPO Compound ID>  (11) 
99839

>  <gnina_score_min>  (11) 
5.161

>  <name>  (11) 
P63716

>  <exports>  (11) 
['/opt/xchem-fragalysis-2/maxwin/BulkDock/OUTPUTS/openbind_d68ev3c_c2_elabs_1LOTQJ3.sdf', '/opt/xchem-fragalysis-2/maxwin/BulkDock/OUTPUTS/openbind_d68ev3c_c2_elabs_1LSYEHW.sdf', '/opt/xchem-fragalysis-2/maxwin/BulkDock/OUTPUTS/openbind_d68ev3c_c2_elabs_1LSYI5W.sdf']

$$$$
P63717
     RDKit          3D

 20 21  0  0  0  0  0  0  0  0999 V2000
    0.9947   -7.3687   35.2141 O   0  0  0  0  0  0  0  0  0  0  0  0
    0.1979   -6.6297   34.7964 C   0  0  0  0  0  0  0  0  0  0  0  0
   -0.1619   -5.2003   35.2335 N   0  0  0  0  0  0  0  0  0  0  0  0
    0.4249   -4.3723   36.1807 C   0  0  0  0  0  0  0  0  0  0  0  0
   -0.3797   -3.9718   37.2464 C   0  0  0  0  0  0  0  0  0  0  0  0
    0.1819   -3.2516   38.2918 C   0  0  0  0  0  0  0  0  0  0  0  0
   -0.5543   -2.9830   39.3761 F   0  0  0  0  0  0  0  0  0  0  0  0
    1.4986   -2.8262   38.2473 C   0  0  0  0  0  0  0  0  0  0  0  0
    2.2859   -3.1760   37.1555 C   0  0  0  0  0  0  0  0  0  0  0  0
    1.7864   -4.0091   36.1334 C   0  0  0  0  0  0  0  0  0  0  0  0
    2.7083   -4.3834   34.9936 C   0  0  0  0  0  0  0  0  0  0  0  0
    4.0747   -4.4428   35.4012 O   0  0  0  0  0  0  0  0  0  0  0  0
   -0.5502   -7.0396   33.5966 C   0  0  0  0  0  0  0  0  0  0  0  0
   -0.0738   -6.6283   32.3521 C   0  0  0  0  0  0  0  0  0  0  0  0
   -0.6986   -7.1335   31.2317 C   0  0  0  0  0  0  0  0  0  0  0  0
   -0.3205   -6.6913   30.0257 F   0  0  0  0  0  0  0  0  0  0  0  0
   -1.7272   -8.0129   31.2707 N   0  0  0  0  0  0  0  0  0  0  0  0
   -2.1422   -8.4022   32.4995 C   0  0  0  0  0  0  0  0  0  0  0  0
   -1.6122   -7.9267   33.6848 C   0  0  0  0  0  0  0  0  0  0  0  0
   -2.3574   -8.3594   35.1585 Cl  0  0  0  0  0  0  0  0  0  0  0  0
  1  2  2  0
  2  3  1  0
  3  4  1  0
  4  5  2  0
  5  6  1  0
  6  7  1  0
  6  8  2  0
  8  9  1  0
  9 10  2  0
 10 11  1  0
 11 12  1  0
  2 13  1  0
 13 14  2  0
 14 15  1  0
 15 16  1  0
 15 17  2  0
 17 18  1  0
 18 19  2  0
 19 20  1  0
 10  4  1  0
 19 13  1  0
M  END
>  <ref_mols>  (12) 
7gov-a

>  <gnina_score>  (12) 
4.822

>  <smina_score_min>  (12) 
-6.308

>  <ref_pdb>  (12) 
7gov-a

>  <inspiration_score>  (12) 
None

>  <inchikey>  (12) 
UYDBKAXUHJTSRN-UHFFFAOYSA-N

>  <tags>  (12) 
BulkDock Fragalysis export,openbind_d68ev3c_c2_elabs_scored,openbind_d68ev3c_c2_elabs_scored_4.5plus,openbind_d68ev3c_c2_elabs,openbind_d68ev3c_c2_elabs_scored_5plus,syndirella_product,openbind_d68ev3c_c2_elabs_scored_top80percent,syndirella_placed

>  <smiles>  (12) 
O=C(Nc1cc(F)ccc1CO)c1cc(F)ncc1Cl

>  <subsites>  (12) 
None

>  <rmsd(smina/fragmenstein)>  (12) 
0.862

>  <alias>  (12) 
None

>  <energy_score>  (12) 
-3.61135

>  <HIPPO Pose ID>  (12) 
63717

>  <distance_score>  (12) 
0.463874

>  <HIPPO Compound ID>  (12) 
99840

>  <gnina_score_min>  (12) 
5.035

>  <name>  (12) 
P63717

>  <exports>  (12) 
['/opt/xchem-fragalysis-2/maxwin/BulkDock/OUTPUTS/openbind_d68ev3c_c2_elabs_1LOTQJ3.sdf', '/opt/xchem-fragalysis-2/maxwin/BulkDock/OUTPUTS/openbind_d68ev3c_c2_elabs_1LSYEHW.sdf', '/opt/xchem-fragalysis-2/maxwin/BulkDock/OUTPUTS/openbind_d68ev3c_c2_elabs_1LSYI5W.sdf']

$$$$
P63719
     RDKit          3D

 20 21  0  0  0  0  0  0  0  0999 V2000
    2.5911   -3.5042   34.4243 C   0  0  0  0  0  0  0  0  0  0  0  0
    1.9127   -3.5453   35.7625 C   0  0  0  0  0  0  0  0  0  0  0  0
    2.3527   -2.7055   36.7944 C   0  0  0  0  0  0  0  0  0  0  0  0
    3.3250   -1.8109   36.5595 F   0  0  0  0  0  0  0  0  0  0  0  0
    1.8027   -2.7603   38.0692 C   0  0  0  0  0  0  0  0  0  0  0  0
    0.8020   -3.6820   38.3261 C   0  0  0  0  0  0  0  0  0  0  0  0
    0.2516   -3.7366   39.5464 F   0  0  0  0  0  0  0  0  0  0  0  0
    0.3497   -4.5424   37.3338 C   0  0  0  0  0  0  0  0  0  0  0  0
    0.8968   -4.4694   36.0501 C   0  0  0  0  0  0  0  0  0  0  0  0
    0.4252   -5.3194   35.0541 N   0  0  0  0  0  0  0  0  0  0  0  0
   -0.3442   -6.6544   35.1563 C   0  0  0  0  0  0  0  0  0  0  0  0
   -0.6352   -7.2882   36.0897 O   0  0  0  0  0  0  0  0  0  0  0  0
   -0.7910   -7.1824   33.8128 C   0  0  0  0  0  0  0  0  0  0  0  0
   -0.1605   -6.7970   32.6201 C   0  0  0  0  0  0  0  0  0  0  0  0
   -0.6535   -7.2673   31.4154 C   0  0  0  0  0  0  0  0  0  0  0  0
   -0.1421   -6.7771   30.2796 F   0  0  0  0  0  0  0  0  0  0  0  0
   -1.6730   -8.1398   31.3047 N   0  0  0  0  0  0  0  0  0  0  0  0
   -2.2205   -8.5546   32.4669 C   0  0  0  0  0  0  0  0  0  0  0  0
   -1.8532   -8.0957   33.7243 C   0  0  0  0  0  0  0  0  0  0  0  0
   -2.8593   -8.6195   35.0218 Cl  0  0  0  0  0  0  0  0  0  0  0  0
  1  2  1  0
  2  3  2  0
  3  4  1  0
  3  5  1  0
  5  6  2  0
  6  7  1  0
  6  8  1  0
  8  9  2  0
  9 10  1  0
 10 11  1  0
 11 12  2  0
 11 13  1  0
 13 14  2  0
 14 15  1  0
 15 16  1  0
 15 17  2  0
 17 18  1  0
 18 19  2  0
 19 20  1  0
  9  2  1  0
 19 13  1  0
M  END
>  <ref_mols>  (13) 
7gov-a

>  <gnina_score>  (13) 
5.011

>  <smina_score_min>  (13) 
-6.198

>  <ref_pdb>  (13) 
7gov-a

>  <inspiration_score>  (13) 
None

>  <inchikey>  (13) 
FTCRMQYVXNPCNZ-UHFFFAOYSA-N

>  <tags>  (13) 
BulkDock Fragalysis export,openbind_d68ev3c_c2_elabs_scored,openbind_d68ev3c_c2_elabs_scored_4.5plus,openbind_d68ev3c_c2_elabs,openbind_d68ev3c_c2_elabs_scored_5plus,syndirella_product,openbind_d68ev3c_c2_elabs_scored_top80percent,syndirella_placed

>  <smiles>  (13) 
Cc1c(F)cc(F)cc1NC(=O)c1cc(F)ncc1Cl

>  <subsites>  (13) 
None

>  <rmsd(smina/fragmenstein)>  (13) 
1.009

>  <alias>  (13) 
None

>  <energy_score>  (13) 
-9.897417

>  <HIPPO Pose ID>  (13) 
63719

>  <distance_score>  (13) 
0.597948

>  <HIPPO Compound ID>  (13) 
99842

>  <gnina_score_min>  (13) 
5.1

>  <name>  (13) 
P63719

>  <exports>  (13) 
['/opt/xchem-fragalysis-2/maxwin/BulkDock/OUTPUTS/openbind_d68ev3c_c2_elabs_1LOTQJ3.sdf', '/opt/xchem-fragalysis-2/maxwin/BulkDock/OUTPUTS/openbind_d68ev3c_c2_elabs_1LSYEHW.sdf', '/opt/xchem-fragalysis-2/maxwin/BulkDock/OUTPUTS/openbind_d68ev3c_c2_elabs_1LSYI5W.sdf']

$$$$
P63755
     RDKit          3D

 20 21  0  0  0  0  0  0  0  0999 V2000
    2.9718   -3.4470   33.3721 N   0  0  0  0  0  0  0  0  0  0  0  0
    2.5376   -3.4847   34.4483 C   0  0  0  0  0  0  0  0  0  0  0  0
    1.9318   -3.5361   35.7464 C   0  0  0  0  0  0  0  0  0  0  0  0
    2.4307   -2.7183   36.7709 C   0  0  0  0  0  0  0  0  0  0  0  0
    1.8806   -2.7847   38.0528 C   0  0  0  0  0  0  0  0  0  0  0  0
    0.8467   -3.6764   38.3094 C   0  0  0  0  0  0  0  0  0  0  0  0
    0.3077   -3.7278   39.5346 F   0  0  0  0  0  0  0  0  0  0  0  0
    0.3532   -4.5059   37.3106 C   0  0  0  0  0  0  0  0  0  0  0  0
    0.8852   -4.4300   36.0197 C   0  0  0  0  0  0  0  0  0  0  0  0
    0.3358   -5.2407   35.0258 N   0  0  0  0  0  0  0  0  0  0  0  0
   -0.3044   -6.6419   35.1157 C   0  0  0  0  0  0  0  0  0  0  0  0
   -0.5424   -7.3047   36.0437 O   0  0  0  0  0  0  0  0  0  0  0  0
   -0.7545   -7.1699   33.7761 C   0  0  0  0  0  0  0  0  0  0  0  0
   -0.1369   -6.7804   32.5788 C   0  0  0  0  0  0  0  0  0  0  0  0
   -0.6417   -7.2541   31.3801 C   0  0  0  0  0  0  0  0  0  0  0  0
   -0.1451   -6.7654   30.2372 F   0  0  0  0  0  0  0  0  0  0  0  0
   -1.6616   -8.1293   31.2815 N   0  0  0  0  0  0  0  0  0  0  0  0
   -2.1984   -8.5433   32.4486 C   0  0  0  0  0  0  0  0  0  0  0  0
   -1.8186   -8.0826   33.7003 C   0  0  0  0  0  0  0  0  0  0  0  0
   -2.8140   -8.5968   35.0101 Cl  0  0  0  0  0  0  0  0  0  0  0  0
  1  2  3  0
  2  3  1  0
  3  4  2  0
  4  5  1  0
  5  6  2  0
  6  7  1  0
  6  8  1  0
  8  9  2  0
  9 10  1  0
 10 11  1  0
 11 12  2  0
 11 13  1  0
 13 14  2  0
 14 15  1  0
 15 16  1  0
 15 17  2  0
 17 18  1  0
 18 19  2  0
 19 20  1  0
  9  3  1  0
 19 13  1  0
M  END
>  <ref_mols>  (14) 
7gov-a

>  <gnina_score>  (14) 
4.951

>  <smina_score_min>  (14) 
-6.048

>  <ref_pdb>  (14) 
7gov-a

>  <inspiration_score>  (14) 
None

>  <inchikey>  (14) 
CEAYRYJHRDJNFI-UHFFFAOYSA-N

>  <tags>  (14) 
BulkDock Fragalysis export,openbind_d68ev3c_c2_elabs_scored,openbind_d68ev3c_c2_elabs_scored_4.5plus,openbind_d68ev3c_c2_elabs,openbind_d68ev3c_c2_elabs_scored_5plus,syndirella_product,openbind_d68ev3c_c2_elabs_scored_top80percent,syndirella_placed

>  <smiles>  (14) 
N#Cc1ccc(F)cc1NC(=O)c1cc(F)ncc1Cl

>  <subsites>  (14) 
None

>  <rmsd(smina/fragmenstein)>  (14) 
1.212

>  <alias>  (14) 
None

>  <energy_score>  (14) 
-20.323456

>  <HIPPO Pose ID>  (14) 
63755

>  <distance_score>  (14) 
0.569247

>  <HIPPO Compound ID>  (14) 
99887

>  <gnina_score_min>  (14) 
5.034

>  <name>  (14) 
P63755

>  <exports>  (14) 
['/opt/xchem-fragalysis-2/maxwin/BulkDock/OUTPUTS/openbind_d68ev3c_c2_elabs_1LOTQJ3.sdf', '/opt/xchem-fragalysis-2/maxwin/BulkDock/OUTPUTS/openbind_d68ev3c_c2_elabs_1LSYEHW.sdf', '/opt/xchem-fragalysis-2/maxwin/BulkDock/OUTPUTS/openbind_d68ev3c_c2_elabs_1LSYI5W.sdf']

$$$$
P63783
     RDKit          3D

 20 21  0  0  0  0  0  0  0  0999 V2000
    2.5333   -3.2728   34.5016 C   0  0  0  0  0  0  0  0  0  0  0  0
    1.8368   -3.4054   35.8275 C   0  0  0  0  0  0  0  0  0  0  0  0
    2.2769   -2.6295   36.9130 C   0  0  0  0  0  0  0  0  0  0  0  0
    1.7238   -2.8109   38.1815 C   0  0  0  0  0  0  0  0  0  0  0  0
    2.3333   -1.7494   39.6234 Br  0  0  0  0  0  0  0  0  0  0  0  0
    0.7379   -3.7713   38.3768 C   0  0  0  0  0  0  0  0  0  0  0  0
    0.1759   -3.9427   39.5828 F   0  0  0  0  0  0  0  0  0  0  0  0
    0.3092   -4.5680   37.3219 C   0  0  0  0  0  0  0  0  0  0  0  0
    0.8483   -4.3788   36.0487 C   0  0  0  0  0  0  0  0  0  0  0  0
    0.4244   -5.1824   34.9984 N   0  0  0  0  0  0  0  0  0  0  0  0
   -0.1261   -6.6189   34.9979 C   0  0  0  0  0  0  0  0  0  0  0  0
   -0.2401   -7.3853   35.8700 O   0  0  0  0  0  0  0  0  0  0  0  0
   -0.6113   -7.0912   33.6458 C   0  0  0  0  0  0  0  0  0  0  0  0
   -1.6050   -8.0865   33.7389 C   0  0  0  0  0  0  0  0  0  0  0  0
   -2.1571   -8.6069   32.5928 C   0  0  0  0  0  0  0  0  0  0  0  0
   -1.8107   -8.1981   31.3657 N   0  0  0  0  0  0  0  0  0  0  0  0
   -0.8232   -7.2756   31.2861 C   0  0  0  0  0  0  0  0  0  0  0  0
   -0.5329   -6.8349   29.6450 Cl  0  0  0  0  0  0  0  0  0  0  0  0
   -0.1565   -6.6980   32.3704 C   0  0  0  0  0  0  0  0  0  0  0  0
    0.9711   -5.7446   32.1053 C   0  0  0  0  0  0  0  0  0  0  0  0
  1  2  1  0
  2  3  2  0
  3  4  1  0
  4  5  1  0
  4  6  2  0
  6  7  1  0
  6  8  1  0
  8  9  2  0
  9 10  1  0
 10 11  1  0
 11 12  2  0
 11 13  1  0
 13 14  2  0
 14 15  1  0
 15 16  2  0
 16 17  1  0
 17 18  1  0
 17 19  2  0
 19 20  1  0
  9  2  1  0
 19 13  1  0
M  END
>  <ref_mols>  (15) 
7gov-a

>  <gnina_score>  (15) 
4.997

>  <smina_score_min>  (15) 
-6.091

>  <ref_pdb>  (15) 
7gov-a

>  <inspiration_score>  (15) 
None

>  <inchikey>  (15) 
XKOLPZOIJQIPHJ-UHFFFAOYSA-N

>  <tags>  (15) 
BulkDock Fragalysis export,openbind_d68ev3c_c2_elabs_scored,openbind_d68ev3c_c2_elabs_scored_4.5plus,openbind_d68ev3c_c2_elabs,openbind_d68ev3c_c2_elabs_scored_5plus,syndirella_product,openbind_d68ev3c_c2_elabs_scored_top80percent,syndirella_placed

>  <smiles>  (15) 
Cc1cc(Br)c(F)cc1NC(=O)c1ccnc(Cl)c1C

>  <subsites>  (15) 
None

>  <rmsd(smina/fragmenstein)>  (15) 
1.082

>  <alias>  (15) 
None

>  <energy_score>  (15) 
-10.201808

>  <HIPPO Pose ID>  (15) 
63783

>  <distance_score>  (15) 
0.501128

>  <HIPPO Compound ID>  (15) 
99921

>  <gnina_score_min>  (15) 
5.013

>  <name>  (15) 
P63783

>  <exports>  (15) 
['/opt/xchem-fragalysis-2/maxwin/BulkDock/OUTPUTS/openbind_d68ev3c_c2_elabs_1LOTQJ3.sdf', '/opt/xchem-fragalysis-2/maxwin/BulkDock/OUTPUTS/openbind_d68ev3c_c2_elabs_1LSYEHW.sdf', '/opt/xchem-fragalysis-2/maxwin/BulkDock/OUTPUTS/openbind_d68ev3c_c2_elabs_1LSYI5W.sdf']

$$$$
P63815
     RDKit          3D

 20 21  0  0  0  0  0  0  0  0999 V2000
    3.3021   -3.5041   34.8188 C   0  0  0  0  0  0  0  0  0  0  0  0
    2.3164   -3.4347   35.9463 C   0  0  0  0  0  0  0  0  0  0  0  0
    2.7157   -2.7066   37.0901 C   0  0  0  0  0  0  0  0  0  0  0  0
    1.9365   -2.6940   38.2377 C   0  0  0  0  0  0  0  0  0  0  0  0
    2.3732   -1.9991   39.3294 O   0  0  0  0  0  0  0  0  0  0  0  0
    0.7431   -3.3923   38.2656 C   0  0  0  0  0  0  0  0  0  0  0  0
    0.0044   -3.4048   39.3851 F   0  0  0  0  0  0  0  0  0  0  0  0
    0.3055   -4.0749   37.1417 C   0  0  0  0  0  0  0  0  0  0  0  0
    1.0754   -4.0880   35.9620 C   0  0  0  0  0  0  0  0  0  0  0  0
    0.4986   -4.8418   34.9359 N   0  0  0  0  0  0  0  0  0  0  0  0
    0.8762   -4.9568   33.4334 C   0  0  0  0  0  0  0  0  0  0  0  0
    1.6788   -4.3803   32.8072 O   0  0  0  0  0  0  0  0  0  0  0  0
    0.0693   -6.0011   32.7300 C   0  0  0  0  0  0  0  0  0  0  0  0
    0.1185   -6.0752   31.3366 C   0  0  0  0  0  0  0  0  0  0  0  0
   -0.6255   -7.0497   30.6878 C   0  0  0  0  0  0  0  0  0  0  0  0
   -1.4341   -7.9270   31.3206 N   0  0  0  0  0  0  0  0  0  0  0  0
   -1.4212   -7.8537   32.6717 C   0  0  0  0  0  0  0  0  0  0  0  0
   -2.4656   -9.0513   33.6590 Br  0  0  0  0  0  0  0  0  0  0  0  0
   -0.6946   -6.9362   33.4057 C   0  0  0  0  0  0  0  0  0  0  0  0
   -0.7510   -6.9625   34.7483 F   0  0  0  0  0  0  0  0  0  0  0  0
  1  2  1  0
  2  3  2  0
  3  4  1  0
  4  5  1  0
  4  6  2  0
  6  7  1  0
  6  8  1  0
  8  9  2  0
  9 10  1  0
 10 11  1  0
 11 12  2  0
 11 13  1  0
 13 14  2  0
 14 15  1  0
 15 16  2  0
 16 17  1  0
 17 18  1  0
 17 19  2  0
 19 20  1  0
  9  2  1  0
 19 13  1  0
M  END
>  <ref_mols>  (16) 
7gov-a

>  <gnina_score>  (16) 
4.92

>  <smina_score_min>  (16) 
-5.092

>  <ref_pdb>  (16) 
7gov-a

>  <inspiration_score>  (16) 
None

>  <inchikey>  (16) 
ALDFSRICGWNHNT-UHFFFAOYSA-N

>  <tags>  (16) 
BulkDock Fragalysis export,openbind_d68ev3c_c2_elabs_scored,openbind_d68ev3c_c2_elabs_scored_4.5plus,openbind_d68ev3c_c2_elabs,openbind_d68ev3c_c2_elabs_scored_5plus,syndirella_product,openbind_d68ev3c_c2_elabs_scored_top80percent,syndirella_placed

>  <smiles>  (16) 
Cc1cc(O)c(F)cc1NC(=O)c1ccnc(Br)c1F

>  <subsites>  (16) 
None

>  <rmsd(smina/fragmenstein)>  (16) 
1.085

>  <alias>  (16) 
None

>  <energy_score>  (16) 
-20.329558

>  <HIPPO Pose ID>  (16) 
63815

>  <distance_score>  (16) 
1.338168

>  <HIPPO Compound ID>  (16) 
99965

>  <gnina_score_min>  (16) 
5.02

>  <name>  (16) 
P63815

>  <exports>  (16) 
['/opt/xchem-fragalysis-2/maxwin/BulkDock/OUTPUTS/openbind_d68ev3c_c2_elabs_1LOTQJ3.sdf', '/opt/xchem-fragalysis-2/maxwin/BulkDock/OUTPUTS/openbind_d68ev3c_c2_elabs_1LSYEHW.sdf', '/opt/xchem-fragalysis-2/maxwin/BulkDock/OUTPUTS/openbind_d68ev3c_c2_elabs_1LSYI5W.sdf']

$$$$
P63822
     RDKit          3D

 20 21  0  0  0  0  0  0  0  0999 V2000
    2.9943   -3.4623   34.2822 C   0  0  0  0  0  0  0  0  0  0  0  0
    2.3118   -3.4401   35.6199 C   0  0  0  0  0  0  0  0  0  0  0  0
    2.8536   -2.6303   36.6356 C   0  0  0  0  0  0  0  0  0  0  0  0
    2.3054   -2.6225   37.9150 C   0  0  0  0  0  0  0  0  0  0  0  0
    1.2075   -3.4205   38.1859 C   0  0  0  0  0  0  0  0  0  0  0  0
    0.6620   -3.3665   39.4133 F   0  0  0  0  0  0  0  0  0  0  0  0
    0.6497   -4.2300   37.1953 C   0  0  0  0  0  0  0  0  0  0  0  0
   -0.9535   -5.0990   37.6622 Br  0  0  0  0  0  0  0  0  0  0  0  0
    1.1992   -4.2549   35.9003 C   0  0  0  0  0  0  0  0  0  0  0  0
    0.6424   -5.0215   34.8644 N   0  0  0  0  0  0  0  0  0  0  0  0
    0.1876   -6.4979   34.8413 C   0  0  0  0  0  0  0  0  0  0  0  0
    0.1331   -7.2871   35.7014 O   0  0  0  0  0  0  0  0  0  0  0  0
   -0.3633   -6.9536   33.5210 C   0  0  0  0  0  0  0  0  0  0  0  0
   -1.3551   -7.9489   33.6211 C   0  0  0  0  0  0  0  0  0  0  0  0
   -1.9395   -8.4335   32.4728 C   0  0  0  0  0  0  0  0  0  0  0  0
   -2.9194   -9.3366   32.5763 F   0  0  0  0  0  0  0  0  0  0  0  0
   -1.6119   -8.0279   31.2330 N   0  0  0  0  0  0  0  0  0  0  0  0
   -0.6341   -7.0943   31.1551 C   0  0  0  0  0  0  0  0  0  0  0  0
    0.0013   -6.5113   32.2492 C   0  0  0  0  0  0  0  0  0  0  0  0
    1.1773   -5.3050   31.9101 Cl  0  0  0  0  0  0  0  0  0  0  0  0
  1  2  1  0
  2  3  2  0
  3  4  1  0
  4  5  2  0
  5  6  1  0
  5  7  1  0
  7  8  1  0
  7  9  2  0
  9 10  1  0
 10 11  1  0
 11 12  2  0
 11 13  1  0
 13 14  2  0
 14 15  1  0
 15 16  1  0
 15 17  2  0
 17 18  1  0
 18 19  2  0
 19 20  1  0
  9  2  1  0
 19 13  1  0
M  END
>  <ref_mols>  (17) 
7gov-a

>  <gnina_score>  (17) 
5.178

>  <smina_score_min>  (17) 
-5.966

>  <ref_pdb>  (17) 
7gov-a

>  <inspiration_score>  (17) 
None

>  <inchikey>  (17) 
HMVKNCRNYGLFIE-UHFFFAOYSA-N

>  <tags>  (17) 
BulkDock Fragalysis export,openbind_d68ev3c_c2_elabs_scored,openbind_d68ev3c_c2_elabs_scored_4.5plus,openbind_d68ev3c_c2_elabs,openbind_d68ev3c_c2_elabs_scored_5plus,syndirella_product,openbind_d68ev3c_c2_elabs_scored_top80percent,syndirella_placed

>  <smiles>  (17) 
Cc1ccc(F)c(Br)c1NC(=O)c1cc(F)ncc1Cl

>  <subsites>  (17) 
None

>  <rmsd(smina/fragmenstein)>  (17) 
1.268

>  <alias>  (17) 
None

>  <energy_score>  (17) 
-4.423117

>  <HIPPO Pose ID>  (17) 
63822

>  <distance_score>  (17) 
0.557392

>  <HIPPO Compound ID>  (17) 
99973

>  <gnina_score_min>  (17) 
5.019

>  <name>  (17) 
P63822

>  <exports>  (17) 
['/opt/xchem-fragalysis-2/maxwin/BulkDock/OUTPUTS/openbind_d68ev3c_c2_elabs_1LOTQJ3.sdf', '/opt/xchem-fragalysis-2/maxwin/BulkDock/OUTPUTS/openbind_d68ev3c_c2_elabs_1LSYEHW.sdf', '/opt/xchem-fragalysis-2/maxwin/BulkDock/OUTPUTS/openbind_d68ev3c_c2_elabs_1LSYI5W.sdf']

$$$$
P63883
     RDKit          3D

 20 21  0  0  0  0  0  0  0  0999 V2000
    2.8684   -3.5772   34.2244 C   0  0  0  0  0  0  0  0  0  0  0  0
    2.2393   -3.5025   35.5889 C   0  0  0  0  0  0  0  0  0  0  0  0
    2.8208   -2.6649   36.5576 C   0  0  0  0  0  0  0  0  0  0  0  0
    2.3167   -2.6156   37.8547 C   0  0  0  0  0  0  0  0  0  0  0  0
    1.2262   -3.4008   38.1897 C   0  0  0  0  0  0  0  0  0  0  0  0
    0.7230   -3.3057   39.4325 F   0  0  0  0  0  0  0  0  0  0  0  0
    0.6321   -4.2412   37.2477 C   0  0  0  0  0  0  0  0  0  0  0  0
   -0.9516   -5.0911   37.8023 Br  0  0  0  0  0  0  0  0  0  0  0  0
    1.1367   -4.3073   35.9381 C   0  0  0  0  0  0  0  0  0  0  0  0
    0.5639   -5.1029   34.9358 N   0  0  0  0  0  0  0  0  0  0  0  0
    0.0945   -6.5756   34.9684 C   0  0  0  0  0  0  0  0  0  0  0  0
    0.0403   -7.3328   35.8550 O   0  0  0  0  0  0  0  0  0  0  0  0
   -0.4634   -7.0451   33.6641 C   0  0  0  0  0  0  0  0  0  0  0  0
   -1.4632   -8.0207   33.7181 C   0  0  0  0  0  0  0  0  0  0  0  0
   -2.0210   -8.4435   32.5326 C   0  0  0  0  0  0  0  0  0  0  0  0
   -3.0205   -9.3308   32.5727 F   0  0  0  0  0  0  0  0  0  0  0  0
   -1.6723   -7.9814   31.3190 N   0  0  0  0  0  0  0  0  0  0  0  0
   -0.6747   -7.0769   31.3057 C   0  0  0  0  0  0  0  0  0  0  0  0
   -0.3044   -6.4698   29.7480 Cl  0  0  0  0  0  0  0  0  0  0  0  0
   -0.0349   -6.5798   32.4251 C   0  0  0  0  0  0  0  0  0  0  0  0
  1  2  1  0
  2  3  2  0
  3  4  1  0
  4  5  2  0
  5  6  1  0
  5  7  1  0
  7  8  1  0
  7  9  2  0
  9 10  1  0
 10 11  1  0
 11 12  2  0
 11 13  1  0
 13 14  2  0
 14 15  1  0
 15 16  1  0
 15 17  2  0
 17 18  1  0
 18 19  1  0
 18 20  2  0
  9  2  1  0
 20 13  1  0
M  END
>  <ref_mols>  (18) 
7gov-a

>  <gnina_score>  (18) 
5.209

>  <smina_score_min>  (18) 
-5.677

>  <ref_pdb>  (18) 
7gov-a

>  <inspiration_score>  (18) 
None

>  <inchikey>  (18) 
FBFDPKCKCJIPGY-UHFFFAOYSA-N

>  <tags>  (18) 
BulkDock Fragalysis export,openbind_d68ev3c_c2_elabs_scored,openbind_d68ev3c_c2_elabs_scored_4.5plus,openbind_d68ev3c_c2_elabs,openbind_d68ev3c_c2_elabs_scored_5plus,syndirella_product,openbind_d68ev3c_c2_elabs_scored_top80percent,syndirella_placed

>  <smiles>  (18) 
Cc1ccc(F)c(Br)c1NC(=O)c1cc(F)nc(Cl)c1

>  <subsites>  (18) 
None

>  <rmsd(smina/fragmenstein)>  (18) 
0.689

>  <alias>  (18) 
None

>  <energy_score>  (18) 
-1.157416

>  <HIPPO Pose ID>  (18) 
63883

>  <distance_score>  (18) 
0.55704

>  <HIPPO Compound ID>  (18) 
100057

>  <gnina_score_min>  (18) 
5.046

>  <name>  (18) 
P63883

>  <exports>  (18) 
['/opt/xchem-fragalysis-2/maxwin/BulkDock/OUTPUTS/openbind_d68ev3c_c2_elabs_1LOTQJ3.sdf', '/opt/xchem-fragalysis-2/maxwin/BulkDock/OUTPUTS/openbind_d68ev3c_c2_elabs_1LSYEHW.sdf', '/opt/xchem-fragalysis-2/maxwin/BulkDock/OUTPUTS/openbind_d68ev3c_c2_elabs_1LSYI5W.sdf']

$$$$
P63884
     RDKit          3D

 20 21  0  0  0  0  0  0  0  0999 V2000
    2.9630   -4.0332   34.6593 C   0  0  0  0  0  0  0  0  0  0  0  0
    2.1335   -3.8765   35.9036 C   0  0  0  0  0  0  0  0  0  0  0  0
    2.5541   -2.9682   36.8900 C   0  0  0  0  0  0  0  0  0  0  0  0
    1.8326   -2.8304   38.0708 C   0  0  0  0  0  0  0  0  0  0  0  0
    2.2605   -1.9706   39.0064 F   0  0  0  0  0  0  0  0  0  0  0  0
    0.6794   -3.5714   38.2762 C   0  0  0  0  0  0  0  0  0  0  0  0
   -0.0118   -3.4413   39.4175 F   0  0  0  0  0  0  0  0  0  0  0  0
    0.2299   -4.4580   37.3051 C   0  0  0  0  0  0  0  0  0  0  0  0
    0.9622   -4.6277   36.1252 C   0  0  0  0  0  0  0  0  0  0  0  0
    0.5278   -5.5330   35.1583 N   0  0  0  0  0  0  0  0  0  0  0  0
   -0.7337   -6.4263   35.1136 C   0  0  0  0  0  0  0  0  0  0  0  0
   -1.5654   -6.6006   35.9131 O   0  0  0  0  0  0  0  0  0  0  0  0
   -0.9208   -7.0787   33.7873 C   0  0  0  0  0  0  0  0  0  0  0  0
   -0.4728   -6.4944   32.6001 C   0  0  0  0  0  0  0  0  0  0  0  0
   -0.8020   -7.1063   31.4022 C   0  0  0  0  0  0  0  0  0  0  0  0
   -0.2332   -6.2806   29.8004 Br  0  0  0  0  0  0  0  0  0  0  0  0
   -1.5679   -8.2180   31.3092 N   0  0  0  0  0  0  0  0  0  0  0  0
   -1.9814   -8.7609   32.4768 C   0  0  0  0  0  0  0  0  0  0  0  0
   -1.6896   -8.2355   33.7174 C   0  0  0  0  0  0  0  0  0  0  0  0
   -2.1904   -8.8321   34.8035 F   0  0  0  0  0  0  0  0  0  0  0  0
  1  2  1  0
  2  3  2  0
  3  4  1  0
  4  5  1  0
  4  6  2  0
  6  7  1  0
  6  8  1  0
  8  9  2  0
  9 10  1  0
 10 11  1  0
 11 12  2  0
 11 13  1  0
 13 14  2  0
 14 15  1  0
 15 16  1  0
 15 17  2  0
 17 18  1  0
 18 19  2  0
 19 20  1  0
  9  2  1  0
 19 13  1  0
M  END
>  <ref_mols>  (19) 
7gov-a

>  <gnina_score>  (19) 
5.009

>  <smina_score_min>  (19) 
-6.138

>  <ref_pdb>  (19) 
7gov-a

>  <inspiration_score>  (19) 
None

>  <inchikey>  (19) 
KWKJAPFWVYQGSP-UHFFFAOYSA-N

>  <tags>  (19) 
BulkDock Fragalysis export,openbind_d68ev3c_c2_elabs_scored,openbind_d68ev3c_c2_elabs_scored_4.5plus,openbind_d68ev3c_c2_elabs,openbind_d68ev3c_c2_elabs_scored_5plus,syndirella_product,openbind_d68ev3c_c2_elabs_scored_top80percent,syndirella_placed

>  <smiles>  (19) 
Cc1cc(F)c(F)cc1NC(=O)c1cc(Br)ncc1F

>  <subsites>  (19) 
None

>  <rmsd(smina/fragmenstein)>  (19) 
1.001

>  <alias>  (19) 
None

>  <energy_score>  (19) 
-8.787963

>  <HIPPO Pose ID>  (19) 
63884

>  <distance_score>  (19) 
0.777191

>  <HIPPO Compound ID>  (19) 
100058

>  <gnina_score_min>  (19) 
5.081

>  <name>  (19) 
P63884

>  <exports>  (19) 
['/opt/xchem-fragalysis-2/maxwin/BulkDock/OUTPUTS/openbind_d68ev3c_c2_elabs_1LOTQJ3.sdf', '/opt/xchem-fragalysis-2/maxwin/BulkDock/OUTPUTS/openbind_d68ev3c_c2_elabs_1LSYEHW.sdf', '/opt/xchem-fragalysis-2/maxwin/BulkDock/OUTPUTS/openbind_d68ev3c_c2_elabs_1LSYI5W.sdf']

$$$$
P63887
     RDKit          3D

 20 21  0  0  0  0  0  0  0  0999 V2000
    3.2578   -3.1755   34.5659 C   0  0  0  0  0  0  0  0  0  0  0  0
    2.5011   -3.1899   35.8660 C   0  0  0  0  0  0  0  0  0  0  0  0
    2.9466   -2.4023   36.9380 C   0  0  0  0  0  0  0  0  0  0  0  0
    2.3106   -2.4614   38.1776 C   0  0  0  0  0  0  0  0  0  0  0  0
    1.2172   -3.2977   38.3498 C   0  0  0  0  0  0  0  0  0  0  0  0
    0.5885   -3.2987   39.5372 F   0  0  0  0  0  0  0  0  0  0  0  0
    0.7533   -4.0882   37.3021 C   0  0  0  0  0  0  0  0  0  0  0  0
   -0.8719   -5.0058   37.5996 Br  0  0  0  0  0  0  0  0  0  0  0  0
    1.4084   -4.0508   36.0590 C   0  0  0  0  0  0  0  0  0  0  0  0
    1.0121   -4.8284   34.9747 N   0  0  0  0  0  0  0  0  0  0  0  0
    0.5650   -6.2970   34.9094 C   0  0  0  0  0  0  0  0  0  0  0  0
    0.5299   -7.1145   35.7405 O   0  0  0  0  0  0  0  0  0  0  0  0
    0.0095   -6.6598   33.5875 C   0  0  0  0  0  0  0  0  0  0  0  0
   -0.9867   -7.6270   33.6058 C   0  0  0  0  0  0  0  0  0  0  0  0
   -1.5628   -7.9717   32.4084 C   0  0  0  0  0  0  0  0  0  0  0  0
   -2.9561   -9.1906   32.4718 Br  0  0  0  0  0  0  0  0  0  0  0  0
   -1.2265   -7.4610   31.2078 N   0  0  0  0  0  0  0  0  0  0  0  0
   -0.2334   -6.5443   31.2214 C   0  0  0  0  0  0  0  0  0  0  0  0
    0.3897   -6.1004   32.3763 C   0  0  0  0  0  0  0  0  0  0  0  0
    1.3214   -5.1393   32.3047 F   0  0  0  0  0  0  0  0  0  0  0  0
  1  2  1  0
  2  3  2  0
  3  4  1  0
  4  5  2  0
  5  6  1  0
  5  7  1  0
  7  8  1  0
  7  9  2  0
  9 10  1  0
 10 11  1  0
 11 12  2  0
 11 13  1  0
 13 14  2  0
 14 15  1  0
 15 16  1  0
 15 17  2  0
 17 18  1  0
 18 19  2  0
 19 20  1  0
  9  2  1  0
 19 13  1  0
M  END
>  <ref_mols>  (20) 
7gov-a

>  <gnina_score>  (20) 
5.118

>  <smina_score_min>  (20) 
-4.996

>  <ref_pdb>  (20) 
7gov-a

>  <inspiration_score>  (20) 
None

>  <inchikey>  (20) 
XGLJYAGLNNCAPH-UHFFFAOYSA-N

>  <tags>  (20) 
BulkDock Fragalysis export,openbind_d68ev3c_c2_elabs_scored,openbind_d68ev3c_c2_elabs_scored_4.5plus,openbind_d68ev3c_c2_elabs,openbind_d68ev3c_c2_elabs_scored_5plus,syndirella_product,openbind_d68ev3c_c2_elabs_scored_top80percent,syndirella_placed

>  <smiles>  (20) 
Cc1ccc(F)c(Br)c1NC(=O)c1cc(Br)ncc1F

>  <subsites>  (20) 
None

>  <rmsd(smina/fragmenstein)>  (20) 
1.018

>  <alias>  (20) 
None

>  <energy_score>  (20) 
-4.353946

>  <HIPPO Pose ID>  (20) 
63887

>  <distance_score>  (20) 
0.833535

>  <HIPPO Compound ID>  (20) 
100063

>  <gnina_score_min>  (20) 
5.101

>  <name>  (20) 
P63887

>  <exports>  (20) 
['/opt/xchem-fragalysis-2/maxwin/BulkDock/OUTPUTS/openbind_d68ev3c_c2_elabs_1LOTQJ3.sdf', '/opt/xchem-fragalysis-2/maxwin/BulkDock/OUTPUTS/openbind_d68ev3c_c2_elabs_1LSYEHW.sdf', '/opt/xchem-fragalysis-2/maxwin/BulkDock/OUTPUTS/openbind_d68ev3c_c2_elabs_1LSYI5W.sdf']

$$$$
P63893
     RDKit          3D

 20 21  0  0  0  0  0  0  0  0999 V2000
    2.9564   -3.2573   34.2605 C   0  0  0  0  0  0  0  0  0  0  0  0
    2.2548   -3.3069   35.5859 C   0  0  0  0  0  0  0  0  0  0  0  0
    2.7495   -2.5220   36.6436 C   0  0  0  0  0  0  0  0  0  0  0  0
    2.1866   -2.5965   37.9152 C   0  0  0  0  0  0  0  0  0  0  0  0
    1.1263   -3.4586   38.1384 C   0  0  0  0  0  0  0  0  0  0  0  0
    0.5661   -3.4837   39.3600 F   0  0  0  0  0  0  0  0  0  0  0  0
    0.6257   -4.2536   37.1073 C   0  0  0  0  0  0  0  0  0  0  0  0
   -0.9094   -5.2680   37.4969 Br  0  0  0  0  0  0  0  0  0  0  0  0
    1.1838   -4.1855   35.8195 C   0  0  0  0  0  0  0  0  0  0  0  0
    0.6951   -4.9607   34.7602 N   0  0  0  0  0  0  0  0  0  0  0  0
    0.4257   -6.4794   34.6690 C   0  0  0  0  0  0  0  0  0  0  0  0
    0.6411   -7.3336   35.4356 O   0  0  0  0  0  0  0  0  0  0  0  0
   -0.3195   -6.8815   33.4324 C   0  0  0  0  0  0  0  0  0  0  0  0
   -1.4011   -7.7691   33.5859 C   0  0  0  0  0  0  0  0  0  0  0  0
   -2.1461   -8.1543   35.0892 Cl  0  0  0  0  0  0  0  0  0  0  0  0
   -1.9937   -8.3145   32.4558 C   0  0  0  0  0  0  0  0  0  0  0  0
   -1.6283   -8.0182   31.1916 N   0  0  0  0  0  0  0  0  0  0  0  0
   -0.6093   -7.1354   31.0656 C   0  0  0  0  0  0  0  0  0  0  0  0
    0.0595   -6.5334   32.1315 C   0  0  0  0  0  0  0  0  0  0  0  0
    1.4160   -5.2972   31.6705 Br  0  0  0  0  0  0  0  0  0  0  0  0
  1  2  1  0
  2  3  2  0
  3  4  1  0
  4  5  2  0
  5  6  1  0
  5  7  1  0
  7  8  1  0
  7  9  2  0
  9 10  1  0
 10 11  1  0
 11 12  2  0
 11 13  1  0
 13 14  2  0
 14 15  1  0
 14 16  1  0
 16 17  2  0
 17 18  1  0
 18 19  2  0
 19 20  1  0
  9  2  1  0
 19 13  1  0
M  END
>  <ref_mols>  (21) 
7gov-a

>  <gnina_score>  (21) 
5.243

>  <smina_score_min>  (21) 
-4.894

>  <ref_pdb>  (21) 
7gov-a

>  <inspiration_score>  (21) 
None

>  <inchikey>  (21) 
XSPCSFPTNCMSQD-UHFFFAOYSA-N

>  <tags>  (21) 
BulkDock Fragalysis export,openbind_d68ev3c_c2_elabs_scored,openbind_d68ev3c_c2_elabs_scored_4.5plus,openbind_d68ev3c_c2_elabs,openbind_d68ev3c_c2_elabs_scored_5plus,syndirella_product,openbind_d68ev3c_c2_elabs_scored_top80percent,syndirella_placed

>  <smiles>  (21) 
Cc1ccc(F)c(Br)c1NC(=O)c1c(Cl)cncc1Br

>  <subsites>  (21) 
None

>  <rmsd(smina/fragmenstein)>  (21) 
0.4

>  <alias>  (21) 
None

>  <energy_score>  (21) 
-16.093495

>  <HIPPO Pose ID>  (21) 
63893

>  <distance_score>  (21) 
0.553481

>  <HIPPO Compound ID>  (21) 
100076

>  <gnina_score_min>  (21) 
5.112

>  <name>  (21) 
P63893

>  <exports>  (21) 
['/opt/xchem-fragalysis-2/maxwin/BulkDock/OUTPUTS/openbind_d68ev3c_c2_elabs_1LOTQJ3.sdf', '/opt/xchem-fragalysis-2/maxwin/BulkDock/OUTPUTS/openbind_d68ev3c_c2_elabs_1LSYEHW.sdf', '/opt/xchem-fragalysis-2/maxwin/BulkDock/OUTPUTS/openbind_d68ev3c_c2_elabs_1LSYI5W.sdf']

$$$$
P63894
     RDKit          3D

 20 21  0  0  0  0  0  0  0  0999 V2000
    3.2382   -3.0319   33.4886 N   0  0  0  0  0  0  0  0  0  0  0  0
    2.6929   -3.2209   34.4965 C   0  0  0  0  0  0  0  0  0  0  0  0
    2.0082   -3.3866   35.7452 C   0  0  0  0  0  0  0  0  0  0  0  0
    2.3948   -2.5867   36.8326 C   0  0  0  0  0  0  0  0  0  0  0  0
    1.7936   -2.7529   38.0810 C   0  0  0  0  0  0  0  0  0  0  0  0
    0.8192   -3.7276   38.2441 C   0  0  0  0  0  0  0  0  0  0  0  0
    0.2291   -3.8753   39.4377 F   0  0  0  0  0  0  0  0  0  0  0  0
    0.4384   -4.5419   37.1840 C   0  0  0  0  0  0  0  0  0  0  0  0
    1.0215   -4.3658   35.9234 C   0  0  0  0  0  0  0  0  0  0  0  0
    0.5945   -5.1755   34.8707 N   0  0  0  0  0  0  0  0  0  0  0  0
   -0.0022   -6.5937   34.8790 C   0  0  0  0  0  0  0  0  0  0  0  0
   -0.1606   -7.3407   35.7586 O   0  0  0  0  0  0  0  0  0  0  0  0
   -0.5568   -7.0362   33.5422 C   0  0  0  0  0  0  0  0  0  0  0  0
   -0.0541   -6.6305   32.2944 C   0  0  0  0  0  0  0  0  0  0  0  0
    1.1633   -5.4397   32.0297 Cl  0  0  0  0  0  0  0  0  0  0  0  0
   -0.5847   -7.2047   31.1395 C   0  0  0  0  0  0  0  0  0  0  0  0
   -1.5762   -8.1220   31.1206 N   0  0  0  0  0  0  0  0  0  0  0  0
   -2.0578   -8.4879   32.3215 C   0  0  0  0  0  0  0  0  0  0  0  0
   -1.6155   -7.9734   33.5307 C   0  0  0  0  0  0  0  0  0  0  0  0
   -2.6604   -8.5370   35.0106 Br  0  0  0  0  0  0  0  0  0  0  0  0
  1  2  3  0
  2  3  1  0
  3  4  2  0
  4  5  1  0
  5  6  2  0
  6  7  1  0
  6  8  1  0
  8  9  2  0
  9 10  1  0
 10 11  1  0
 11 12  2  0
 11 13  1  0
 13 14  2  0
 14 15  1  0
 14 16  1  0
 16 17  2  0
 17 18  1  0
 18 19  2  0
 19 20  1  0
  9  3  1  0
 19 13  1  0
M  END
>  <ref_mols>  (22) 
7gov-a

>  <gnina_score>  (22) 
5.218

>  <smina_score_min>  (22) 
-5.354

>  <ref_pdb>  (22) 
7gov-a

>  <inspiration_score>  (22) 
None

>  <inchikey>  (22) 
LFIBBUGYPQKSHU-UHFFFAOYSA-N

>  <tags>  (22) 
BulkDock Fragalysis export,openbind_d68ev3c_c2_elabs_scored,openbind_d68ev3c_c2_elabs_scored_4.5plus,openbind_d68ev3c_c2_elabs,openbind_d68ev3c_c2_elabs_scored_5plus,syndirella_product,openbind_d68ev3c_c2_elabs_scored_top80percent,syndirella_placed

>  <smiles>  (22) 
N#Cc1ccc(F)cc1NC(=O)c1c(Cl)cncc1Br

>  <subsites>  (22) 
None

>  <rmsd(smina/fragmenstein)>  (22) 
1.219

>  <alias>  (22) 
None

>  <energy_score>  (22) 
-21.93253

>  <HIPPO Pose ID>  (22) 
63894

>  <distance_score>  (22) 
0.52102

>  <HIPPO Compound ID>  (22) 
100077

>  <gnina_score_min>  (22) 
5.113

>  <name>  (22) 
P63894

>  <exports>  (22) 
['/opt/xchem-fragalysis-2/maxwin/BulkDock/OUTPUTS/openbind_d68ev3c_c2_elabs_1LOTQJ3.sdf', '/opt/xchem-fragalysis-2/maxwin/BulkDock/OUTPUTS/openbind_d68ev3c_c2_elabs_1LSYEHW.sdf', '/opt/xchem-fragalysis-2/maxwin/BulkDock/OUTPUTS/openbind_d68ev3c_c2_elabs_1LSYI5W.sdf']

$$$$
P63895
     RDKit          3D

 20 21  0  0  0  0  0  0  0  0999 V2000
    2.6517   -3.1249   34.4490 C   0  0  0  0  0  0  0  0  0  0  0  0
    1.9398   -3.3218   35.7522 C   0  0  0  0  0  0  0  0  0  0  0  0
    2.3151   -2.5650   36.8707 C   0  0  0  0  0  0  0  0  0  0  0  0
    3.2444   -1.6047   36.7464 F   0  0  0  0  0  0  0  0  0  0  0  0
    1.7442   -2.7682   38.1207 C   0  0  0  0  0  0  0  0  0  0  0  0
    0.7928   -3.7625   38.2658 C   0  0  0  0  0  0  0  0  0  0  0  0
    0.2179   -3.9548   39.4608 F   0  0  0  0  0  0  0  0  0  0  0  0
    0.4133   -4.5506   37.1863 C   0  0  0  0  0  0  0  0  0  0  0  0
    0.9729   -4.3193   35.9253 C   0  0  0  0  0  0  0  0  0  0  0  0
    0.5437   -5.0996   34.8574 N   0  0  0  0  0  0  0  0  0  0  0  0
    0.1311   -6.5803   34.8041 C   0  0  0  0  0  0  0  0  0  0  0  0
    0.1584   -7.4021   35.6299 O   0  0  0  0  0  0  0  0  0  0  0  0
   -0.4959   -6.9916   33.5033 C   0  0  0  0  0  0  0  0  0  0  0  0
   -1.5730   -7.9008   33.5706 C   0  0  0  0  0  0  0  0  0  0  0  0
   -2.4397   -8.3230   35.0039 Cl  0  0  0  0  0  0  0  0  0  0  0  0
   -2.0779   -8.4365   32.3970 C   0  0  0  0  0  0  0  0  0  0  0  0
   -1.6361   -8.1122   31.1663 N   0  0  0  0  0  0  0  0  0  0  0  0
   -0.6295   -7.2105   31.1167 C   0  0  0  0  0  0  0  0  0  0  0  0
   -0.0409   -6.6153   32.2315 C   0  0  0  0  0  0  0  0  0  0  0  0
    1.3098   -5.3430   31.8512 Br  0  0  0  0  0  0  0  0  0  0  0  0
  1  2  1  0
  2  3  2  0
  3  4  1  0
  3  5  1  0
  5  6  2  0
  6  7  1  0
  6  8  1  0
  8  9  2  0
  9 10  1  0
 10 11  1  0
 11 12  2  0
 11 13  1  0
 13 14  2  0
 14 15  1  0
 14 16  1  0
 16 17  2  0
 17 18  1  0
 18 19  2  0
 19 20  1  0
  9  2  1  0
 19 13  1  0
M  END
>  <ref_mols>  (23) 
7gov-a

>  <gnina_score>  (23) 
5.194

>  <smina_score_min>  (23) 
-5.832

>  <ref_pdb>  (23) 
7gov-a

>  <inspiration_score>  (23) 
None

>  <inchikey>  (23) 
NOLTYJVSBZAARA-UHFFFAOYSA-N

>  <tags>  (23) 
BulkDock Fragalysis export,openbind_d68ev3c_c2_elabs_scored,openbind_d68ev3c_c2_elabs_scored_4.5plus,openbind_d68ev3c_c2_elabs,openbind_d68ev3c_c2_elabs_scored_5plus,syndirella_product,openbind_d68ev3c_c2_elabs_scored_top80percent,syndirella_placed

>  <smiles>  (23) 
Cc1c(F)cc(F)cc1NC(=O)c1c(Cl)cncc1Br

>  <subsites>  (23) 
None

>  <rmsd(smina/fragmenstein)>  (23) 
1.204

>  <alias>  (23) 
None

>  <energy_score>  (23) 
-22.952018

>  <HIPPO Pose ID>  (23) 
63895

>  <distance_score>  (23) 
0.487946

>  <HIPPO Compound ID>  (23) 
100078

>  <gnina_score_min>  (23) 
5.117

>  <name>  (23) 
P63895

>  <exports>  (23) 
['/opt/xchem-fragalysis-2/maxwin/BulkDock/OUTPUTS/openbind_d68ev3c_c2_elabs_1LOTQJ3.sdf', '/opt/xchem-fragalysis-2/maxwin/BulkDock/OUTPUTS/openbind_d68ev3c_c2_elabs_1LSYEHW.sdf', '/opt/xchem-fragalysis-2/maxwin/BulkDock/OUTPUTS/openbind_d68ev3c_c2_elabs_1LSYI5W.sdf']

$$$$
P63896
     RDKit          3D

 20 21  0  0  0  0  0  0  0  0999 V2000
    2.6484   -3.1798   34.4138 C   0  0  0  0  0  0  0  0  0  0  0  0
    1.9380   -3.3455   35.7260 C   0  0  0  0  0  0  0  0  0  0  0  0
    2.3206   -2.5507   36.8199 C   0  0  0  0  0  0  0  0  0  0  0  0
    1.7390   -2.7527   38.0649 C   0  0  0  0  0  0  0  0  0  0  0  0
    2.1183   -1.9542   39.1075 O   0  0  0  0  0  0  0  0  0  0  0  0
    0.7873   -3.7491   38.2410 C   0  0  0  0  0  0  0  0  0  0  0  0
    0.2229   -3.9141   39.4472 F   0  0  0  0  0  0  0  0  0  0  0  0
    0.4063   -4.5570   37.1800 C   0  0  0  0  0  0  0  0  0  0  0  0
    0.9693   -4.3446   35.9178 C   0  0  0  0  0  0  0  0  0  0  0  0
    0.5497   -5.1363   34.8554 N   0  0  0  0  0  0  0  0  0  0  0  0
    0.0705   -6.5977   34.8264 C   0  0  0  0  0  0  0  0  0  0  0  0
    0.0240   -7.3942   35.6757 O   0  0  0  0  0  0  0  0  0  0  0  0
   -0.5126   -7.0190   33.5036 C   0  0  0  0  0  0  0  0  0  0  0  0
   -0.0211   -6.6118   32.2543 C   0  0  0  0  0  0  0  0  0  0  0  0
    1.2158   -5.4389   31.9910 Cl  0  0  0  0  0  0  0  0  0  0  0  0
   -0.5757   -7.1760   31.1068 C   0  0  0  0  0  0  0  0  0  0  0  0
   -1.5783   -8.0831   31.1009 N   0  0  0  0  0  0  0  0  0  0  0  0
   -2.0470   -8.4481   32.3082 C   0  0  0  0  0  0  0  0  0  0  0  0
   -1.5797   -7.9427   33.5103 C   0  0  0  0  0  0  0  0  0  0  0  0
   -2.5908   -8.4906   35.0158 Br  0  0  0  0  0  0  0  0  0  0  0  0
  1  2  1  0
  2  3  2  0
  3  4  1  0
  4  5  1  0
  4  6  2  0
  6  7  1  0
  6  8  1  0
  8  9  2  0
  9 10  1  0
 10 11  1  0
 11 12  2  0
 11 13  1  0
 13 14  2  0
 14 15  1  0
 14 16  1  0
 16 17  2  0
 17 18  1  0
 18 19  2  0
 19 20  1  0
  9  2  1  0
 19 13  1  0
M  END
>  <ref_mols>  (24) 
7gov-a

>  <gnina_score>  (24) 
5.077

>  <smina_score_min>  (24) 
-5.57

>  <ref_pdb>  (24) 
7gov-a

>  <inspiration_score>  (24) 
None

>  <inchikey>  (24) 
WVGYZEKTMATQIV-UHFFFAOYSA-N

>  <tags>  (24) 
BulkDock Fragalysis export,openbind_d68ev3c_c2_elabs_scored,openbind_d68ev3c_c2_elabs_scored_4.5plus,openbind_d68ev3c_c2_elabs,openbind_d68ev3c_c2_elabs_scored_5plus,syndirella_product,openbind_d68ev3c_c2_elabs_scored_top80percent,syndirella_placed

>  <smiles>  (24) 
Cc1cc(O)c(F)cc1NC(=O)c1c(Cl)cncc1Br

>  <subsites>  (24) 
None

>  <rmsd(smina/fragmenstein)>  (24) 
1.231

>  <alias>  (24) 
None

>  <energy_score>  (24) 
-39.033767

>  <HIPPO Pose ID>  (24) 
63896

>  <distance_score>  (24) 
0.508649

>  <HIPPO Compound ID>  (24) 
100079

>  <gnina_score_min>  (24) 
5.059

>  <name>  (24) 
P63896

>  <exports>  (24) 
['/opt/xchem-fragalysis-2/maxwin/BulkDock/OUTPUTS/openbind_d68ev3c_c2_elabs_1LOTQJ3.sdf', '/opt/xchem-fragalysis-2/maxwin/BulkDock/OUTPUTS/openbind_d68ev3c_c2_elabs_1LSYEHW.sdf', '/opt/xchem-fragalysis-2/maxwin/BulkDock/OUTPUTS/openbind_d68ev3c_c2_elabs_1LSYI5W.sdf']

$$$$
P63898
     RDKit          3D

 20 21  0  0  0  0  0  0  0  0999 V2000
    2.6895   -3.2645   34.4167 C   0  0  0  0  0  0  0  0  0  0  0  0
    1.9911   -3.3737   35.7450 C   0  0  0  0  0  0  0  0  0  0  0  0
    2.3427   -2.5861   36.8592 C   0  0  0  0  0  0  0  0  0  0  0  0
    3.6451   -1.2006   36.7775 Br  0  0  0  0  0  0  0  0  0  0  0  0
    1.7297   -2.7797   38.1006 C   0  0  0  0  0  0  0  0  0  0  0  0
    0.7703   -3.7679   38.2432 C   0  0  0  0  0  0  0  0  0  0  0  0
    0.1731   -3.9388   39.4305 F   0  0  0  0  0  0  0  0  0  0  0  0
    0.4057   -4.5649   37.1703 C   0  0  0  0  0  0  0  0  0  0  0  0
    0.9974   -4.3564   35.9213 C   0  0  0  0  0  0  0  0  0  0  0  0
    0.5708   -5.1419   34.8539 N   0  0  0  0  0  0  0  0  0  0  0  0
    0.0876   -6.6022   34.8179 C   0  0  0  0  0  0  0  0  0  0  0  0
    0.0424   -7.4037   35.6626 O   0  0  0  0  0  0  0  0  0  0  0  0
   -0.5049   -7.0162   33.4969 C   0  0  0  0  0  0  0  0  0  0  0  0
   -0.0194   -6.6078   32.2459 C   0  0  0  0  0  0  0  0  0  0  0  0
    1.2136   -5.4329   31.9775 Cl  0  0  0  0  0  0  0  0  0  0  0  0
   -0.5785   -7.1717   31.1003 C   0  0  0  0  0  0  0  0  0  0  0  0
   -1.5811   -8.0785   31.0980 N   0  0  0  0  0  0  0  0  0  0  0  0
   -2.0462   -8.4430   32.3068 C   0  0  0  0  0  0  0  0  0  0  0  0
   -1.5738   -7.9382   33.5070 C   0  0  0  0  0  0  0  0  0  0  0  0
   -2.5809   -8.4840   35.0160 Br  0  0  0  0  0  0  0  0  0  0  0  0
  1  2  1  0
  2  3  2  0
  3  4  1  0
  3  5  1  0
  5  6  2  0
  6  7  1  0
  6  8  1  0
  8  9  2  0
  9 10  1  0
 10 11  1  0
 11 12  2  0
 11 13  1  0
 13 14  2  0
 14 15  1  0
 14 16  1  0
 16 17  2  0
 17 18  1  0
 18 19  2  0
 19 20  1  0
  9  2  1  0
 19 13  1  0
M  END
>  <ref_mols>  (25) 
7gov-a

>  <gnina_score>  (25) 
5.293

>  <smina_score_min>  (25) 
-5.582

>  <ref_pdb>  (25) 
7gov-a

>  <inspiration_score>  (25) 
None

>  <inchikey>  (25) 
OTKJOHYSZGPTPE-UHFFFAOYSA-N

>  <tags>  (25) 
BulkDock Fragalysis export,openbind_d68ev3c_c2_elabs_scored,openbind_d68ev3c_c2_elabs_scored_4.5plus,openbind_d68ev3c_c2_elabs,openbind_d68ev3c_c2_elabs_scored_5plus,syndirella_product,openbind_d68ev3c_c2_elabs_scored_top80percent,syndirella_placed

>  <smiles>  (25) 
Cc1c(Br)cc(F)cc1NC(=O)c1c(Cl)cncc1Br

>  <subsites>  (25) 
None

>  <rmsd(smina/fragmenstein)>  (25) 
1.213

>  <alias>  (25) 
None

>  <energy_score>  (25) 
-26.977091

>  <HIPPO Pose ID>  (25) 
63898

>  <distance_score>  (25) 
0.491715

>  <HIPPO Compound ID>  (25) 
100081

>  <gnina_score_min>  (25) 
5.229

>  <name>  (25) 
P63898

>  <exports>  (25) 
['/opt/xchem-fragalysis-2/maxwin/BulkDock/OUTPUTS/openbind_d68ev3c_c2_elabs_1LOTQJ3.sdf', '/opt/xchem-fragalysis-2/maxwin/BulkDock/OUTPUTS/openbind_d68ev3c_c2_elabs_1LSYEHW.sdf', '/opt/xchem-fragalysis-2/maxwin/BulkDock/OUTPUTS/openbind_d68ev3c_c2_elabs_1LSYI5W.sdf']

$$$$
P63899
     RDKit          3D

 20 21  0  0  0  0  0  0  0  0999 V2000
    2.5996   -3.2629   34.4254 C   0  0  0  0  0  0  0  0  0  0  0  0
    1.9180   -3.4054   35.7546 C   0  0  0  0  0  0  0  0  0  0  0  0
    2.3898   -2.6562   36.8476 C   0  0  0  0  0  0  0  0  0  0  0  0
    1.8404   -2.8294   38.1193 C   0  0  0  0  0  0  0  0  0  0  0  0
    2.4956   -1.8014   39.5653 Br  0  0  0  0  0  0  0  0  0  0  0  0
    0.8243   -3.7564   38.3125 C   0  0  0  0  0  0  0  0  0  0  0  0
    0.2599   -3.9181   39.5190 F   0  0  0  0  0  0  0  0  0  0  0  0
    0.3630   -4.5239   37.2504 C   0  0  0  0  0  0  0  0  0  0  0  0
    0.8966   -4.3412   35.9704 C   0  0  0  0  0  0  0  0  0  0  0  0
    0.3742   -5.1072   34.9339 N   0  0  0  0  0  0  0  0  0  0  0  0
   -0.0875   -6.5755   34.9101 C   0  0  0  0  0  0  0  0  0  0  0  0
   -0.1751   -7.3535   35.7732 O   0  0  0  0  0  0  0  0  0  0  0  0
   -0.5981   -7.0367   33.5677 C   0  0  0  0  0  0  0  0  0  0  0  0
   -0.0765   -6.6284   32.3306 C   0  0  0  0  0  0  0  0  0  0  0  0
    1.1419   -5.4337   32.0937 Cl  0  0  0  0  0  0  0  0  0  0  0  0
   -0.5831   -7.2086   31.1681 C   0  0  0  0  0  0  0  0  0  0  0  0
   -1.5659   -8.1355   31.1342 N   0  0  0  0  0  0  0  0  0  0  0  0
   -2.0608   -8.5079   32.3284 C   0  0  0  0  0  0  0  0  0  0  0  0
   -1.6425   -7.9877   33.5431 C   0  0  0  0  0  0  0  0  0  0  0  0
   -2.6958   -8.5571   35.0142 Br  0  0  0  0  0  0  0  0  0  0  0  0
  1  2  1  0
  2  3  2  0
  3  4  1  0
  4  5  1  0
  4  6  2  0
  6  7  1  0
  6  8  1  0
  8  9  2  0
  9 10  1  0
 10 11  1  0
 11 12  2  0
 11 13  1  0
 13 14  2  0
 14 15  1  0
 14 16  1  0
 16 17  2  0
 17 18  1  0
 18 19  2  0
 19 20  1  0
  9  2  1  0
 19 13  1  0
M  END
>  <ref_mols>  (26) 
7gov-a

>  <gnina_score>  (26) 
5.273

>  <smina_score_min>  (26) 
-5.675

>  <ref_pdb>  (26) 
7gov-a

>  <inspiration_score>  (26) 
None

>  <inchikey>  (26) 
XYKPOHBJMQYLFJ-UHFFFAOYSA-N

>  <tags>  (26) 
BulkDock Fragalysis export,openbind_d68ev3c_c2_elabs_scored,openbind_d68ev3c_c2_elabs_scored_4.5plus,openbind_d68ev3c_c2_elabs,openbind_d68ev3c_c2_elabs_scored_5plus,syndirella_product,openbind_d68ev3c_c2_elabs_scored_top80percent,syndirella_placed

>  <smiles>  (26) 
Cc1cc(Br)c(F)cc1NC(=O)c1c(Cl)cncc1Br

>  <subsites>  (26) 
None

>  <rmsd(smina/fragmenstein)>  (26) 
1.222

>  <alias>  (26) 
None

>  <energy_score>  (26) 
-25.363702

>  <HIPPO Pose ID>  (26) 
63899

>  <distance_score>  (26) 
0.50527

>  <HIPPO Compound ID>  (26) 
100082

>  <gnina_score_min>  (26) 
5.223

>  <name>  (26) 
P63899

>  <exports>  (26) 
['/opt/xchem-fragalysis-2/maxwin/BulkDock/OUTPUTS/openbind_d68ev3c_c2_elabs_1LOTQJ3.sdf', '/opt/xchem-fragalysis-2/maxwin/BulkDock/OUTPUTS/openbind_d68ev3c_c2_elabs_1LSYEHW.sdf', '/opt/xchem-fragalysis-2/maxwin/BulkDock/OUTPUTS/openbind_d68ev3c_c2_elabs_1LSYI5W.sdf']

$$$$
P63900
     RDKit          3D

 20 21  0  0  0  0  0  0  0  0999 V2000
    3.8153   -4.1219   34.3293 C   0  0  0  0  0  0  0  0  0  0  0  0
    2.6908   -3.1081   34.4855 C   0  0  0  0  0  0  0  0  0  0  0  0
    1.9199   -3.3078   35.7659 C   0  0  0  0  0  0  0  0  0  0  0  0
    2.2891   -2.5474   36.8914 C   0  0  0  0  0  0  0  0  0  0  0  0
    1.6946   -2.7701   38.1325 C   0  0  0  0  0  0  0  0  0  0  0  0
    0.7445   -3.7709   38.2616 C   0  0  0  0  0  0  0  0  0  0  0  0
    0.1622   -3.9750   39.4513 F   0  0  0  0  0  0  0  0  0  0  0  0
    0.3807   -4.5531   37.1739 C   0  0  0  0  0  0  0  0  0  0  0  0
    0.9524   -4.3119   35.9203 C   0  0  0  0  0  0  0  0  0  0  0  0
    0.5262   -5.0892   34.8483 N   0  0  0  0  0  0  0  0  0  0  0  0
    0.1443   -6.5783   34.7828 C   0  0  0  0  0  0  0  0  0  0  0  0
    0.1994   -7.4090   35.5988 O   0  0  0  0  0  0  0  0  0  0  0  0
   -0.4904   -6.9919   33.4883 C   0  0  0  0  0  0  0  0  0  0  0  0
   -1.5681   -7.8992   33.5689 C   0  0  0  0  0  0  0  0  0  0  0  0
   -2.4239   -8.3098   35.0118 Cl  0  0  0  0  0  0  0  0  0  0  0  0
   -2.0817   -8.4420   32.4026 C   0  0  0  0  0  0  0  0  0  0  0  0
   -1.6475   -8.1261   31.1672 N   0  0  0  0  0  0  0  0  0  0  0  0
   -0.6412   -7.2253   31.1053 C   0  0  0  0  0  0  0  0  0  0  0  0
   -0.0449   -6.6234   32.2120 C   0  0  0  0  0  0  0  0  0  0  0  0
    1.3006   -5.3558   31.8125 Br  0  0  0  0  0  0  0  0  0  0  0  0
  1  2  1  0
  2  3  1  0
  3  4  2  0
  4  5  1  0
  5  6  2  0
  6  7  1  0
  6  8  1  0
  8  9  2  0
  9 10  1  0
 10 11  1  0
 11 12  2  0
 11 13  1  0
 13 14  2  0
 14 15  1  0
 14 16  1  0
 16 17  2  0
 17 18  1  0
 18 19  2  0
 19 20  1  0
  9  3  1  0
 19 13  1  0
M  END
>  <ref_mols>  (27) 
7gov-a

>  <gnina_score>  (27) 
5.143

>  <smina_score_min>  (27) 
-5.536

>  <ref_pdb>  (27) 
7gov-a

>  <inspiration_score>  (27) 
None

>  <inchikey>  (27) 
GRUZCWNUZFTBBF-UHFFFAOYSA-N

>  <tags>  (27) 
BulkDock Fragalysis export,openbind_d68ev3c_c2_elabs_scored,openbind_d68ev3c_c2_elabs_scored_4.5plus,openbind_d68ev3c_c2_elabs,openbind_d68ev3c_c2_elabs_scored_5plus,syndirella_product,openbind_d68ev3c_c2_elabs_scored_top80percent,syndirella_placed

>  <smiles>  (27) 
CCc1ccc(F)cc1NC(=O)c1c(Cl)cncc1Br

>  <subsites>  (27) 
None

>  <rmsd(smina/fragmenstein)>  (27) 
1.281

>  <alias>  (27) 
None

>  <energy_score>  (27) 
-10.272317

>  <HIPPO Pose ID>  (27) 
63900

>  <distance_score>  (27) 
0.48336

>  <HIPPO Compound ID>  (27) 
100083

>  <gnina_score_min>  (27) 
5.097

>  <name>  (27) 
P63900

>  <exports>  (27) 
['/opt/xchem-fragalysis-2/maxwin/BulkDock/OUTPUTS/openbind_d68ev3c_c2_elabs_1LOTQJ3.sdf', '/opt/xchem-fragalysis-2/maxwin/BulkDock/OUTPUTS/openbind_d68ev3c_c2_elabs_1LSYEHW.sdf', '/opt/xchem-fragalysis-2/maxwin/BulkDock/OUTPUTS/openbind_d68ev3c_c2_elabs_1LSYI5W.sdf']

$$$$
P63901
     RDKit          3D

 20 21  0  0  0  0  0  0  0  0999 V2000
    3.0933   -2.9739   33.4261 C   0  0  0  0  0  0  0  0  0  0  0  0
    2.5353   -3.1703   34.4712 C   0  0  0  0  0  0  0  0  0  0  0  0
    1.9033   -3.3595   35.7436 C   0  0  0  0  0  0  0  0  0  0  0  0
    2.3574   -2.5893   36.8243 C   0  0  0  0  0  0  0  0  0  0  0  0
    1.8145   -2.7663   38.0976 C   0  0  0  0  0  0  0  0  0  0  0  0
    0.8317   -3.7262   38.2916 C   0  0  0  0  0  0  0  0  0  0  0  0
    0.2904   -3.8795   39.5077 F   0  0  0  0  0  0  0  0  0  0  0  0
    0.3885   -4.5170   37.2393 C   0  0  0  0  0  0  0  0  0  0  0  0
    0.9123   -4.3274   35.9553 C   0  0  0  0  0  0  0  0  0  0  0  0
    0.3906   -5.1011   34.9199 N   0  0  0  0  0  0  0  0  0  0  0  0
   -0.0962   -6.5614   34.9103 C   0  0  0  0  0  0  0  0  0  0  0  0
   -0.2099   -7.3253   35.7831 O   0  0  0  0  0  0  0  0  0  0  0  0
   -0.5969   -7.0374   33.5673 C   0  0  0  0  0  0  0  0  0  0  0  0
   -0.0764   -6.6348   32.3280 C   0  0  0  0  0  0  0  0  0  0  0  0
    1.1393   -5.4414   32.0824 Cl  0  0  0  0  0  0  0  0  0  0  0  0
   -0.5822   -7.2200   31.1672 C   0  0  0  0  0  0  0  0  0  0  0  0
   -1.5635   -8.1480   31.1355 N   0  0  0  0  0  0  0  0  0  0  0  0
   -2.0577   -8.5162   32.3307 C   0  0  0  0  0  0  0  0  0  0  0  0
   -1.6408   -7.9906   33.5441 C   0  0  0  0  0  0  0  0  0  0  0  0
   -2.6991   -8.5592   35.0130 Br  0  0  0  0  0  0  0  0  0  0  0  0
  1  2  3  0
  2  3  1  0
  3  4  2  0
  4  5  1  0
  5  6  2  0
  6  7  1  0
  6  8  1  0
  8  9  2  0
  9 10  1  0
 10 11  1  0
 11 12  2  0
 11 13  1  0
 13 14  2  0
 14 15  1  0
 14 16  1  0
 16 17  2  0
 17 18  1  0
 18 19  2  0
 19 20  1  0
  9  3  1  0
 19 13  1  0
M  END
>  <ref_mols>  (28) 
7gov-a

>  <gnina_score>  (28) 
5.277

>  <smina_score_min>  (28) 
-5.4

>  <ref_pdb>  (28) 
7gov-a

>  <inspiration_score>  (28) 
None

>  <inchikey>  (28) 
REAUOXVWHZENAB-UHFFFAOYSA-N

>  <tags>  (28) 
BulkDock Fragalysis export,openbind_d68ev3c_c2_elabs_scored,openbind_d68ev3c_c2_elabs_scored_4.5plus,openbind_d68ev3c_c2_elabs,openbind_d68ev3c_c2_elabs_scored_5plus,syndirella_product,openbind_d68ev3c_c2_elabs_scored_top80percent,syndirella_placed

>  <smiles>  (28) 
C#Cc1ccc(F)cc1NC(=O)c1c(Cl)cncc1Br

>  <subsites>  (28) 
None

>  <rmsd(smina/fragmenstein)>  (28) 
1.194

>  <alias>  (28) 
None

>  <energy_score>  (28) 
-25.777233

>  <HIPPO Pose ID>  (28) 
63901

>  <distance_score>  (28) 
0.532252

>  <HIPPO Compound ID>  (28) 
100085

>  <gnina_score_min>  (28) 
5.156

>  <name>  (28) 
P63901

>  <exports>  (28) 
['/opt/xchem-fragalysis-2/maxwin/BulkDock/OUTPUTS/openbind_d68ev3c_c2_elabs_1LOTQJ3.sdf', '/opt/xchem-fragalysis-2/maxwin/BulkDock/OUTPUTS/openbind_d68ev3c_c2_elabs_1LSYEHW.sdf', '/opt/xchem-fragalysis-2/maxwin/BulkDock/OUTPUTS/openbind_d68ev3c_c2_elabs_1LSYI5W.sdf']

$$$$
P63903
     RDKit          3D

 20 21  0  0  0  0  0  0  0  0999 V2000
    3.3580   -1.4692   36.7414 C   0  0  0  0  0  0  0  0  0  0  0  0
    2.3061   -2.5394   36.8424 C   0  0  0  0  0  0  0  0  0  0  0  0
    1.6973   -2.7590   38.0884 C   0  0  0  0  0  0  0  0  0  0  0  0
    0.7497   -3.7608   38.2405 C   0  0  0  0  0  0  0  0  0  0  0  0
    0.1694   -3.9407   39.4352 F   0  0  0  0  0  0  0  0  0  0  0  0
    0.3852   -4.5628   37.1723 C   0  0  0  0  0  0  0  0  0  0  0  0
    0.9627   -4.3447   35.9202 C   0  0  0  0  0  0  0  0  0  0  0  0
    0.5448   -5.1338   34.8528 N   0  0  0  0  0  0  0  0  0  0  0  0
    0.0835   -6.6010   34.8149 C   0  0  0  0  0  0  0  0  0  0  0  0
    0.0529   -7.4050   35.6578 O   0  0  0  0  0  0  0  0  0  0  0  0
   -0.5074   -7.0174   33.4955 C   0  0  0  0  0  0  0  0  0  0  0  0
   -0.0200   -6.6101   32.2451 C   0  0  0  0  0  0  0  0  0  0  0  0
    1.2157   -5.4376   31.9787 Cl  0  0  0  0  0  0  0  0  0  0  0  0
   -0.5787   -7.1744   31.0998 C   0  0  0  0  0  0  0  0  0  0  0  0
   -1.5819   -8.0809   31.0977 N   0  0  0  0  0  0  0  0  0  0  0  0
   -2.0475   -8.4448   32.3067 C   0  0  0  0  0  0  0  0  0  0  0  0
   -1.5754   -7.9394   33.5066 C   0  0  0  0  0  0  0  0  0  0  0  0
   -2.5803   -8.4838   35.0172 Br  0  0  0  0  0  0  0  0  0  0  0  0
    1.9396   -3.3454   35.7386 C   0  0  0  0  0  0  0  0  0  0  0  0
    2.6397   -3.2267   34.4099 C   0  0  0  0  0  0  0  0  0  0  0  0
  1  2  1  0
  2  3  2  0
  3  4  1  0
  4  5  1  0
  4  6  2  0
  6  7  1  0
  7  8  1  0
  8  9  1  0
  9 10  2  0
  9 11  1  0
 11 12  2  0
 12 13  1  0
 12 14  1  0
 14 15  2  0
 15 16  1  0
 16 17  2  0
 17 18  1  0
  7 19  2  0
 19 20  1  0
 19  2  1  0
 17 11  1  0
M  END
>  <ref_mols>  (29) 
7gov-a

>  <gnina_score>  (29) 
5.216

>  <smina_score_min>  (29) 
-5.589

>  <ref_pdb>  (29) 
7gov-a

>  <inspiration_score>  (29) 
None

>  <inchikey>  (29) 
LBRKUOAGDHXBKM-UHFFFAOYSA-N

>  <tags>  (29) 
BulkDock Fragalysis export,openbind_d68ev3c_c2_elabs_scored,openbind_d68ev3c_c2_elabs_scored_4.5plus,openbind_d68ev3c_c2_elabs,openbind_d68ev3c_c2_elabs_scored_5plus,syndirella_product,openbind_d68ev3c_c2_elabs_scored_top80percent,syndirella_placed

>  <smiles>  (29) 
Cc1cc(F)cc(NC(=O)c2c(Cl)cncc2Br)c1C

>  <subsites>  (29) 
None

>  <rmsd(smina/fragmenstein)>  (29) 
1.249

>  <alias>  (29) 
None

>  <energy_score>  (29) 
-12.608879

>  <HIPPO Pose ID>  (29) 
63903

>  <distance_score>  (29) 
0.500093

>  <HIPPO Compound ID>  (29) 
100087

>  <gnina_score_min>  (29) 
5.173

>  <name>  (29) 
P63903

>  <exports>  (29) 
['/opt/xchem-fragalysis-2/maxwin/BulkDock/OUTPUTS/openbind_d68ev3c_c2_elabs_1LOTQJ3.sdf', '/opt/xchem-fragalysis-2/maxwin/BulkDock/OUTPUTS/openbind_d68ev3c_c2_elabs_1LSYEHW.sdf', '/opt/xchem-fragalysis-2/maxwin/BulkDock/OUTPUTS/openbind_d68ev3c_c2_elabs_1LSYI5W.sdf']

$$$$
P63904
     RDKit          3D

 20 21  0  0  0  0  0  0  0  0999 V2000
    2.6686   -3.2132   34.4278 C   0  0  0  0  0  0  0  0  0  0  0  0
    1.9565   -3.3743   35.7395 C   0  0  0  0  0  0  0  0  0  0  0  0
    2.3560   -2.5983   36.8396 C   0  0  0  0  0  0  0  0  0  0  0  0
    1.7720   -2.7947   38.0877 C   0  0  0  0  0  0  0  0  0  0  0  0
    2.1566   -2.0299   39.1199 F   0  0  0  0  0  0  0  0  0  0  0  0
    0.7970   -3.7650   38.2605 C   0  0  0  0  0  0  0  0  0  0  0  0
    0.2166   -3.9323   39.4577 F   0  0  0  0  0  0  0  0  0  0  0  0
    0.4020   -4.5591   37.1910 C   0  0  0  0  0  0  0  0  0  0  0  0
    0.9700   -4.3551   35.9286 C   0  0  0  0  0  0  0  0  0  0  0  0
    0.5437   -5.1430   34.8665 N   0  0  0  0  0  0  0  0  0  0  0  0
    0.0534   -6.6007   34.8373 C   0  0  0  0  0  0  0  0  0  0  0  0
    0.0015   -7.3969   35.6863 O   0  0  0  0  0  0  0  0  0  0  0  0
   -0.5253   -7.0218   33.5121 C   0  0  0  0  0  0  0  0  0  0  0  0
   -0.0304   -6.6139   32.2640 C   0  0  0  0  0  0  0  0  0  0  0  0
    1.2046   -5.4383   32.0037 Cl  0  0  0  0  0  0  0  0  0  0  0  0
   -0.5795   -7.1794   31.1145 C   0  0  0  0  0  0  0  0  0  0  0  0
   -1.5799   -8.0886   31.1053 N   0  0  0  0  0  0  0  0  0  0  0  0
   -2.0520   -8.4548   32.3109 C   0  0  0  0  0  0  0  0  0  0  0  0
   -1.5902   -7.9483   33.5147 C   0  0  0  0  0  0  0  0  0  0  0  0
   -2.6059   -8.4995   35.0162 Br  0  0  0  0  0  0  0  0  0  0  0  0
  1  2  1  0
  2  3  2  0
  3  4  1  0
  4  5  1  0
  4  6  2  0
  6  7  1  0
  6  8  1  0
  8  9  2  0
  9 10  1  0
 10 11  1  0
 11 12  2  0
 11 13  1  0
 13 14  2  0
 14 15  1  0
 14 16  1  0
 16 17  2  0
 17 18  1  0
 18 19  2  0
 19 20  1  0
  9  2  1  0
 19 13  1  0
M  END
>  <ref_mols>  (30) 
7gov-a

>  <gnina_score>  (30) 
5.196

>  <smina_score_min>  (30) 
-5.595

>  <ref_pdb>  (30) 
7gov-a

>  <inspiration_score>  (30) 
None

>  <inchikey>  (30) 
ZREQEAVDNJDOFJ-UHFFFAOYSA-N

>  <tags>  (30) 
BulkDock Fragalysis export,openbind_d68ev3c_c2_elabs_scored,openbind_d68ev3c_c2_elabs_scored_4.5plus,openbind_d68ev3c_c2_elabs,openbind_d68ev3c_c2_elabs_scored_5plus,syndirella_product,openbind_d68ev3c_c2_elabs_scored_top80percent,syndirella_placed

>  <smiles>  (30) 
Cc1cc(F)c(F)cc1NC(=O)c1c(Cl)cncc1Br

>  <subsites>  (30) 
None

>  <rmsd(smina/fragmenstein)>  (30) 
1.238

>  <alias>  (30) 
None

>  <energy_score>  (30) 
-23.612465

>  <HIPPO Pose ID>  (30) 
63904

>  <distance_score>  (30) 
0.498083

>  <HIPPO Compound ID>  (30) 
100088

>  <gnina_score_min>  (30) 
5.147

>  <name>  (30) 
P63904

>  <exports>  (30) 
['/opt/xchem-fragalysis-2/maxwin/BulkDock/OUTPUTS/openbind_d68ev3c_c2_elabs_1LOTQJ3.sdf', '/opt/xchem-fragalysis-2/maxwin/BulkDock/OUTPUTS/openbind_d68ev3c_c2_elabs_1LSYEHW.sdf', '/opt/xchem-fragalysis-2/maxwin/BulkDock/OUTPUTS/openbind_d68ev3c_c2_elabs_1LSYI5W.sdf']

$$$$
P63917
     RDKit          3D

 20 21  0  0  0  0  0  0  0  0999 V2000
    2.8124   -3.4644   34.1021 C   0  0  0  0  0  0  0  0  0  0  0  0
    2.1862   -3.4269   35.4670 C   0  0  0  0  0  0  0  0  0  0  0  0
    2.7611   -2.6230   36.4675 C   0  0  0  0  0  0  0  0  0  0  0  0
    2.2598   -2.6305   37.7688 C   0  0  0  0  0  0  0  0  0  0  0  0
    1.1879   -3.4511   38.0811 C   0  0  0  0  0  0  0  0  0  0  0  0
    0.6884   -3.4145   39.3285 F   0  0  0  0  0  0  0  0  0  0  0  0
    0.6148   -4.2701   37.1101 C   0  0  0  0  0  0  0  0  0  0  0  0
   -0.9139   -5.2402   37.6170 Br  0  0  0  0  0  0  0  0  0  0  0  0
    1.1070   -4.2627   35.7949 C   0  0  0  0  0  0  0  0  0  0  0  0
    0.5290   -5.0394   34.7872 N   0  0  0  0  0  0  0  0  0  0  0  0
    0.2887   -6.5631   34.7084 C   0  0  0  0  0  0  0  0  0  0  0  0
    0.4653   -7.3981   35.5029 O   0  0  0  0  0  0  0  0  0  0  0  0
   -0.3627   -6.9575   33.4234 C   0  0  0  0  0  0  0  0  0  0  0  0
    0.1537   -6.4897   32.2140 C   0  0  0  0  0  0  0  0  0  0  0  0
   -0.4468   -6.9074   31.0403 C   0  0  0  0  0  0  0  0  0  0  0  0
   -0.0165   -6.3860   29.8834 F   0  0  0  0  0  0  0  0  0  0  0  0
   -1.4937   -7.7588   30.9809 N   0  0  0  0  0  0  0  0  0  0  0  0
   -1.9483   -8.2148   32.1649 C   0  0  0  0  0  0  0  0  0  0  0  0
   -1.4497   -7.8331   33.3967 C   0  0  0  0  0  0  0  0  0  0  0  0
   -2.5196   -8.5260   35.0006 I   0  0  0  0  0  0  0  0  0  0  0  0
  1  2  1  0
  2  3  2  0
  3  4  1  0
  4  5  2  0
  5  6  1  0
  5  7  1  0
  7  8  1  0
  7  9  2  0
  9 10  1  0
 10 11  1  0
 11 12  2  0
 11 13  1  0
 13 14  2  0
 14 15  1  0
 15 16  1  0
 15 17  2  0
 17 18  1  0
 18 19  2  0
 19 20  1  0
  9  2  1  0
 19 13  1  0
M  END
>  <ref_mols>  (31) 
7gov-a

>  <gnina_score>  (31) 
5.324

>  <smina_score_min>  (31) 
-4.442

>  <ref_pdb>  (31) 
7gov-a

>  <inspiration_score>  (31) 
None

>  <inchikey>  (31) 
AXYKGZMGIKFIFU-UHFFFAOYSA-N

>  <tags>  (31) 
BulkDock Fragalysis export,openbind_d68ev3c_c2_elabs_scored,openbind_d68ev3c_c2_elabs_scored_4.5plus,openbind_d68ev3c_c2_elabs,openbind_d68ev3c_c2_elabs_scored_5plus,syndirella_product,openbind_d68ev3c_c2_elabs_scored_top80percent,syndirella_placed

>  <smiles>  (31) 
Cc1ccc(F)c(Br)c1NC(=O)c1cc(F)ncc1I

>  <subsites>  (31) 
None

>  <rmsd(smina/fragmenstein)>  (31) 
0.449

>  <alias>  (31) 
None

>  <energy_score>  (31) 
-1.238795

>  <HIPPO Pose ID>  (31) 
63917

>  <distance_score>  (31) 
0.604278

>  <HIPPO Compound ID>  (31) 
100105

>  <gnina_score_min>  (31) 
5.171

>  <name>  (31) 
P63917

>  <exports>  (31) 
['/opt/xchem-fragalysis-2/maxwin/BulkDock/OUTPUTS/openbind_d68ev3c_c2_elabs_1LOTQJ3.sdf', '/opt/xchem-fragalysis-2/maxwin/BulkDock/OUTPUTS/openbind_d68ev3c_c2_elabs_1LSYEHW.sdf', '/opt/xchem-fragalysis-2/maxwin/BulkDock/OUTPUTS/openbind_d68ev3c_c2_elabs_1LSYI5W.sdf']

$$$$
P63918
     RDKit          3D

 20 21  0  0  0  0  0  0  0  0999 V2000
    3.0910   -3.1944   33.3479 N   0  0  0  0  0  0  0  0  0  0  0  0
    2.6226   -3.3026   34.4049 C   0  0  0  0  0  0  0  0  0  0  0  0
    1.9815   -3.4322   35.6803 C   0  0  0  0  0  0  0  0  0  0  0  0
    2.3938   -2.6212   36.7473 C   0  0  0  0  0  0  0  0  0  0  0  0
    1.8126   -2.7717   38.0081 C   0  0  0  0  0  0  0  0  0  0  0  0
    0.8364   -3.7414   38.2015 C   0  0  0  0  0  0  0  0  0  0  0  0
    0.2659   -3.8699   39.4070 F   0  0  0  0  0  0  0  0  0  0  0  0
    0.4336   -4.5689   37.1598 C   0  0  0  0  0  0  0  0  0  0  0  0
    0.9951   -4.4058   35.8897 C   0  0  0  0  0  0  0  0  0  0  0  0
    0.5484   -5.2143   34.8465 N   0  0  0  0  0  0  0  0  0  0  0  0
    0.0314   -6.6649   34.8561 C   0  0  0  0  0  0  0  0  0  0  0  0
   -0.0304   -7.4380   35.7245 O   0  0  0  0  0  0  0  0  0  0  0  0
   -0.5263   -7.0911   33.5289 C   0  0  0  0  0  0  0  0  0  0  0  0
    0.0491   -6.6483   32.3321 C   0  0  0  0  0  0  0  0  0  0  0  0
   -0.5086   -7.0600   31.1355 C   0  0  0  0  0  0  0  0  0  0  0  0
   -0.0387   -6.5370   29.9956 F   0  0  0  0  0  0  0  0  0  0  0  0
   -1.5524   -7.9074   31.0392 N   0  0  0  0  0  0  0  0  0  0  0  0
   -2.0537   -8.3608   32.2044 C   0  0  0  0  0  0  0  0  0  0  0  0
   -1.6144   -7.9694   33.4557 C   0  0  0  0  0  0  0  0  0  0  0  0
   -2.7882   -8.6700   35.0025 I   0  0  0  0  0  0  0  0  0  0  0  0
  1  2  3  0
  2  3  1  0
  3  4  2  0
  4  5  1  0
  5  6  2  0
  6  7  1  0
  6  8  1  0
  8  9  2  0
  9 10  1  0
 10 11  1  0
 11 12  2  0
 11 13  1  0
 13 14  2  0
 14 15  1  0
 15 16  1  0
 15 17  2  0
 17 18  1  0
 18 19  2  0
 19 20  1  0
  9  3  1  0
 19 13  1  0
M  END
>  <ref_mols>  (32) 
7gov-a

>  <gnina_score>  (32) 
5.036

>  <smina_score_min>  (32) 
-5.068

>  <ref_pdb>  (32) 
7gov-a

>  <inspiration_score>  (32) 
None

>  <inchikey>  (32) 
HUUAAJWMNWHKRO-UHFFFAOYSA-N

>  <tags>  (32) 
BulkDock Fragalysis export,openbind_d68ev3c_c2_elabs_scored,openbind_d68ev3c_c2_elabs_scored_4.5plus,openbind_d68ev3c_c2_elabs,openbind_d68ev3c_c2_elabs_scored_5plus,syndirella_product,openbind_d68ev3c_c2_elabs_scored_top80percent,syndirella_placed

>  <smiles>  (32) 
N#Cc1ccc(F)cc1NC(=O)c1cc(F)ncc1I

>  <subsites>  (32) 
None

>  <rmsd(smina/fragmenstein)>  (32) 
1.119

>  <alias>  (32) 
None

>  <energy_score>  (32) 
-4.509564

>  <HIPPO Pose ID>  (32) 
63918

>  <distance_score>  (32) 
0.524625

>  <HIPPO Compound ID>  (32) 
100106

>  <gnina_score_min>  (32) 
5.208

>  <name>  (32) 
P63918

>  <exports>  (32) 
['/opt/xchem-fragalysis-2/maxwin/BulkDock/OUTPUTS/openbind_d68ev3c_c2_elabs_1LOTQJ3.sdf', '/opt/xchem-fragalysis-2/maxwin/BulkDock/OUTPUTS/openbind_d68ev3c_c2_elabs_1LSYEHW.sdf', '/opt/xchem-fragalysis-2/maxwin/BulkDock/OUTPUTS/openbind_d68ev3c_c2_elabs_1LSYI5W.sdf']

$$$$
P63919
     RDKit          3D

 20 21  0  0  0  0  0  0  0  0999 V2000
    2.5645   -3.3476   34.3391 C   0  0  0  0  0  0  0  0  0  0  0  0
    1.9085   -3.4515   35.6835 C   0  0  0  0  0  0  0  0  0  0  0  0
    2.3673   -2.6689   36.7517 C   0  0  0  0  0  0  0  0  0  0  0  0
    3.3354   -1.7624   36.5473 F   0  0  0  0  0  0  0  0  0  0  0  0
    1.8387   -2.7907   38.0319 C   0  0  0  0  0  0  0  0  0  0  0  0
    0.8466   -3.7295   38.2593 C   0  0  0  0  0  0  0  0  0  0  0  0
    0.3113   -3.8432   39.4825 F   0  0  0  0  0  0  0  0  0  0  0  0
    0.3843   -4.5414   37.2319 C   0  0  0  0  0  0  0  0  0  0  0  0
    0.9020   -4.3898   35.9422 C   0  0  0  0  0  0  0  0  0  0  0  0
    0.3754   -5.1748   34.9239 N   0  0  0  0  0  0  0  0  0  0  0  0
   -0.0690   -6.6501   34.9257 C   0  0  0  0  0  0  0  0  0  0  0  0
   -0.1353   -7.4171   35.7994 O   0  0  0  0  0  0  0  0  0  0  0  0
   -0.5807   -7.0988   33.5879 C   0  0  0  0  0  0  0  0  0  0  0  0
    0.0166   -6.6486   32.4054 C   0  0  0  0  0  0  0  0  0  0  0  0
   -0.5071   -7.0672   31.1957 C   0  0  0  0  0  0  0  0  0  0  0  0
   -0.0193   -6.5318   30.0690 F   0  0  0  0  0  0  0  0  0  0  0  0
   -1.5352   -7.9305   31.0736 N   0  0  0  0  0  0  0  0  0  0  0  0
   -2.0547   -8.3940   32.2275 C   0  0  0  0  0  0  0  0  0  0  0  0
   -1.6515   -7.9952   33.4894 C   0  0  0  0  0  0  0  0  0  0  0  0
   -2.8531   -8.7047   35.0119 I   0  0  0  0  0  0  0  0  0  0  0  0
  1  2  1  0
  2  3  2  0
  3  4  1  0
  3  5  1  0
  5  6  2  0
  6  7  1  0
  6  8  1  0
  8  9  2  0
  9 10  1  0
 10 11  1  0
 11 12  2  0
 11 13  1  0
 13 14  2  0
 14 15  1  0
 15 16  1  0
 15 17  2  0
 17 18  1  0
 18 19  2  0
 19 20  1  0
  9  2  1  0
 19 13  1  0
M  END
>  <ref_mols>  (33) 
7gov-a

>  <gnina_score>  (33) 
5.117

>  <smina_score_min>  (33) 
-5.354

>  <ref_pdb>  (33) 
7gov-a

>  <inspiration_score>  (33) 
None

>  <inchikey>  (33) 
PUQIQZDCJGUZOF-UHFFFAOYSA-N

>  <tags>  (33) 
BulkDock Fragalysis export,openbind_d68ev3c_c2_elabs_scored,openbind_d68ev3c_c2_elabs_scored_4.5plus,openbind_d68ev3c_c2_elabs,openbind_d68ev3c_c2_elabs_scored_5plus,syndirella_product,openbind_d68ev3c_c2_elabs_scored_top80percent,syndirella_placed

>  <smiles>  (33) 
Cc1c(F)cc(F)cc1NC(=O)c1cc(F)ncc1I

>  <subsites>  (33) 
None

>  <rmsd(smina/fragmenstein)>  (33) 
1.265

>  <alias>  (33) 
None

>  <energy_score>  (33) 
-12.128576

>  <HIPPO Pose ID>  (33) 
63919

>  <distance_score>  (33) 
0.52444

>  <HIPPO Compound ID>  (33) 
100107

>  <gnina_score_min>  (33) 
5.254

>  <name>  (33) 
P63919

>  <exports>  (33) 
['/opt/xchem-fragalysis-2/maxwin/BulkDock/OUTPUTS/openbind_d68ev3c_c2_elabs_1LOTQJ3.sdf', '/opt/xchem-fragalysis-2/maxwin/BulkDock/OUTPUTS/openbind_d68ev3c_c2_elabs_1LSYEHW.sdf', '/opt/xchem-fragalysis-2/maxwin/BulkDock/OUTPUTS/openbind_d68ev3c_c2_elabs_1LSYI5W.sdf']

$$$$
P63922
     RDKit          3D

 20 21  0  0  0  0  0  0  0  0999 V2000
    3.0927   -3.9385   34.7889 C   0  0  0  0  0  0  0  0  0  0  0  0
    2.2010   -3.8102   35.9975 C   0  0  0  0  0  0  0  0  0  0  0  0
    2.5262   -2.9083   37.0345 C   0  0  0  0  0  0  0  0  0  0  0  0
    4.0233   -1.7337   36.9418 Br  0  0  0  0  0  0  0  0  0  0  0  0
    1.7481   -2.8257   38.1899 C   0  0  0  0  0  0  0  0  0  0  0  0
    0.6248   -3.6243   38.3097 C   0  0  0  0  0  0  0  0  0  0  0  0
   -0.1148   -3.5545   39.4244 F   0  0  0  0  0  0  0  0  0  0  0  0
    0.2426   -4.4798   37.2877 C   0  0  0  0  0  0  0  0  0  0  0  0
    1.0172   -4.5722   36.1270 C   0  0  0  0  0  0  0  0  0  0  0  0
    0.5859   -5.3951   35.0814 N   0  0  0  0  0  0  0  0  0  0  0  0
   -0.6755   -6.2734   34.9522 C   0  0  0  0  0  0  0  0  0  0  0  0
   -1.5161   -6.5099   35.7280 O   0  0  0  0  0  0  0  0  0  0  0  0
   -0.8297   -6.8866   33.5926 C   0  0  0  0  0  0  0  0  0  0  0  0
   -1.5059   -8.1150   33.6018 C   0  0  0  0  0  0  0  0  0  0  0  0
   -1.8196   -8.7016   32.4000 C   0  0  0  0  0  0  0  0  0  0  0  0
   -2.5286   -9.8292   32.3979 F   0  0  0  0  0  0  0  0  0  0  0  0
   -1.4787   -8.2079   31.1989 N   0  0  0  0  0  0  0  0  0  0  0  0
   -0.7845   -7.0519   31.2074 C   0  0  0  0  0  0  0  0  0  0  0  0
   -0.4766   -6.3273   32.3565 C   0  0  0  0  0  0  0  0  0  0  0  0
    0.3027   -4.4239   32.0060 I   0  0  0  0  0  0  0  0  0  0  0  0
  1  2  1  0
  2  3  2  0
  3  4  1  0
  3  5  1  0
  5  6  2  0
  6  7  1  0
  6  8  1  0
  8  9  2  0
  9 10  1  0
 10 11  1  0
 11 12  2  0
 11 13  1  0
 13 14  2  0
 14 15  1  0
 15 16  1  0
 15 17  2  0
 17 18  1  0
 18 19  2  0
 19 20  1  0
  9  2  1  0
 19 13  1  0
M  END
>  <ref_mols>  (34) 
7gov-a

>  <gnina_score>  (34) 
5.215

>  <smina_score_min>  (34) 
-5.722

>  <ref_pdb>  (34) 
7gov-a

>  <inspiration_score>  (34) 
None

>  <inchikey>  (34) 
BFJZVYMQCKQXLP-UHFFFAOYSA-N

>  <tags>  (34) 
BulkDock Fragalysis export,openbind_d68ev3c_c2_elabs_scored,openbind_d68ev3c_c2_elabs_scored_4.5plus,openbind_d68ev3c_c2_elabs,openbind_d68ev3c_c2_elabs_scored_5plus,syndirella_product,openbind_d68ev3c_c2_elabs_scored_top80percent,syndirella_placed

>  <smiles>  (34) 
Cc1c(Br)cc(F)cc1NC(=O)c1cc(F)ncc1I

>  <subsites>  (34) 
None

>  <rmsd(smina/fragmenstein)>  (34) 
0.804

>  <alias>  (34) 
None

>  <energy_score>  (34) 
-46.692368

>  <HIPPO Pose ID>  (34) 
63922

>  <distance_score>  (34) 
0.771243

>  <HIPPO Compound ID>  (34) 
100110

>  <gnina_score_min>  (34) 
5.081

>  <name>  (34) 
P63922

>  <exports>  (34) 
['/opt/xchem-fragalysis-2/maxwin/BulkDock/OUTPUTS/openbind_d68ev3c_c2_elabs_1LOTQJ3.sdf', '/opt/xchem-fragalysis-2/maxwin/BulkDock/OUTPUTS/openbind_d68ev3c_c2_elabs_1LSYEHW.sdf', '/opt/xchem-fragalysis-2/maxwin/BulkDock/OUTPUTS/openbind_d68ev3c_c2_elabs_1LSYI5W.sdf']

$$$$
P63923
     RDKit          3D

 20 21  0  0  0  0  0  0  0  0999 V2000
    2.6080   -4.3615   34.8132 C   0  0  0  0  0  0  0  0  0  0  0  0
    1.7418   -3.9933   35.9881 C   0  0  0  0  0  0  0  0  0  0  0  0
    2.3138   -3.2684   37.0457 C   0  0  0  0  0  0  0  0  0  0  0  0
    1.5679   -2.9813   38.1857 C   0  0  0  0  0  0  0  0  0  0  0  0
    2.3828   -2.0750   39.6316 Br  0  0  0  0  0  0  0  0  0  0  0  0
    0.2371   -3.3808   38.2570 C   0  0  0  0  0  0  0  0  0  0  0  0
   -0.4779   -3.1629   39.3698 F   0  0  0  0  0  0  0  0  0  0  0  0
   -0.3709   -4.0444   37.1957 C   0  0  0  0  0  0  0  0  0  0  0  0
    0.3913   -4.3787   36.0815 C   0  0  0  0  0  0  0  0  0  0  0  0
   -0.1743   -5.1813   35.1052 N   0  0  0  0  0  0  0  0  0  0  0  0
    0.1601   -6.6205   34.6779 C   0  0  0  0  0  0  0  0  0  0  0  0
    0.9117   -7.3869   35.1294 O   0  0  0  0  0  0  0  0  0  0  0  0
   -0.5439   -6.9995   33.4398 C   0  0  0  0  0  0  0  0  0  0  0  0
   -0.0202   -6.5218   32.2384 C   0  0  0  0  0  0  0  0  0  0  0  0
   -0.5852   -6.9769   31.0670 C   0  0  0  0  0  0  0  0  0  0  0  0
   -0.1567   -6.4690   29.9042 F   0  0  0  0  0  0  0  0  0  0  0  0
   -1.6037   -7.8638   31.0169 N   0  0  0  0  0  0  0  0  0  0  0  0
   -2.0608   -8.3206   32.2023 C   0  0  0  0  0  0  0  0  0  0  0  0
   -1.5909   -7.9056   33.4301 C   0  0  0  0  0  0  0  0  0  0  0  0
   -2.5924   -8.5781   35.0627 I   0  0  0  0  0  0  0  0  0  0  0  0
  1  2  1  0
  2  3  2  0
  3  4  1  0
  4  5  1  0
  4  6  2  0
  6  7  1  0
  6  8  1  0
  8  9  2  0
  9 10  1  0
 10 11  1  0
 11 12  2  0
 11 13  1  0
 13 14  2  0
 14 15  1  0
 15 16  1  0
 15 17  2  0
 17 18  1  0
 18 19  2  0
 19 20  1  0
  9  2  1  0
 19 13  1  0
M  END
>  <ref_mols>  (35) 
7gov-a

>  <gnina_score>  (35) 
5.191

>  <smina_score_min>  (35) 
-5.61

>  <ref_pdb>  (35) 
7gov-a

>  <inspiration_score>  (35) 
None

>  <inchikey>  (35) 
IQSUKCRFNAMHRK-UHFFFAOYSA-N

>  <tags>  (35) 
BulkDock Fragalysis export,openbind_d68ev3c_c2_elabs_scored,openbind_d68ev3c_c2_elabs_scored_4.5plus,openbind_d68ev3c_c2_elabs,openbind_d68ev3c_c2_elabs_scored_5plus,syndirella_product,openbind_d68ev3c_c2_elabs_scored_top80percent,syndirella_placed

>  <smiles>  (35) 
Cc1cc(Br)c(F)cc1NC(=O)c1cc(F)ncc1I

>  <subsites>  (35) 
None

>  <rmsd(smina/fragmenstein)>  (35) 
0.895

>  <alias>  (35) 
None

>  <energy_score>  (35) 
-0.278496

>  <HIPPO Pose ID>  (35) 
63923

>  <distance_score>  (35) 
0.46264

>  <HIPPO Compound ID>  (35) 
100111

>  <gnina_score_min>  (35) 
5.34

>  <name>  (35) 
P63923

>  <exports>  (35) 
['/opt/xchem-fragalysis-2/maxwin/BulkDock/OUTPUTS/openbind_d68ev3c_c2_elabs_1LOTQJ3.sdf', '/opt/xchem-fragalysis-2/maxwin/BulkDock/OUTPUTS/openbind_d68ev3c_c2_elabs_1LSYEHW.sdf', '/opt/xchem-fragalysis-2/maxwin/BulkDock/OUTPUTS/openbind_d68ev3c_c2_elabs_1LSYI5W.sdf']

$$$$
P63924
     RDKit          3D

 20 21  0  0  0  0  0  0  0  0999 V2000
    2.9498   -3.1834   33.2778 C   0  0  0  0  0  0  0  0  0  0  0  0
    2.4597   -3.2930   34.3687 C   0  0  0  0  0  0  0  0  0  0  0  0
    1.8736   -3.4207   35.6724 C   0  0  0  0  0  0  0  0  0  0  0  0
    2.3521   -2.6184   36.7154 C   0  0  0  0  0  0  0  0  0  0  0  0
    1.8349   -2.7600   38.0052 C   0  0  0  0  0  0  0  0  0  0  0  0
    0.8568   -3.7159   38.2509 C   0  0  0  0  0  0  0  0  0  0  0  0
    0.3423   -3.8323   39.4829 F   0  0  0  0  0  0  0  0  0  0  0  0
    0.3914   -4.5399   37.2346 C   0  0  0  0  0  0  0  0  0  0  0  0
    0.8886   -4.3821   35.9387 C   0  0  0  0  0  0  0  0  0  0  0  0
    0.3652   -5.1740   34.9219 N   0  0  0  0  0  0  0  0  0  0  0  0
   -0.0856   -6.6463   34.9324 C   0  0  0  0  0  0  0  0  0  0  0  0
   -0.1617   -7.4058   35.8115 O   0  0  0  0  0  0  0  0  0  0  0  0
   -0.5892   -7.1020   33.5935 C   0  0  0  0  0  0  0  0  0  0  0  0
    0.0116   -6.6535   32.4118 C   0  0  0  0  0  0  0  0  0  0  0  0
   -0.5081   -7.0738   31.2012 C   0  0  0  0  0  0  0  0  0  0  0  0
   -0.0186   -6.5388   30.0750 F   0  0  0  0  0  0  0  0  0  0  0  0
   -1.5344   -7.9392   31.0771 N   0  0  0  0  0  0  0  0  0  0  0  0
   -2.0562   -8.4022   32.2303 C   0  0  0  0  0  0  0  0  0  0  0  0
   -1.6579   -8.0007   33.4930 C   0  0  0  0  0  0  0  0  0  0  0  0
   -2.8639   -8.7103   35.0126 I   0  0  0  0  0  0  0  0  0  0  0  0
  1  2  3  0
  2  3  1  0
  3  4  2  0
  4  5  1  0
  5  6  2  0
  6  7  1  0
  6  8  1  0
  8  9  2  0
  9 10  1  0
 10 11  1  0
 11 12  2  0
 11 13  1  0
 13 14  2  0
 14 15  1  0
 15 16  1  0
 15 17  2  0
 17 18  1  0
 18 19  2  0
 19 20  1  0
  9  3  1  0
 19 13  1  0
M  END
>  <ref_mols>  (36) 
7gov-a

>  <gnina_score>  (36) 
5.105

>  <smina_score_min>  (36) 
-5.143

>  <ref_pdb>  (36) 
7gov-a

>  <inspiration_score>  (36) 
None

>  <inchikey>  (36) 
HTONVBIRSOCEJF-UHFFFAOYSA-N

>  <tags>  (36) 
BulkDock Fragalysis export,openbind_d68ev3c_c2_elabs_scored,openbind_d68ev3c_c2_elabs_scored_4.5plus,openbind_d68ev3c_c2_elabs,openbind_d68ev3c_c2_elabs_scored_5plus,syndirella_product,openbind_d68ev3c_c2_elabs_scored_top80percent,syndirella_placed

>  <smiles>  (36) 
C#Cc1ccc(F)cc1NC(=O)c1cc(F)ncc1I

>  <subsites>  (36) 
None

>  <rmsd(smina/fragmenstein)>  (36) 
1.128

>  <alias>  (36) 
None

>  <energy_score>  (36) 
-7.447045

>  <HIPPO Pose ID>  (36) 
63924

>  <distance_score>  (36) 
0.543743

>  <HIPPO Compound ID>  (36) 
100114

>  <gnina_score_min>  (36) 
5.282

>  <name>  (36) 
P63924

>  <exports>  (36) 
['/opt/xchem-fragalysis-2/maxwin/BulkDock/OUTPUTS/openbind_d68ev3c_c2_elabs_1LOTQJ3.sdf', '/opt/xchem-fragalysis-2/maxwin/BulkDock/OUTPUTS/openbind_d68ev3c_c2_elabs_1LSYEHW.sdf', '/opt/xchem-fragalysis-2/maxwin/BulkDock/OUTPUTS/openbind_d68ev3c_c2_elabs_1LSYI5W.sdf']

$$$$
P63926
     RDKit          3D

 20 21  0  0  0  0  0  0  0  0999 V2000
    3.3557   -1.5067   36.5958 C   0  0  0  0  0  0  0  0  0  0  0  0
    2.3088   -2.5748   36.7541 C   0  0  0  0  0  0  0  0  0  0  0  0
    1.7237   -2.7550   38.0181 C   0  0  0  0  0  0  0  0  0  0  0  0
    0.7762   -3.7491   38.2190 C   0  0  0  0  0  0  0  0  0  0  0  0
    0.2155   -3.8895   39.4283 F   0  0  0  0  0  0  0  0  0  0  0  0
    0.3880   -4.5812   37.1825 C   0  0  0  0  0  0  0  0  0  0  0  0
    0.9464   -4.4045   35.9161 C   0  0  0  0  0  0  0  0  0  0  0  0
    0.5010   -5.2076   34.8726 N   0  0  0  0  0  0  0  0  0  0  0  0
    0.0051   -6.6663   34.8739 C   0  0  0  0  0  0  0  0  0  0  0  0
   -0.0357   -7.4487   35.7356 O   0  0  0  0  0  0  0  0  0  0  0  0
   -0.5474   -7.0917   33.5463 C   0  0  0  0  0  0  0  0  0  0  0  0
    0.0342   -6.6457   32.3545 C   0  0  0  0  0  0  0  0  0  0  0  0
   -0.5130   -7.0587   31.1540 C   0  0  0  0  0  0  0  0  0  0  0  0
   -0.0357   -6.5322   30.0185 F   0  0  0  0  0  0  0  0  0  0  0  0
   -1.5521   -7.9108   31.0492 N   0  0  0  0  0  0  0  0  0  0  0  0
   -2.0591   -8.3673   32.2115 C   0  0  0  0  0  0  0  0  0  0  0  0
   -1.6299   -7.9749   33.4662 C   0  0  0  0  0  0  0  0  0  0  0  0
   -2.8066   -8.6793   35.0079 I   0  0  0  0  0  0  0  0  0  0  0  0
    1.9294   -3.4218   35.6868 C   0  0  0  0  0  0  0  0  0  0  0  0
    2.5946   -3.3344   34.3370 C   0  0  0  0  0  0  0  0  0  0  0  0
  1  2  1  0
  2  3  2  0
  3  4  1  0
  4  5  1  0
  4  6  2  0
  6  7  1  0
  7  8  1  0
  8  9  1  0
  9 10  2  0
  9 11  1  0
 11 12  2  0
 12 13  1  0
 13 14  1  0
 13 15  2  0
 15 16  1  0
 16 17  2  0
 17 18  1  0
  7 19  2  0
 19 20  1  0
 19  2  1  0
 17 11  1  0
M  END
>  <ref_mols>  (37) 
7gov-a

>  <gnina_score>  (37) 
5.11

>  <smina_score_min>  (37) 
-5.229

>  <ref_pdb>  (37) 
7gov-a

>  <inspiration_score>  (37) 
None

>  <inchikey>  (37) 
IFCQHNUZGWTMKB-UHFFFAOYSA-N

>  <tags>  (37) 
BulkDock Fragalysis export,openbind_d68ev3c_c2_elabs_scored,openbind_d68ev3c_c2_elabs_scored_4.5plus,openbind_d68ev3c_c2_elabs,openbind_d68ev3c_c2_elabs_scored_5plus,syndirella_product,openbind_d68ev3c_c2_elabs_scored_top80percent,syndirella_placed

>  <smiles>  (37) 
Cc1cc(F)cc(NC(=O)c2cc(F)ncc2I)c1C

>  <subsites>  (37) 
None

>  <rmsd(smina/fragmenstein)>  (37) 
1.134

>  <alias>  (37) 
None

>  <energy_score>  (37) 
-10.559713

>  <HIPPO Pose ID>  (37) 
63926

>  <distance_score>  (37) 
0.525015

>  <HIPPO Compound ID>  (37) 
100116

>  <gnina_score_min>  (37) 
5.149

>  <name>  (37) 
P63926

>  <exports>  (37) 
['/opt/xchem-fragalysis-2/maxwin/BulkDock/OUTPUTS/openbind_d68ev3c_c2_elabs_1LOTQJ3.sdf', '/opt/xchem-fragalysis-2/maxwin/BulkDock/OUTPUTS/openbind_d68ev3c_c2_elabs_1LSYEHW.sdf', '/opt/xchem-fragalysis-2/maxwin/BulkDock/OUTPUTS/openbind_d68ev3c_c2_elabs_1LSYI5W.sdf']

$$$$
P63927
     RDKit          3D

 20 21  0  0  0  0  0  0  0  0999 V2000
    2.6328   -3.3200   34.3587 C   0  0  0  0  0  0  0  0  0  0  0  0
    1.9426   -3.4377   35.6876 C   0  0  0  0  0  0  0  0  0  0  0  0
    2.3657   -2.6393   36.7622 C   0  0  0  0  0  0  0  0  0  0  0  0
    1.7985   -2.8010   38.0238 C   0  0  0  0  0  0  0  0  0  0  0  0
    2.2038   -2.0140   39.0310 F   0  0  0  0  0  0  0  0  0  0  0  0
    0.8186   -3.7594   38.2353 C   0  0  0  0  0  0  0  0  0  0  0  0
    0.2540   -3.8928   39.4442 F   0  0  0  0  0  0  0  0  0  0  0  0
    0.4023   -4.5770   37.1920 C   0  0  0  0  0  0  0  0  0  0  0  0
    0.9539   -4.4075   35.9179 C   0  0  0  0  0  0  0  0  0  0  0  0
    0.5069   -5.2105   34.8770 N   0  0  0  0  0  0  0  0  0  0  0  0
   -0.0033   -6.6643   34.8827 C   0  0  0  0  0  0  0  0  0  0  0  0
   -0.0567   -7.4419   35.7479 O   0  0  0  0  0  0  0  0  0  0  0  0
   -0.5517   -7.0926   33.5531 C   0  0  0  0  0  0  0  0  0  0  0  0
    0.0320   -6.6481   32.3615 C   0  0  0  0  0  0  0  0  0  0  0  0
   -0.5131   -7.0615   31.1599 C   0  0  0  0  0  0  0  0  0  0  0  0
   -0.0340   -6.5346   30.0254 F   0  0  0  0  0  0  0  0  0  0  0  0
   -1.5516   -7.9136   31.0536 N   0  0  0  0  0  0  0  0  0  0  0  0
   -2.0602   -8.3702   32.2150 C   0  0  0  0  0  0  0  0  0  0  0  0
   -1.6337   -7.9769   33.4706 C   0  0  0  0  0  0  0  0  0  0  0  0
   -2.8143   -8.6828   35.0092 I   0  0  0  0  0  0  0  0  0  0  0  0
  1  2  1  0
  2  3  2  0
  3  4  1  0
  4  5  1  0
  4  6  2  0
  6  7  1  0
  6  8  1  0
  8  9  2  0
  9 10  1  0
 10 11  1  0
 11 12  2  0
 11 13  1  0
 13 14  2  0
 14 15  1  0
 15 16  1  0
 15 17  2  0
 17 18  1  0
 18 19  2  0
 19 20  1  0
  9  2  1  0
 19 13  1  0
M  END
>  <ref_mols>  (38) 
7gov-a

>  <gnina_score>  (38) 
5.137

>  <smina_score_min>  (38) 
-5.209

>  <ref_pdb>  (38) 
7gov-a

>  <inspiration_score>  (38) 
None

>  <inchikey>  (38) 
SPTMXGGYEKFINK-UHFFFAOYSA-N

>  <tags>  (38) 
BulkDock Fragalysis export,openbind_d68ev3c_c2_elabs_scored,openbind_d68ev3c_c2_elabs_scored_4.5plus,openbind_d68ev3c_c2_elabs,openbind_d68ev3c_c2_elabs_scored_5plus,syndirella_product,openbind_d68ev3c_c2_elabs_scored_top80percent,syndirella_placed

>  <smiles>  (38) 
Cc1cc(F)c(F)cc1NC(=O)c1cc(F)ncc1I

>  <subsites>  (38) 
None

>  <rmsd(smina/fragmenstein)>  (38) 
1.047

>  <alias>  (38) 
None

>  <energy_score>  (38) 
-5.46969

>  <HIPPO Pose ID>  (38) 
63927

>  <distance_score>  (38) 
0.520161

>  <HIPPO Compound ID>  (38) 
100117

>  <gnina_score_min>  (38) 
5.17

>  <name>  (38) 
P63927

>  <exports>  (38) 
['/opt/xchem-fragalysis-2/maxwin/BulkDock/OUTPUTS/openbind_d68ev3c_c2_elabs_1LOTQJ3.sdf', '/opt/xchem-fragalysis-2/maxwin/BulkDock/OUTPUTS/openbind_d68ev3c_c2_elabs_1LSYEHW.sdf', '/opt/xchem-fragalysis-2/maxwin/BulkDock/OUTPUTS/openbind_d68ev3c_c2_elabs_1LSYI5W.sdf']

$$$$
P63960
     RDKit          3D

 20 21  0  0  0  0  0  0  0  0999 V2000
    2.8404   -3.4806   34.1316 C   0  0  0  0  0  0  0  0  0  0  0  0
    2.1966   -3.4421   35.4894 C   0  0  0  0  0  0  0  0  0  0  0  0
    2.7470   -2.6146   36.4846 C   0  0  0  0  0  0  0  0  0  0  0  0
    2.2340   -2.6159   37.7801 C   0  0  0  0  0  0  0  0  0  0  0  0
    1.1704   -3.4478   38.0892 C   0  0  0  0  0  0  0  0  0  0  0  0
    0.6573   -3.4018   39.3310 F   0  0  0  0  0  0  0  0  0  0  0  0
    0.6171   -4.2870   37.1221 C   0  0  0  0  0  0  0  0  0  0  0  0
   -0.9199   -5.2429   37.6294 Br  0  0  0  0  0  0  0  0  0  0  0  0
    1.1262   -4.2947   35.8134 C   0  0  0  0  0  0  0  0  0  0  0  0
    0.5980   -5.1037   34.8004 N   0  0  0  0  0  0  0  0  0  0  0  0
    0.2471   -6.6080   34.7982 C   0  0  0  0  0  0  0  0  0  0  0  0
    0.4147   -7.4242   35.6140 O   0  0  0  0  0  0  0  0  0  0  0  0
   -0.4398   -7.0291   33.5370 C   0  0  0  0  0  0  0  0  0  0  0  0
    0.0720   -6.6130   32.3041 C   0  0  0  0  0  0  0  0  0  0  0  0
   -0.5260   -7.0797   31.1476 C   0  0  0  0  0  0  0  0  0  0  0  0
   -1.5856   -7.9087   31.1369 N   0  0  0  0  0  0  0  0  0  0  0  0
   -2.0335   -8.3185   32.3413 C   0  0  0  0  0  0  0  0  0  0  0  0
   -3.0735   -9.1651   32.3217 F   0  0  0  0  0  0  0  0  0  0  0  0
   -1.5245   -7.9173   33.5667 C   0  0  0  0  0  0  0  0  0  0  0  0
   -2.1624   -8.4987   34.7866 C   0  0  0  0  0  0  0  0  0  0  0  0
  1  2  1  0
  2  3  2  0
  3  4  1  0
  4  5  2  0
  5  6  1  0
  5  7  1  0
  7  8  1  0
  7  9  2  0
  9 10  1  0
 10 11  1  0
 11 12  2  0
 11 13  1  0
 13 14  2  0
 14 15  1  0
 15 16  2  0
 16 17  1  0
 17 18  1  0
 17 19  2  0
 19 20  1  0
  9  2  1  0
 19 13  1  0
M  END
>  <ref_mols>  (39) 
7gov-a

>  <gnina_score>  (39) 
5.082

>  <smina_score_min>  (39) 
-5.554

>  <ref_pdb>  (39) 
7gov-a

>  <inspiration_score>  (39) 
None

>  <inchikey>  (39) 
RHTCPTMROHEAJD-UHFFFAOYSA-N

>  <tags>  (39) 
BulkDock Fragalysis export,openbind_d68ev3c_c2_elabs_scored,openbind_d68ev3c_c2_elabs_scored_4.5plus,openbind_d68ev3c_c2_elabs,openbind_d68ev3c_c2_elabs_scored_5plus,syndirella_product,openbind_d68ev3c_c2_elabs_scored_top80percent,syndirella_placed

>  <smiles>  (39) 
Cc1ccc(F)c(Br)c1NC(=O)c1ccnc(F)c1C

>  <subsites>  (39) 
None

>  <rmsd(smina/fragmenstein)>  (39) 
0.421

>  <alias>  (39) 
None

>  <energy_score>  (39) 
-0.646805

>  <HIPPO Pose ID>  (39) 
63960

>  <distance_score>  (39) 
0.549531

>  <HIPPO Compound ID>  (39) 
100157

>  <gnina_score_min>  (39) 
5.033

>  <name>  (39) 
P63960

>  <exports>  (39) 
['/opt/xchem-fragalysis-2/maxwin/BulkDock/OUTPUTS/openbind_d68ev3c_c2_elabs_1LOTQJ3.sdf', '/opt/xchem-fragalysis-2/maxwin/BulkDock/OUTPUTS/openbind_d68ev3c_c2_elabs_1LSYEHW.sdf', '/opt/xchem-fragalysis-2/maxwin/BulkDock/OUTPUTS/openbind_d68ev3c_c2_elabs_1LSYI5W.sdf']

$$$$
P63965
     RDKit          3D

 20 21  0  0  0  0  0  0  0  0999 V2000
    2.6323   -3.4923   34.4255 C   0  0  0  0  0  0  0  0  0  0  0  0
    1.9447   -3.5333   35.7652 C   0  0  0  0  0  0  0  0  0  0  0  0
    2.3461   -2.6786   36.8131 C   0  0  0  0  0  0  0  0  0  0  0  0
    3.6830   -1.3433   36.5793 Br  0  0  0  0  0  0  0  0  0  0  0  0
    1.7634   -2.7637   38.0798 C   0  0  0  0  0  0  0  0  0  0  0  0
    0.7729   -3.7031   38.3112 C   0  0  0  0  0  0  0  0  0  0  0  0
    0.2046   -3.7775   39.5222 F   0  0  0  0  0  0  0  0  0  0  0  0
    0.3441   -4.5497   37.3015 C   0  0  0  0  0  0  0  0  0  0  0  0
    0.9115   -4.4538   36.0276 C   0  0  0  0  0  0  0  0  0  0  0  0
    0.4216   -5.2822   35.0227 N   0  0  0  0  0  0  0  0  0  0  0  0
   -0.2433   -6.6720   35.1050 C   0  0  0  0  0  0  0  0  0  0  0  0
   -0.4150   -7.3736   36.0190 O   0  0  0  0  0  0  0  0  0  0  0  0
   -0.7257   -7.1685   33.7715 C   0  0  0  0  0  0  0  0  0  0  0  0
   -0.0619   -6.8236   32.5844 C   0  0  0  0  0  0  0  0  0  0  0  0
   -0.5359   -7.3114   31.3775 C   0  0  0  0  0  0  0  0  0  0  0  0
   -1.5999   -8.1255   31.2733 N   0  0  0  0  0  0  0  0  0  0  0  0
   -2.1915   -8.4856   32.4349 C   0  0  0  0  0  0  0  0  0  0  0  0
   -3.2611   -9.2854   32.3125 F   0  0  0  0  0  0  0  0  0  0  0  0
   -1.8185   -8.0395   33.6934 C   0  0  0  0  0  0  0  0  0  0  0  0
   -2.8100   -8.5215   35.0202 Cl  0  0  0  0  0  0  0  0  0  0  0  0
  1  2  1  0
  2  3  2  0
  3  4  1  0
  3  5  1  0
  5  6  2  0
  6  7  1  0
  6  8  1  0
  8  9  2  0
  9 10  1  0
 10 11  1  0
 11 12  2  0
 11 13  1  0
 13 14  2  0
 14 15  1  0
 15 16  2  0
 16 17  1  0
 17 18  1  0
 17 19  2  0
 19 20  1  0
  9  2  1  0
 19 13  1  0
M  END
>  <ref_mols>  (40) 
7gov-a

>  <gnina_score>  (40) 
5.086

>  <smina_score_min>  (40) 
-6.175

>  <ref_pdb>  (40) 
7gov-a

>  <inspiration_score>  (40) 
None

>  <inchikey>  (40) 
ZMRCYAJSJGUMIW-UHFFFAOYSA-N

>  <tags>  (40) 
BulkDock Fragalysis export,openbind_d68ev3c_c2_elabs_scored,openbind_d68ev3c_c2_elabs_scored_4.5plus,openbind_d68ev3c_c2_elabs,openbind_d68ev3c_c2_elabs_scored_5plus,syndirella_product,openbind_d68ev3c_c2_elabs_scored_top80percent,syndirella_placed

>  <smiles>  (40) 
Cc1c(Br)cc(F)cc1NC(=O)c1ccnc(F)c1Cl

>  <subsites>  (40) 
None

>  <rmsd(smina/fragmenstein)>  (40) 
1.011

>  <alias>  (40) 
None

>  <energy_score>  (40) 
-8.459998

>  <HIPPO Pose ID>  (40) 
63965

>  <distance_score>  (40) 
0.552585

>  <HIPPO Compound ID>  (40) 
100165

>  <gnina_score_min>  (40) 
5.116

>  <name>  (40) 
P63965

>  <exports>  (40) 
['/opt/xchem-fragalysis-2/maxwin/BulkDock/OUTPUTS/openbind_d68ev3c_c2_elabs_1LOTQJ3.sdf', '/opt/xchem-fragalysis-2/maxwin/BulkDock/OUTPUTS/openbind_d68ev3c_c2_elabs_1LSYEHW.sdf', '/opt/xchem-fragalysis-2/maxwin/BulkDock/OUTPUTS/openbind_d68ev3c_c2_elabs_1LSYI5W.sdf']

$$$$
P63967
     RDKit          3D

 20 21  0  0  0  0  0  0  0  0999 V2000
    2.5834   -3.4871   34.4267 C   0  0  0  0  0  0  0  0  0  0  0  0
    1.9050   -3.5350   35.7672 C   0  0  0  0  0  0  0  0  0  0  0  0
    2.3763   -2.7158   36.8072 C   0  0  0  0  0  0  0  0  0  0  0  0
    1.8218   -2.8047   38.0857 C   0  0  0  0  0  0  0  0  0  0  0  0
    2.4811   -1.6910   39.4652 Br  0  0  0  0  0  0  0  0  0  0  0  0
    0.7978   -3.7106   38.3356 C   0  0  0  0  0  0  0  0  0  0  0  0
    0.2359   -3.7959   39.5510 F   0  0  0  0  0  0  0  0  0  0  0  0
    0.3301   -4.5411   37.3249 C   0  0  0  0  0  0  0  0  0  0  0  0
    0.8767   -4.4511   36.0425 C   0  0  0  0  0  0  0  0  0  0  0  0
    0.3995   -5.2874   35.0408 N   0  0  0  0  0  0  0  0  0  0  0  0
   -0.2856   -6.6672   35.1291 C   0  0  0  0  0  0  0  0  0  0  0  0
   -0.4874   -7.3520   36.0496 O   0  0  0  0  0  0  0  0  0  0  0  0
   -0.7473   -7.1766   33.7912 C   0  0  0  0  0  0  0  0  0  0  0  0
   -0.0732   -6.8341   32.6086 C   0  0  0  0  0  0  0  0  0  0  0  0
   -0.5363   -7.3230   31.3977 C   0  0  0  0  0  0  0  0  0  0  0  0
   -1.5984   -8.1377   31.2845 N   0  0  0  0  0  0  0  0  0  0  0  0
   -2.1984   -8.4984   32.4415 C   0  0  0  0  0  0  0  0  0  0  0  0
   -3.2662   -9.2990   32.3103 F   0  0  0  0  0  0  0  0  0  0  0  0
   -1.8368   -8.0515   33.7035 C   0  0  0  0  0  0  0  0  0  0  0  0
   -2.8395   -8.5390   35.0203 Cl  0  0  0  0  0  0  0  0  0  0  0  0
  1  2  1  0
  2  3  2  0
  3  4  1  0
  4  5  1  0
  4  6  2  0
  6  7  1  0
  6  8  1  0
  8  9  2  0
  9 10  1  0
 10 11  1  0
 11 12  2  0
 11 13  1  0
 13 14  2  0
 14 15  1  0
 15 16  2  0
 16 17  1  0
 17 18  1  0
 17 19  2  0
 19 20  1  0
  9  2  1  0
 19 13  1  0
M  END
>  <ref_mols>  (41) 
7gov-a

>  <gnina_score>  (41) 
5.093

>  <smina_score_min>  (41) 
-6.171

>  <ref_pdb>  (41) 
7gov-a

>  <inspiration_score>  (41) 
None

>  <inchikey>  (41) 
RWIPQIZUNTVCFI-UHFFFAOYSA-N

>  <tags>  (41) 
BulkDock Fragalysis export,openbind_d68ev3c_c2_elabs_scored,openbind_d68ev3c_c2_elabs_scored_4.5plus,openbind_d68ev3c_c2_elabs,openbind_d68ev3c_c2_elabs_scored_5plus,syndirella_product,openbind_d68ev3c_c2_elabs_scored_top80percent,syndirella_placed

>  <smiles>  (41) 
Cc1cc(Br)c(F)cc1NC(=O)c1ccnc(F)c1Cl

>  <subsites>  (41) 
None

>  <rmsd(smina/fragmenstein)>  (41) 
1.012

>  <alias>  (41) 
None

>  <energy_score>  (41) 
-9.195609

>  <HIPPO Pose ID>  (41) 
63967

>  <distance_score>  (41) 
0.568497

>  <HIPPO Compound ID>  (41) 
100167

>  <gnina_score_min>  (41) 
5.083

>  <name>  (41) 
P63967

>  <exports>  (41) 
['/opt/xchem-fragalysis-2/maxwin/BulkDock/OUTPUTS/openbind_d68ev3c_c2_elabs_1LOTQJ3.sdf', '/opt/xchem-fragalysis-2/maxwin/BulkDock/OUTPUTS/openbind_d68ev3c_c2_elabs_1LSYEHW.sdf', '/opt/xchem-fragalysis-2/maxwin/BulkDock/OUTPUTS/openbind_d68ev3c_c2_elabs_1LSYI5W.sdf']

$$$$
P63970
     RDKit          3D

 20 21  0  0  0  0  0  0  0  0999 V2000
    3.4341   -1.6855   36.5540 C   0  0  0  0  0  0  0  0  0  0  0  0
    2.3257   -2.6727   36.7968 C   0  0  0  0  0  0  0  0  0  0  0  0
    1.7786   -2.7570   38.0873 C   0  0  0  0  0  0  0  0  0  0  0  0
    0.7757   -3.6746   38.3669 C   0  0  0  0  0  0  0  0  0  0  0  0
    0.2542   -3.7270   39.6000 F   0  0  0  0  0  0  0  0  0  0  0  0
    0.2918   -4.5209   37.3850 C   0  0  0  0  0  0  0  0  0  0  0  0
    0.8120   -4.4419   36.0931 C   0  0  0  0  0  0  0  0  0  0  0  0
    0.2703   -5.2581   35.1055 N   0  0  0  0  0  0  0  0  0  0  0  0
   -0.4204   -6.6352   35.2100 C   0  0  0  0  0  0  0  0  0  0  0  0
   -0.7115   -7.2645   36.1463 O   0  0  0  0  0  0  0  0  0  0  0  0
   -0.8149   -7.1848   33.8627 C   0  0  0  0  0  0  0  0  0  0  0  0
   -0.1036   -6.8401   32.7017 C   0  0  0  0  0  0  0  0  0  0  0  0
   -0.5215   -7.3321   31.4752 C   0  0  0  0  0  0  0  0  0  0  0  0
   -1.5722   -8.1557   31.3257 N   0  0  0  0  0  0  0  0  0  0  0  0
   -2.2013   -8.5268   32.4636 C   0  0  0  0  0  0  0  0  0  0  0  0
   -3.2559   -9.3380   32.2974 F   0  0  0  0  0  0  0  0  0  0  0  0
   -1.8849   -8.0793   33.7388 C   0  0  0  0  0  0  0  0  0  0  0  0
   -2.9206   -8.5929   35.0205 Cl  0  0  0  0  0  0  0  0  0  0  0  0
    1.8519   -3.5397   35.7840 C   0  0  0  0  0  0  0  0  0  0  0  0
    2.4709   -3.5473   34.4089 C   0  0  0  0  0  0  0  0  0  0  0  0
  1  2  1  0
  2  3  2  0
  3  4  1  0
  4  5  1  0
  4  6  2  0
  6  7  1  0
  7  8  1  0
  8  9  1  0
  9 10  2  0
  9 11  1  0
 11 12  2  0
 12 13  1  0
 13 14  2  0
 14 15  1  0
 15 16  1  0
 15 17  2  0
 17 18  1  0
  7 19  2  0
 19 20  1  0
 19  2  1  0
 17 11  1  0
M  END
>  <ref_mols>  (42) 
7gov-a

>  <gnina_score>  (42) 
5.023

>  <smina_score_min>  (42) 
-6.222

>  <ref_pdb>  (42) 
7gov-a

>  <inspiration_score>  (42) 
None

>  <inchikey>  (42) 
SKDLUWAVJKLGIV-UHFFFAOYSA-N

>  <tags>  (42) 
BulkDock Fragalysis export,openbind_d68ev3c_c2_elabs_scored,openbind_d68ev3c_c2_elabs_scored_4.5plus,openbind_d68ev3c_c2_elabs,openbind_d68ev3c_c2_elabs_scored_5plus,syndirella_product,openbind_d68ev3c_c2_elabs_scored_top80percent,syndirella_placed

>  <smiles>  (42) 
Cc1cc(F)cc(NC(=O)c2ccnc(F)c2Cl)c1C

>  <subsites>  (42) 
None

>  <rmsd(smina/fragmenstein)>  (42) 
0.967

>  <alias>  (42) 
None

>  <energy_score>  (42) 
-7.713747

>  <HIPPO Pose ID>  (42) 
63970

>  <distance_score>  (42) 
0.636254

>  <HIPPO Compound ID>  (42) 
100171

>  <gnina_score_min>  (42) 
5.035

>  <name>  (42) 
P63970

>  <exports>  (42) 
['/opt/xchem-fragalysis-2/maxwin/BulkDock/OUTPUTS/openbind_d68ev3c_c2_elabs_1LOTQJ3.sdf', '/opt/xchem-fragalysis-2/maxwin/BulkDock/OUTPUTS/openbind_d68ev3c_c2_elabs_1LSYEHW.sdf', '/opt/xchem-fragalysis-2/maxwin/BulkDock/OUTPUTS/openbind_d68ev3c_c2_elabs_1LSYI5W.sdf']

$$$$
P64000
     RDKit          3D

 20 21  0  0  0  0  0  0  0  0999 V2000
    2.6384   -3.6836   34.4642 C   0  0  0  0  0  0  0  0  0  0  0  0
    1.9665   -3.6265   35.8116 C   0  0  0  0  0  0  0  0  0  0  0  0
    2.3973   -2.7611   36.8380 C   0  0  0  0  0  0  0  0  0  0  0  0
    3.8150   -1.5105   36.6144 Br  0  0  0  0  0  0  0  0  0  0  0  0
    1.7861   -2.7750   38.0949 C   0  0  0  0  0  0  0  0  0  0  0  0
    0.7415   -3.6504   38.3382 C   0  0  0  0  0  0  0  0  0  0  0  0
    0.1545   -3.6576   39.5425 F   0  0  0  0  0  0  0  0  0  0  0  0
    0.2879   -4.5100   37.3517 C   0  0  0  0  0  0  0  0  0  0  0  0
    0.8909   -4.4996   36.0912 C   0  0  0  0  0  0  0  0  0  0  0  0
    0.4143   -5.3691   35.1097 N   0  0  0  0  0  0  0  0  0  0  0  0
   -0.4754   -6.6245   35.2290 C   0  0  0  0  0  0  0  0  0  0  0  0
   -0.8855   -7.1723   36.1724 O   0  0  0  0  0  0  0  0  0  0  0  0
   -0.8485   -7.2025   33.8772 C   0  0  0  0  0  0  0  0  0  0  0  0
   -0.1629   -6.8779   32.6958 C   0  0  0  0  0  0  0  0  0  0  0  0
    0.9613   -6.0972   32.6890 O   0  0  0  0  0  0  0  0  0  0  0  0
   -0.5867   -7.3925   31.4753 C   0  0  0  0  0  0  0  0  0  0  0  0
   -1.6163   -8.2521   31.3454 N   0  0  0  0  0  0  0  0  0  0  0  0
   -2.2293   -8.6074   32.4965 C   0  0  0  0  0  0  0  0  0  0  0  0
   -1.9092   -8.1158   33.7589 C   0  0  0  0  0  0  0  0  0  0  0  0
   -2.9550   -8.6405   35.0279 Cl  0  0  0  0  0  0  0  0  0  0  0  0
  1  2  1  0
  2  3  2  0
  3  4  1  0
  3  5  1  0
  5  6  2  0
  6  7  1  0
  6  8  1  0
  8  9  2  0
  9 10  1  0
 10 11  1  0
 11 12  2  0
 11 13  1  0
 13 14  2  0
 14 15  1  0
 14 16  1  0
 16 17  2  0
 17 18  1  0
 18 19  2  0
 19 20  1  0
  9  2  1  0
 19 13  1  0
M  END
>  <ref_mols>  (43) 
7gov-a

>  <gnina_score>  (43) 
5.075

>  <smina_score_min>  (43) 
-6.258

>  <ref_pdb>  (43) 
7gov-a

>  <inspiration_score>  (43) 
None

>  <inchikey>  (43) 
YBLLQXOCCXREAP-UHFFFAOYSA-N

>  <tags>  (43) 
BulkDock Fragalysis export,openbind_d68ev3c_c2_elabs_scored,openbind_d68ev3c_c2_elabs_scored_4.5plus,openbind_d68ev3c_c2_elabs,openbind_d68ev3c_c2_elabs_scored_5plus,syndirella_product,openbind_d68ev3c_c2_elabs_scored_top80percent,syndirella_placed

>  <smiles>  (43) 
Cc1c(Br)cc(F)cc1NC(=O)c1c(O)cncc1Cl

>  <subsites>  (43) 
None

>  <rmsd(smina/fragmenstein)>  (43) 
1.083

>  <alias>  (43) 
None

>  <energy_score>  (43) 
-31.301257

>  <HIPPO Pose ID>  (43) 
64000

>  <distance_score>  (43) 
0.649227

>  <HIPPO Compound ID>  (43) 
100213

>  <gnina_score_min>  (43) 
5.061

>  <name>  (43) 
P64000

>  <exports>  (43) 
['/opt/xchem-fragalysis-2/maxwin/BulkDock/OUTPUTS/openbind_d68ev3c_c2_elabs_1LOTQJ3.sdf', '/opt/xchem-fragalysis-2/maxwin/BulkDock/OUTPUTS/openbind_d68ev3c_c2_elabs_1LSYEHW.sdf', '/opt/xchem-fragalysis-2/maxwin/BulkDock/OUTPUTS/openbind_d68ev3c_c2_elabs_1LSYI5W.sdf']

$$$$
P64007
     RDKit          3D

 20 21  0  0  0  0  0  0  0  0999 V2000
    3.0951   -3.0798   34.5140 C   0  0  0  0  0  0  0  0  0  0  0  0
    2.3775   -3.1008   35.8345 C   0  0  0  0  0  0  0  0  0  0  0  0
    2.8595   -2.3362   36.9067 C   0  0  0  0  0  0  0  0  0  0  0  0
    2.2690   -2.4256   38.1687 C   0  0  0  0  0  0  0  0  0  0  0  0
    1.1965   -3.2836   38.3691 C   0  0  0  0  0  0  0  0  0  0  0  0
    0.6168   -3.3230   39.5799 F   0  0  0  0  0  0  0  0  0  0  0  0
    0.7099   -4.0624   37.3262 C   0  0  0  0  0  0  0  0  0  0  0  0
   -0.8352   -5.0932   37.6601 Br  0  0  0  0  0  0  0  0  0  0  0  0
    1.3020   -3.9712   36.0574 C   0  0  0  0  0  0  0  0  0  0  0  0
    0.8628   -4.7486   34.9957 N   0  0  0  0  0  0  0  0  0  0  0  0
    0.7121   -6.2721   34.8696 C   0  0  0  0  0  0  0  0  0  0  0  0
    1.0045   -7.1235   35.6084 O   0  0  0  0  0  0  0  0  0  0  0  0
    0.0008   -6.6294   33.6221 C   0  0  0  0  0  0  0  0  0  0  0  0
    0.4791   -6.1957   32.3819 C   0  0  0  0  0  0  0  0  0  0  0  0
   -0.1526   -6.6533   31.2403 C   0  0  0  0  0  0  0  0  0  0  0  0
   -1.2017   -7.4932   31.2620 N   0  0  0  0  0  0  0  0  0  0  0  0
   -1.6196   -7.9018   32.4849 C   0  0  0  0  0  0  0  0  0  0  0  0
   -2.9955   -9.1624   32.4440 Br  0  0  0  0  0  0  0  0  0  0  0  0
   -1.0940   -7.4799   33.6935 C   0  0  0  0  0  0  0  0  0  0  0  0
   -1.8165   -7.9268   35.1968 Cl  0  0  0  0  0  0  0  0  0  0  0  0
  1  2  1  0
  2  3  2  0
  3  4  1  0
  4  5  2  0
  5  6  1  0
  5  7  1  0
  7  8  1  0
  7  9  2  0
  9 10  1  0
 10 11  1  0
 11 12  2  0
 11 13  1  0
 13 14  2  0
 14 15  1  0
 15 16  2  0
 16 17  1  0
 17 18  1  0
 17 19  2  0
 19 20  1  0
  9  2  1  0
 19 13  1  0
M  END
>  <ref_mols>  (44) 
7gov-a

>  <gnina_score>  (44) 
5.307

>  <smina_score_min>  (44) 
-4.637

>  <ref_pdb>  (44) 
7gov-a

>  <inspiration_score>  (44) 
None

>  <inchikey>  (44) 
OVMJUXHBTIXFBE-UHFFFAOYSA-N

>  <tags>  (44) 
BulkDock Fragalysis export,openbind_d68ev3c_c2_elabs_scored,openbind_d68ev3c_c2_elabs_scored_4.5plus,openbind_d68ev3c_c2_elabs,openbind_d68ev3c_c2_elabs_scored_5plus,syndirella_product,openbind_d68ev3c_c2_elabs_scored_top80percent,syndirella_placed

>  <smiles>  (44) 
Cc1ccc(F)c(Br)c1NC(=O)c1ccnc(Br)c1Cl

>  <subsites>  (44) 
None

>  <rmsd(smina/fragmenstein)>  (44) 
0.352

>  <alias>  (44) 
None

>  <energy_score>  (44) 
-2.214816

>  <HIPPO Pose ID>  (44) 
64007

>  <distance_score>  (44) 
0.825374

>  <HIPPO Compound ID>  (44) 
100221

>  <gnina_score_min>  (44) 
5.184

>  <name>  (44) 
P64007

>  <exports>  (44) 
['/opt/xchem-fragalysis-2/maxwin/BulkDock/OUTPUTS/openbind_d68ev3c_c2_elabs_1LOTQJ3.sdf', '/opt/xchem-fragalysis-2/maxwin/BulkDock/OUTPUTS/openbind_d68ev3c_c2_elabs_1LSYEHW.sdf', '/opt/xchem-fragalysis-2/maxwin/BulkDock/OUTPUTS/openbind_d68ev3c_c2_elabs_1LSYI5W.sdf']

$$$$
P64008
     RDKit          3D

 20 21  0  0  0  0  0  0  0  0999 V2000
    2.9885   -3.8947   34.6510 C   0  0  0  0  0  0  0  0  0  0  0  0
    2.1557   -3.8090   35.8972 C   0  0  0  0  0  0  0  0  0  0  0  0
    2.5467   -2.9338   36.9216 C   0  0  0  0  0  0  0  0  0  0  0  0
    3.6393   -2.1693   36.7692 F   0  0  0  0  0  0  0  0  0  0  0  0
    1.8306   -2.8248   38.1061 C   0  0  0  0  0  0  0  0  0  0  0  0
    0.6922   -3.5938   38.2690 C   0  0  0  0  0  0  0  0  0  0  0  0
   -0.0050   -3.5053   39.4097 F   0  0  0  0  0  0  0  0  0  0  0  0
    0.2553   -4.4512   37.2659 C   0  0  0  0  0  0  0  0  0  0  0  0
    0.9858   -4.5676   36.0788 C   0  0  0  0  0  0  0  0  0  0  0  0
    0.5388   -5.4173   35.0659 N   0  0  0  0  0  0  0  0  0  0  0  0
   -0.6836   -6.3567   35.0124 C   0  0  0  0  0  0  0  0  0  0  0  0
   -1.4674   -6.6270   35.8354 O   0  0  0  0  0  0  0  0  0  0  0  0
   -0.8697   -7.0299   33.6818 C   0  0  0  0  0  0  0  0  0  0  0  0
   -1.5708   -8.2466   33.7525 C   0  0  0  0  0  0  0  0  0  0  0  0
   -1.9265   -8.8825   32.5871 C   0  0  0  0  0  0  0  0  0  0  0  0
   -1.6085   -8.4221   31.3684 N   0  0  0  0  0  0  0  0  0  0  0  0
   -0.8836   -7.2748   31.3055 C   0  0  0  0  0  0  0  0  0  0  0  0
   -0.4866   -6.7379   29.5190 Br  0  0  0  0  0  0  0  0  0  0  0  0
   -0.5156   -6.5194   32.4226 C   0  0  0  0  0  0  0  0  0  0  0  0
    0.2390   -4.9785   32.2080 Cl  0  0  0  0  0  0  0  0  0  0  0  0
  1  2  1  0
  2  3  2  0
  3  4  1  0
  3  5  1  0
  5  6  2  0
  6  7  1  0
  6  8  1  0
  8  9  2  0
  9 10  1  0
 10 11  1  0
 11 12  2  0
 11 13  1  0
 13 14  2  0
 14 15  1  0
 15 16  2  0
 16 17  1  0
 17 18  1  0
 17 19  2  0
 19 20  1  0
  9  2  1  0
 19 13  1  0
M  END
>  <ref_mols>  (45) 
7gov-a

>  <gnina_score>  (45) 
5.114

>  <smina_score_min>  (45) 
-5.895

>  <ref_pdb>  (45) 
7gov-a

>  <inspiration_score>  (45) 
None

>  <inchikey>  (45) 
RDMYNYYKWLUSBW-UHFFFAOYSA-N

>  <tags>  (45) 
BulkDock Fragalysis export,openbind_d68ev3c_c2_elabs_scored,openbind_d68ev3c_c2_elabs_scored_4.5plus,openbind_d68ev3c_c2_elabs,openbind_d68ev3c_c2_elabs_scored_5plus,syndirella_product,openbind_d68ev3c_c2_elabs_scored_top80percent,syndirella_placed

>  <smiles>  (45) 
Cc1c(F)cc(F)cc1NC(=O)c1ccnc(Br)c1Cl

>  <subsites>  (45) 
None

>  <rmsd(smina/fragmenstein)>  (45) 
1.081

>  <alias>  (45) 
None

>  <energy_score>  (45) 
-22.92271

>  <HIPPO Pose ID>  (45) 
64008

>  <distance_score>  (45) 
0.732231

>  <HIPPO Compound ID>  (45) 
100223

>  <gnina_score_min>  (45) 
5.055

>  <name>  (45) 
P64008

>  <exports>  (45) 
['/opt/xchem-fragalysis-2/maxwin/BulkDock/OUTPUTS/openbind_d68ev3c_c2_elabs_1LOTQJ3.sdf', '/opt/xchem-fragalysis-2/maxwin/BulkDock/OUTPUTS/openbind_d68ev3c_c2_elabs_1LSYEHW.sdf', '/opt/xchem-fragalysis-2/maxwin/BulkDock/OUTPUTS/openbind_d68ev3c_c2_elabs_1LSYI5W.sdf']

$$$$
P64010
     RDKit          3D

 20 21  0  0  0  0  0  0  0  0999 V2000
    2.8628   -3.7407   35.0892 C   0  0  0  0  0  0  0  0  0  0  0  0
    1.9869   -3.4793   36.2906 C   0  0  0  0  0  0  0  0  0  0  0  0
    2.4701   -2.7774   37.4085 C   0  0  0  0  0  0  0  0  0  0  0  0
    4.2160   -2.0216   37.4808 Br  0  0  0  0  0  0  0  0  0  0  0  0
    1.6691   -2.6032   38.5381 C   0  0  0  0  0  0  0  0  0  0  0  0
    0.3714   -3.0940   38.5429 C   0  0  0  0  0  0  0  0  0  0  0  0
   -0.3678   -2.9809   39.6523 F   0  0  0  0  0  0  0  0  0  0  0  0
   -0.1645   -3.7306   37.4383 C   0  0  0  0  0  0  0  0  0  0  0  0
    0.6582   -3.9571   36.3420 C   0  0  0  0  0  0  0  0  0  0  0  0
    0.1745   -4.7994   35.3611 N   0  0  0  0  0  0  0  0  0  0  0  0
    0.7349   -6.1167   34.8153 C   0  0  0  0  0  0  0  0  0  0  0  0
    1.6522   -6.7439   35.1557 O   0  0  0  0  0  0  0  0  0  0  0  0
   -0.0064   -6.5341   33.6168 C   0  0  0  0  0  0  0  0  0  0  0  0
    0.4458   -6.1058   32.3671 C   0  0  0  0  0  0  0  0  0  0  0  0
   -0.1843   -6.6025   31.2437 C   0  0  0  0  0  0  0  0  0  0  0  0
   -1.2120   -7.4679   31.2993 N   0  0  0  0  0  0  0  0  0  0  0  0
   -1.5951   -7.8740   32.5354 C   0  0  0  0  0  0  0  0  0  0  0  0
   -2.9519   -9.1549   32.5206 Br  0  0  0  0  0  0  0  0  0  0  0  0
   -1.0557   -7.4246   33.7291 C   0  0  0  0  0  0  0  0  0  0  0  0
   -1.6581   -7.8913   35.2718 Cl  0  0  0  0  0  0  0  0  0  0  0  0
  1  2  1  0
  2  3  2  0
  3  4  1  0
  3  5  1  0
  5  6  2  0
  6  7  1  0
  6  8  1  0
  8  9  2  0
  9 10  1  0
 10 11  1  0
 11 12  2  0
 11 13  1  0
 13 14  2  0
 14 15  1  0
 15 16  2  0
 16 17  1  0
 17 18  1  0
 17 19  2  0
 19 20  1  0
  9  2  1  0
 19 13  1  0
M  END
>  <ref_mols>  (46) 
7gov-a

>  <gnina_score>  (46) 
5.256

>  <smina_score_min>  (46) 
-4.383

>  <ref_pdb>  (46) 
7gov-a

>  <inspiration_score>  (46) 
None

>  <inchikey>  (46) 
AXMHVWPSYXYZDX-UHFFFAOYSA-N

>  <tags>  (46) 
BulkDock Fragalysis export,openbind_d68ev3c_c2_elabs_scored,openbind_d68ev3c_c2_elabs_scored_4.5plus,openbind_d68ev3c_c2_elabs,openbind_d68ev3c_c2_elabs_scored_5plus,syndirella_product,openbind_d68ev3c_c2_elabs_scored_top80percent,syndirella_placed

>  <smiles>  (46) 
Cc1c(Br)cc(F)cc1NC(=O)c1ccnc(Br)c1Cl

>  <subsites>  (46) 
None

>  <rmsd(smina/fragmenstein)>  (46) 
0.568

>  <alias>  (46) 
None

>  <energy_score>  (46) 
-5.078648

>  <HIPPO Pose ID>  (46) 
64010

>  <distance_score>  (46) 
0.80149

>  <HIPPO Compound ID>  (46) 
100226

>  <gnina_score_min>  (46) 
5.11

>  <name>  (46) 
P64010

>  <exports>  (46) 
['/opt/xchem-fragalysis-2/maxwin/BulkDock/OUTPUTS/openbind_d68ev3c_c2_elabs_1LOTQJ3.sdf', '/opt/xchem-fragalysis-2/maxwin/BulkDock/OUTPUTS/openbind_d68ev3c_c2_elabs_1LSYEHW.sdf', '/opt/xchem-fragalysis-2/maxwin/BulkDock/OUTPUTS/openbind_d68ev3c_c2_elabs_1LSYI5W.sdf']

$$$$
P64011
     RDKit          3D

 20 21  0  0  0  0  0  0  0  0999 V2000
    2.9253   -3.8418   34.6344 C   0  0  0  0  0  0  0  0  0  0  0  0
    2.1155   -3.7789   35.9003 C   0  0  0  0  0  0  0  0  0  0  0  0
    2.5680   -2.9612   36.9515 C   0  0  0  0  0  0  0  0  0  0  0  0
    1.8674   -2.9028   38.1559 C   0  0  0  0  0  0  0  0  0  0  0  0
    2.5239   -1.8260   39.5651 Br  0  0  0  0  0  0  0  0  0  0  0  0
    0.7001   -3.6397   38.3114 C   0  0  0  0  0  0  0  0  0  0  0  0
    0.0085   -3.5946   39.4604 F   0  0  0  0  0  0  0  0  0  0  0  0
    0.2226   -4.4356   37.2757 C   0  0  0  0  0  0  0  0  0  0  0  0
    0.9287   -4.5156   36.0718 C   0  0  0  0  0  0  0  0  0  0  0  0
    0.4378   -5.2982   35.0271 N   0  0  0  0  0  0  0  0  0  0  0  0
   -0.7213   -6.3141   34.9955 C   0  0  0  0  0  0  0  0  0  0  0  0
   -1.4990   -6.6012   35.8183 O   0  0  0  0  0  0  0  0  0  0  0  0
   -0.8839   -7.0073   33.6695 C   0  0  0  0  0  0  0  0  0  0  0  0
   -1.5696   -8.2326   33.7524 C   0  0  0  0  0  0  0  0  0  0  0  0
   -1.9165   -8.8869   32.5946 C   0  0  0  0  0  0  0  0  0  0  0  0
   -1.6032   -8.4378   31.3708 N   0  0  0  0  0  0  0  0  0  0  0  0
   -0.8892   -7.2850   31.2950 C   0  0  0  0  0  0  0  0  0  0  0  0
   -0.5001   -6.7656   29.5008 Br  0  0  0  0  0  0  0  0  0  0  0  0
   -0.5298   -6.5117   32.4034 C   0  0  0  0  0  0  0  0  0  0  0  0
    0.2161   -4.9699   32.1633 Cl  0  0  0  0  0  0  0  0  0  0  0  0
  1  2  1  0
  2  3  2  0
  3  4  1  0
  4  5  1  0
  4  6  2  0
  6  7  1  0
  6  8  1  0
  8  9  2  0
  9 10  1  0
 10 11  1  0
 11 12  2  0
 11 13  1  0
 13 14  2  0
 14 15  1  0
 15 16  2  0
 16 17  1  0
 17 18  1  0
 17 19  2  0
 19 20  1  0
  9  2  1  0
 19 13  1  0
M  END
>  <ref_mols>  (47) 
7gov-a

>  <gnina_score>  (47) 
5.208

>  <smina_score_min>  (47) 
-5.744

>  <ref_pdb>  (47) 
7gov-a

>  <inspiration_score>  (47) 
None

>  <inchikey>  (47) 
HCMFFKYSFABCTI-UHFFFAOYSA-N

>  <tags>  (47) 
BulkDock Fragalysis export,openbind_d68ev3c_c2_elabs_scored,openbind_d68ev3c_c2_elabs_scored_4.5plus,openbind_d68ev3c_c2_elabs,openbind_d68ev3c_c2_elabs_scored_5plus,syndirella_product,openbind_d68ev3c_c2_elabs_scored_top80percent,syndirella_placed

>  <smiles>  (47) 
Cc1cc(Br)c(F)cc1NC(=O)c1ccnc(Br)c1Cl

>  <subsites>  (47) 
None

>  <rmsd(smina/fragmenstein)>  (47) 
1.099

>  <alias>  (47) 
None

>  <energy_score>  (47) 
-17.467933

>  <HIPPO Pose ID>  (47) 
64011

>  <distance_score>  (47) 
0.734144

>  <HIPPO Compound ID>  (47) 
100227

>  <gnina_score_min>  (47) 
5.092

>  <name>  (47) 
P64011

>  <exports>  (47) 
['/opt/xchem-fragalysis-2/maxwin/BulkDock/OUTPUTS/openbind_d68ev3c_c2_elabs_1LOTQJ3.sdf', '/opt/xchem-fragalysis-2/maxwin/BulkDock/OUTPUTS/openbind_d68ev3c_c2_elabs_1LSYEHW.sdf', '/opt/xchem-fragalysis-2/maxwin/BulkDock/OUTPUTS/openbind_d68ev3c_c2_elabs_1LSYI5W.sdf']

$$$$
P64013
     RDKit          3D

 20 21  0  0  0  0  0  0  0  0999 V2000
    3.7195   -2.0002   36.8000 C   0  0  0  0  0  0  0  0  0  0  0  0
    2.5016   -2.8749   36.9240 C   0  0  0  0  0  0  0  0  0  0  0  0
    1.7505   -2.8040   38.1064 C   0  0  0  0  0  0  0  0  0  0  0  0
    0.6237   -3.5953   38.2676 C   0  0  0  0  0  0  0  0  0  0  0  0
   -0.0763   -3.5179   39.4076 F   0  0  0  0  0  0  0  0  0  0  0  0
    0.2062   -4.4564   37.2661 C   0  0  0  0  0  0  0  0  0  0  0  0
    0.9476   -4.5604   36.0874 C   0  0  0  0  0  0  0  0  0  0  0  0
    0.5080   -5.4113   35.0703 N   0  0  0  0  0  0  0  0  0  0  0  0
   -0.7041   -6.3632   35.0141 C   0  0  0  0  0  0  0  0  0  0  0  0
   -1.4840   -6.6456   35.8368 O   0  0  0  0  0  0  0  0  0  0  0  0
   -0.8828   -7.0335   33.6810 C   0  0  0  0  0  0  0  0  0  0  0  0
   -1.5785   -8.2536   33.7473 C   0  0  0  0  0  0  0  0  0  0  0  0
   -1.9276   -8.8890   32.5799 C   0  0  0  0  0  0  0  0  0  0  0  0
   -1.6073   -8.4256   31.3630 N   0  0  0  0  0  0  0  0  0  0  0  0
   -0.8869   -7.2753   31.3045 C   0  0  0  0  0  0  0  0  0  0  0  0
   -0.4852   -6.7350   29.5199 Br  0  0  0  0  0  0  0  0  0  0  0  0
   -0.5263   -6.5197   32.4238 C   0  0  0  0  0  0  0  0  0  0  0  0
    0.2222   -4.9752   32.2122 Cl  0  0  0  0  0  0  0  0  0  0  0  0
    2.1203   -3.7886   35.9100 C   0  0  0  0  0  0  0  0  0  0  0  0
    2.9428   -3.9233   34.6517 C   0  0  0  0  0  0  0  0  0  0  0  0
  1  2  1  0
  2  3  2  0
  3  4  1  0
  4  5  1  0
  4  6  2  0
  6  7  1  0
  7  8  1  0
  8  9  1  0
  9 10  2  0
  9 11  1  0
 11 12  2  0
 12 13  1  0
 13 14  2  0
 14 15  1  0
 15 16  1  0
 15 17  2  0
 17 18  1  0
  7 19  2  0
 19 20  1  0
 19  2  1  0
 17 11  1  0
M  END
>  <ref_mols>  (48) 
7gov-a

>  <gnina_score>  (48) 
5.101

>  <smina_score_min>  (48) 
-5.914

>  <ref_pdb>  (48) 
7gov-a

>  <inspiration_score>  (48) 
None

>  <inchikey>  (48) 
GRQCVLAMMLNLGW-UHFFFAOYSA-N

>  <tags>  (48) 
BulkDock Fragalysis export,openbind_d68ev3c_c2_elabs_scored,openbind_d68ev3c_c2_elabs_scored_4.5plus,openbind_d68ev3c_c2_elabs,openbind_d68ev3c_c2_elabs_scored_5plus,syndirella_product,openbind_d68ev3c_c2_elabs_scored_top80percent,syndirella_placed

>  <smiles>  (48) 
Cc1cc(F)cc(NC(=O)c2ccnc(Br)c2Cl)c1C

>  <subsites>  (48) 
None

>  <rmsd(smina/fragmenstein)>  (48) 
1.06

>  <alias>  (48) 
None

>  <energy_score>  (48) 
-21.335243

>  <HIPPO Pose ID>  (48) 
64013

>  <distance_score>  (48) 
0.736849

>  <HIPPO Compound ID>  (48) 
100231

>  <gnina_score_min>  (48) 
5.07

>  <name>  (48) 
P64013

>  <exports>  (48) 
['/opt/xchem-fragalysis-2/maxwin/BulkDock/OUTPUTS/openbind_d68ev3c_c2_elabs_1LOTQJ3.sdf', '/opt/xchem-fragalysis-2/maxwin/BulkDock/OUTPUTS/openbind_d68ev3c_c2_elabs_1LSYEHW.sdf', '/opt/xchem-fragalysis-2/maxwin/BulkDock/OUTPUTS/openbind_d68ev3c_c2_elabs_1LSYI5W.sdf']

$$$$
P64014
     RDKit          3D

 20 21  0  0  0  0  0  0  0  0999 V2000
    3.4938   -3.8347   33.6487 C   0  0  0  0  0  0  0  0  0  0  0  0
    2.8573   -3.7921   34.6662 C   0  0  0  0  0  0  0  0  0  0  0  0
    2.0998   -3.7423   35.8852 C   0  0  0  0  0  0  0  0  0  0  0  0
    2.5572   -2.9153   36.9192 C   0  0  0  0  0  0  0  0  0  0  0  0
    1.8620   -2.8510   38.1266 C   0  0  0  0  0  0  0  0  0  0  0  0
    0.7097   -3.6081   38.2921 C   0  0  0  0  0  0  0  0  0  0  0  0
    0.0457   -3.5478   39.4543 F   0  0  0  0  0  0  0  0  0  0  0  0
    0.2312   -4.4235   37.2728 C   0  0  0  0  0  0  0  0  0  0  0  0
    0.9274   -4.5006   36.0637 C   0  0  0  0  0  0  0  0  0  0  0  0
    0.4386   -5.2911   35.0206 N   0  0  0  0  0  0  0  0  0  0  0  0
   -0.7147   -6.3121   34.9940 C   0  0  0  0  0  0  0  0  0  0  0  0
   -1.4901   -6.6000   35.8185 O   0  0  0  0  0  0  0  0  0  0  0  0
   -0.8791   -7.0052   33.6684 C   0  0  0  0  0  0  0  0  0  0  0  0
   -1.5596   -8.2333   33.7531 C   0  0  0  0  0  0  0  0  0  0  0  0
   -1.9073   -8.8887   32.5961 C   0  0  0  0  0  0  0  0  0  0  0  0
   -1.5984   -8.4390   31.3715 N   0  0  0  0  0  0  0  0  0  0  0  0
   -0.8891   -7.2830   31.2941 C   0  0  0  0  0  0  0  0  0  0  0  0
   -0.5015   -6.7652   29.4990 Br  0  0  0  0  0  0  0  0  0  0  0  0
   -0.5327   -6.5067   32.4013 C   0  0  0  0  0  0  0  0  0  0  0  0
    0.1934   -4.9560   32.1581 Cl  0  0  0  0  0  0  0  0  0  0  0  0
  1  2  3  0
  2  3  1  0
  3  4  2  0
  4  5  1  0
  5  6  2  0
  6  7  1  0
  6  8  1  0
  8  9  2  0
  9 10  1  0
 10 11  1  0
 11 12  2  0
 11 13  1  0
 13 14  2  0
 14 15  1  0
 15 16  2  0
 16 17  1  0
 17 18  1  0
 17 19  2  0
 19 20  1  0
  9  3  1  0
 19 13  1  0
M  END
>  <ref_mols>  (49) 
7gov-a

>  <gnina_score>  (49) 
5.123

>  <smina_score_min>  (49) 
-5.722

>  <ref_pdb>  (49) 
7gov-a

>  <inspiration_score>  (49) 
None

>  <inchikey>  (49) 
YLWYFGHAFQTZKY-UHFFFAOYSA-N

>  <tags>  (49) 
BulkDock Fragalysis export,openbind_d68ev3c_c2_elabs_scored,openbind_d68ev3c_c2_elabs_scored_4.5plus,openbind_d68ev3c_c2_elabs,openbind_d68ev3c_c2_elabs_scored_5plus,syndirella_product,openbind_d68ev3c_c2_elabs_scored_top80percent,syndirella_placed

>  <smiles>  (49) 
C#Cc1ccc(F)cc1NC(=O)c1ccnc(Br)c1Cl

>  <subsites>  (49) 
None

>  <rmsd(smina/fragmenstein)>  (49) 
1.073

>  <alias>  (49) 
None

>  <energy_score>  (49) 
-17.635465

>  <HIPPO Pose ID>  (49) 
64014

>  <distance_score>  (49) 
0.735271

>  <HIPPO Compound ID>  (49) 
100235

>  <gnina_score_min>  (49) 
5.068

>  <name>  (49) 
P64014

>  <exports>  (49) 
['/opt/xchem-fragalysis-2/maxwin/BulkDock/OUTPUTS/openbind_d68ev3c_c2_elabs_1LOTQJ3.sdf', '/opt/xchem-fragalysis-2/maxwin/BulkDock/OUTPUTS/openbind_d68ev3c_c2_elabs_1LSYEHW.sdf', '/opt/xchem-fragalysis-2/maxwin/BulkDock/OUTPUTS/openbind_d68ev3c_c2_elabs_1LSYI5W.sdf']

$$$$
P64016
     RDKit          3D

 20 21  0  0  0  0  0  0  0  0999 V2000
    3.9855   -1.7166   37.1467 C   0  0  0  0  0  0  0  0  0  0  0  0
    2.7656   -2.5965   37.1827 C   0  0  0  0  0  0  0  0  0  0  0  0
    1.9719   -2.5852   38.3406 C   0  0  0  0  0  0  0  0  0  0  0  0
    0.8450   -3.3874   38.4255 C   0  0  0  0  0  0  0  0  0  0  0  0
    0.1024   -3.3719   39.5406 F   0  0  0  0  0  0  0  0  0  0  0  0
    0.4701   -4.1962   37.3696 C   0  0  0  0  0  0  0  0  0  0  0  0
    1.2552   -4.2371   36.2147 C   0  0  0  0  0  0  0  0  0  0  0  0
    0.8471   -5.0405   35.1532 N   0  0  0  0  0  0  0  0  0  0  0  0
   -0.3292   -6.0200   35.0381 C   0  0  0  0  0  0  0  0  0  0  0  0
   -1.1023   -6.3711   35.8384 O   0  0  0  0  0  0  0  0  0  0  0  0
   -0.4974   -6.6019   33.6594 C   0  0  0  0  0  0  0  0  0  0  0  0
   -1.3569   -7.7031   33.6481 C   0  0  0  0  0  0  0  0  0  0  0  0
   -1.7566   -8.2072   32.4397 C   0  0  0  0  0  0  0  0  0  0  0  0
   -3.0132   -9.3210   32.3890 Cl  0  0  0  0  0  0  0  0  0  0  0  0
   -1.3324   -7.7998   31.2371 N   0  0  0  0  0  0  0  0  0  0  0  0
   -0.4370   -6.7938   31.2650 C   0  0  0  0  0  0  0  0  0  0  0  0
   -0.0183   -6.1375   32.4257 C   0  0  0  0  0  0  0  0  0  0  0  0
    1.0813   -4.6269   32.1343 Br  0  0  0  0  0  0  0  0  0  0  0  0
    2.4293   -3.4629   36.1147 C   0  0  0  0  0  0  0  0  0  0  0  0
    3.3081   -3.5534   34.8932 C   0  0  0  0  0  0  0  0  0  0  0  0
  1  2  1  0
  2  3  2  0
  3  4  1  0
  4  5  1  0
  4  6  2  0
  6  7  1  0
  7  8  1  0
  8  9  1  0
  9 10  2  0
  9 11  1  0
 11 12  2  0
 12 13  1  0
 13 14  1  0
 13 15  2  0
 15 16  1  0
 16 17  2  0
 17 18  1  0
  7 19  2  0
 19 20  1  0
 19  2  1  0
 17 11  1  0
M  END
>  <ref_mols>  (50) 
7gov-a

>  <gnina_score>  (50) 
5.083

>  <smina_score_min>  (50) 
-5.412

>  <ref_pdb>  (50) 
7gov-a

>  <inspiration_score>  (50) 
None

>  <inchikey>  (50) 
ASVOQDTXFXRZHD-UHFFFAOYSA-N

>  <tags>  (50) 
BulkDock Fragalysis export,openbind_d68ev3c_c2_elabs_scored,openbind_d68ev3c_c2_elabs_scored_4.5plus,openbind_d68ev3c_c2_elabs,openbind_d68ev3c_c2_elabs_scored_5plus,syndirella_product,openbind_d68ev3c_c2_elabs_scored_top80percent,syndirella_placed

>  <smiles>  (50) 
Cc1cc(F)cc(NC(=O)c2cc(Cl)ncc2Br)c1C

>  <subsites>  (50) 
None

>  <rmsd(smina/fragmenstein)>  (50) 
1.26

>  <alias>  (50) 
None

>  <energy_score>  (50) 
-32.706182

>  <HIPPO Pose ID>  (50) 
64016

>  <distance_score>  (50) 
0.852569

>  <HIPPO Compound ID>  (50) 
100237

>  <gnina_score_min>  (50) 
5.031

>  <name>  (50) 
P64016

>  <exports>  (50) 
['/opt/xchem-fragalysis-2/maxwin/BulkDock/OUTPUTS/openbind_d68ev3c_c2_elabs_1LOTQJ3.sdf', '/opt/xchem-fragalysis-2/maxwin/BulkDock/OUTPUTS/openbind_d68ev3c_c2_elabs_1LSYEHW.sdf', '/opt/xchem-fragalysis-2/maxwin/BulkDock/OUTPUTS/openbind_d68ev3c_c2_elabs_1LSYI5W.sdf']

$$$$
P64017
     RDKit          3D

 20 21  0  0  0  0  0  0  0  0999 V2000
    2.4931   -3.4944   34.4316 C   0  0  0  0  0  0  0  0  0  0  0  0
    1.8515   -3.5399   35.7901 C   0  0  0  0  0  0  0  0  0  0  0  0
    2.3603   -2.7323   36.8200 C   0  0  0  0  0  0  0  0  0  0  0  0
    1.8355   -2.8218   38.1065 C   0  0  0  0  0  0  0  0  0  0  0  0
    2.3240   -2.0290   39.0713 F   0  0  0  0  0  0  0  0  0  0  0  0
    0.8129   -3.7160   38.3866 C   0  0  0  0  0  0  0  0  0  0  0  0
    0.2894   -3.7809   39.6189 F   0  0  0  0  0  0  0  0  0  0  0  0
    0.3082   -4.5393   37.3890 C   0  0  0  0  0  0  0  0  0  0  0  0
    0.8165   -4.4428   36.0907 C   0  0  0  0  0  0  0  0  0  0  0  0
    0.2748   -5.2425   35.0930 N   0  0  0  0  0  0  0  0  0  0  0  0
   -0.3866   -6.6359   35.1729 C   0  0  0  0  0  0  0  0  0  0  0  0
   -0.6486   -7.2951   36.0972 O   0  0  0  0  0  0  0  0  0  0  0  0
   -0.8046   -7.1626   33.8187 C   0  0  0  0  0  0  0  0  0  0  0  0
   -0.1778   -6.7238   32.6438 C   0  0  0  0  0  0  0  0  0  0  0  0
   -0.6746   -7.1543   31.4266 C   0  0  0  0  0  0  0  0  0  0  0  0
   -0.1830   -6.4004   29.9712 Cl  0  0  0  0  0  0  0  0  0  0  0  0
   -1.6636   -8.0554   31.2779 N   0  0  0  0  0  0  0  0  0  0  0  0
   -2.1907   -8.5346   32.4223 C   0  0  0  0  0  0  0  0  0  0  0  0
   -1.8414   -8.1006   33.6933 C   0  0  0  0  0  0  0  0  0  0  0  0
   -2.9687   -8.7363   35.0724 Br  0  0  0  0  0  0  0  0  0  0  0  0
  1  2  1  0
  2  3  2  0
  3  4  1  0
  4  5  1  0
  4  6  2  0
  6  7  1  0
  6  8  1  0
  8  9  2  0
  9 10  1  0
 10 11  1  0
 11 12  2  0
 11 13  1  0
 13 14  2  0
 14 15  1  0
 15 16  1  0
 15 17  2  0
 17 18  1  0
 18 19  2  0
 19 20  1  0
  9  2  1  0
 19 13  1  0
M  END
>  <ref_mols>  (51) 
7gov-a

>  <gnina_score>  (51) 
5.195

>  <smina_score_min>  (51) 
-5.94

>  <ref_pdb>  (51) 
7gov-a

>  <inspiration_score>  (51) 
None

>  <inchikey>  (51) 
YCPVHSYWOQWALY-UHFFFAOYSA-N

>  <tags>  (51) 
BulkDock Fragalysis export,openbind_d68ev3c_c2_elabs_scored,openbind_d68ev3c_c2_elabs_scored_4.5plus,openbind_d68ev3c_c2_elabs,openbind_d68ev3c_c2_elabs_scored_5plus,syndirella_product,openbind_d68ev3c_c2_elabs_scored_top80percent,syndirella_placed

>  <smiles>  (51) 
Cc1cc(F)c(F)cc1NC(=O)c1cc(Cl)ncc1Br

>  <subsites>  (51) 
None

>  <rmsd(smina/fragmenstein)>  (51) 
0.963

>  <alias>  (51) 
None

>  <energy_score>  (51) 
-8.155386

>  <HIPPO Pose ID>  (51) 
64017

>  <distance_score>  (51) 
0.609205

>  <HIPPO Compound ID>  (51) 
100238

>  <gnina_score_min>  (51) 
5.23

>  <name>  (51) 
P64017

>  <exports>  (51) 
['/opt/xchem-fragalysis-2/maxwin/BulkDock/OUTPUTS/openbind_d68ev3c_c2_elabs_1LOTQJ3.sdf', '/opt/xchem-fragalysis-2/maxwin/BulkDock/OUTPUTS/openbind_d68ev3c_c2_elabs_1LSYEHW.sdf', '/opt/xchem-fragalysis-2/maxwin/BulkDock/OUTPUTS/openbind_d68ev3c_c2_elabs_1LSYI5W.sdf']

$$$$
P64033
     RDKit          3D

 20 21  0  0  0  0  0  0  0  0999 V2000
    2.9083   -3.3541   33.3590 C   0  0  0  0  0  0  0  0  0  0  0  0
    2.4191   -3.4225   34.4538 C   0  0  0  0  0  0  0  0  0  0  0  0
    1.8333   -3.5036   35.7622 C   0  0  0  0  0  0  0  0  0  0  0  0
    2.3397   -2.6897   36.7824 C   0  0  0  0  0  0  0  0  0  0  0  0
    1.8225   -2.7829   38.0761 C   0  0  0  0  0  0  0  0  0  0  0  0
    0.8142   -3.7000   38.3474 C   0  0  0  0  0  0  0  0  0  0  0  0
    0.3042   -3.7728   39.5842 F   0  0  0  0  0  0  0  0  0  0  0  0
    0.3152   -4.5317   37.3537 C   0  0  0  0  0  0  0  0  0  0  0  0
    0.8154   -4.4259   36.0547 C   0  0  0  0  0  0  0  0  0  0  0  0
    0.2733   -5.2272   35.0545 N   0  0  0  0  0  0  0  0  0  0  0  0
   -0.3154   -6.6517   35.1207 C   0  0  0  0  0  0  0  0  0  0  0  0
   -0.5088   -7.3466   36.0355 O   0  0  0  0  0  0  0  0  0  0  0  0
   -0.7610   -7.1628   33.7733 C   0  0  0  0  0  0  0  0  0  0  0  0
   -0.1525   -6.7235   32.5899 C   0  0  0  0  0  0  0  0  0  0  0  0
   -0.6713   -7.1529   31.3822 C   0  0  0  0  0  0  0  0  0  0  0  0
   -0.1962   -6.4110   29.9153 Cl  0  0  0  0  0  0  0  0  0  0  0  0
   -1.6681   -8.0489   31.2509 N   0  0  0  0  0  0  0  0  0  0  0  0
   -2.1823   -8.5223   32.4034 C   0  0  0  0  0  0  0  0  0  0  0  0
   -1.8088   -8.0904   33.6670 C   0  0  0  0  0  0  0  0  0  0  0  0
   -2.9187   -8.7094   35.0667 Br  0  0  0  0  0  0  0  0  0  0  0  0
  1  2  3  0
  2  3  1  0
  3  4  2  0
  4  5  1  0
  5  6  2  0
  6  7  1  0
  6  8  1  0
  8  9  2  0
  9 10  1  0
 10 11  1  0
 11 12  2  0
 11 13  1  0
 13 14  2  0
 14 15  1  0
 15 16  1  0
 15 17  2  0
 17 18  1  0
 18 19  2  0
 19 20  1  0
  9  3  1  0
 19 13  1  0
M  END
>  <ref_mols>  (52) 
7gov-a

>  <gnina_score>  (52) 
5.236

>  <smina_score_min>  (52) 
-5.703

>  <ref_pdb>  (52) 
7gov-a

>  <inspiration_score>  (52) 
None

>  <inchikey>  (52) 
HTTMBDLAUSRMSX-UHFFFAOYSA-N

>  <tags>  (52) 
BulkDock Fragalysis export,openbind_d68ev3c_c2_elabs_scored,openbind_d68ev3c_c2_elabs_scored_4.5plus,openbind_d68ev3c_c2_elabs,openbind_d68ev3c_c2_elabs_scored_5plus,syndirella_product,openbind_d68ev3c_c2_elabs_scored_top80percent,syndirella_placed

>  <smiles>  (52) 
C#Cc1ccc(F)cc1NC(=O)c1cc(Cl)ncc1Br

>  <subsites>  (52) 
None

>  <rmsd(smina/fragmenstein)>  (52) 
1.018

>  <alias>  (52) 
None

>  <energy_score>  (52) 
-19.65286

>  <HIPPO Pose ID>  (52) 
64033

>  <distance_score>  (52) 
0.582277

>  <HIPPO Compound ID>  (52) 
100257

>  <gnina_score_min>  (52) 
5.237

>  <name>  (52) 
P64033

>  <exports>  (52) 
['/opt/xchem-fragalysis-2/maxwin/BulkDock/OUTPUTS/openbind_d68ev3c_c2_elabs_1LOTQJ3.sdf', '/opt/xchem-fragalysis-2/maxwin/BulkDock/OUTPUTS/openbind_d68ev3c_c2_elabs_1LSYEHW.sdf', '/opt/xchem-fragalysis-2/maxwin/BulkDock/OUTPUTS/openbind_d68ev3c_c2_elabs_1LSYI5W.sdf']

$$$$
P64034
     RDKit          3D

 20 21  0  0  0  0  0  0  0  0999 V2000
    2.5490   -3.5421   34.4684 C   0  0  0  0  0  0  0  0  0  0  0  0
    1.8936   -3.5567   35.8252 C   0  0  0  0  0  0  0  0  0  0  0  0
    2.3568   -2.7309   36.8704 C   0  0  0  0  0  0  0  0  0  0  0  0
    3.7495   -1.4565   36.6239 Br  0  0  0  0  0  0  0  0  0  0  0  0
    1.7940   -2.7982   38.1475 C   0  0  0  0  0  0  0  0  0  0  0  0
    0.7625   -3.6893   38.3918 C   0  0  0  0  0  0  0  0  0  0  0  0
    0.2139   -3.7454   39.6126 F   0  0  0  0  0  0  0  0  0  0  0  0
    0.2700   -4.5024   37.3848 C   0  0  0  0  0  0  0  0  0  0  0  0
    0.8143   -4.4206   36.1007 C   0  0  0  0  0  0  0  0  0  0  0  0
    0.2451   -5.2019   35.0994 N   0  0  0  0  0  0  0  0  0  0  0  0
   -0.4295   -6.5900   35.1714 C   0  0  0  0  0  0  0  0  0  0  0  0
   -0.6818   -7.2602   36.0912 O   0  0  0  0  0  0  0  0  0  0  0  0
   -0.8227   -7.1267   33.8134 C   0  0  0  0  0  0  0  0  0  0  0  0
   -0.1641   -6.7157   32.6480 C   0  0  0  0  0  0  0  0  0  0  0  0
   -0.5590   -7.2484   31.4371 C   0  0  0  0  0  0  0  0  0  0  0  0
    0.0423   -6.8052   30.3028 O   0  0  0  0  0  0  0  0  0  0  0  0
   -1.4974   -8.1887   31.2721 N   0  0  0  0  0  0  0  0  0  0  0  0
   -2.0993   -8.5986   32.4097 C   0  0  0  0  0  0  0  0  0  0  0  0
   -1.8291   -8.0959   33.6775 C   0  0  0  0  0  0  0  0  0  0  0  0
   -2.9813   -8.7230   35.0418 Br  0  0  0  0  0  0  0  0  0  0  0  0
  1  2  1  0
  2  3  2  0
  3  4  1  0
  3  5  1  0
  5  6  2  0
  6  7  1  0
  6  8  1  0
  8  9  2  0
  9 10  1  0
 10 11  1  0
 11 12  2  0
 11 13  1  0
 13 14  2  0
 14 15  1  0
 15 16  1  0
 15 17  2  0
 17 18  1  0
 18 19  2  0
 19 20  1  0
  9  2  1  0
 19 13  1  0
M  END
>  <ref_mols>  (53) 
7gov-a

>  <gnina_score>  (53) 
5.036

>  <smina_score_min>  (53) 
-6.199

>  <ref_pdb>  (53) 
7gov-a

>  <inspiration_score>  (53) 
None

>  <inchikey>  (53) 
VSRFOJXULUTULB-UHFFFAOYSA-N

>  <tags>  (53) 
BulkDock Fragalysis export,openbind_d68ev3c_c2_elabs_scored,openbind_d68ev3c_c2_elabs_scored_4.5plus,openbind_d68ev3c_c2_elabs,openbind_d68ev3c_c2_elabs_scored_5plus,syndirella_product,openbind_d68ev3c_c2_elabs_scored_top80percent,syndirella_placed

>  <smiles>  (53) 
Cc1c(Br)cc(F)cc1NC(=O)c1cc(O)ncc1Br

>  <subsites>  (53) 
None

>  <rmsd(smina/fragmenstein)>  (53) 
0.925

>  <alias>  (53) 
None

>  <energy_score>  (53) 
-22.054682

>  <HIPPO Pose ID>  (53) 
64034

>  <distance_score>  (53) 
0.609671

>  <HIPPO Compound ID>  (53) 
100258

>  <gnina_score_min>  (53) 
5.031

>  <name>  (53) 
P64034

>  <exports>  (53) 
['/opt/xchem-fragalysis-2/maxwin/BulkDock/OUTPUTS/openbind_d68ev3c_c2_elabs_1LOTQJ3.sdf', '/opt/xchem-fragalysis-2/maxwin/BulkDock/OUTPUTS/openbind_d68ev3c_c2_elabs_1LSYEHW.sdf', '/opt/xchem-fragalysis-2/maxwin/BulkDock/OUTPUTS/openbind_d68ev3c_c2_elabs_1LSYI5W.sdf']

$$$$
P64041
     RDKit          3D

 20 21  0  0  0  0  0  0  0  0999 V2000
    3.6253   -4.5165   34.2880 C   0  0  0  0  0  0  0  0  0  0  0  0
    2.5753   -3.4251   34.4395 C   0  0  0  0  0  0  0  0  0  0  0  0
    1.8578   -3.5014   35.7681 C   0  0  0  0  0  0  0  0  0  0  0  0
    2.2993   -2.6783   36.8195 C   0  0  0  0  0  0  0  0  0  0  0  0
    1.7362   -2.7820   38.0914 C   0  0  0  0  0  0  0  0  0  0  0  0
    0.7425   -3.7216   38.3240 C   0  0  0  0  0  0  0  0  0  0  0  0
    0.1950   -3.8133   39.5436 F   0  0  0  0  0  0  0  0  0  0  0  0
    0.3014   -4.5611   37.3107 C   0  0  0  0  0  0  0  0  0  0  0  0
    0.8484   -4.4448   36.0312 C   0  0  0  0  0  0  0  0  0  0  0  0
    0.3797   -5.2707   35.0169 N   0  0  0  0  0  0  0  0  0  0  0  0
   -0.2475   -6.6791   35.0805 C   0  0  0  0  0  0  0  0  0  0  0  0
   -0.3985   -7.3979   35.9849 O   0  0  0  0  0  0  0  0  0  0  0  0
   -0.7341   -7.1662   33.7409 C   0  0  0  0  0  0  0  0  0  0  0  0
   -0.1399   -6.7311   32.5490 C   0  0  0  0  0  0  0  0  0  0  0  0
   -0.6793   -7.1581   31.3500 C   0  0  0  0  0  0  0  0  0  0  0  0
   -0.2140   -6.4315   29.8727 Cl  0  0  0  0  0  0  0  0  0  0  0  0
   -1.6863   -8.0445   31.2354 N   0  0  0  0  0  0  0  0  0  0  0  0
   -2.1906   -8.5100   32.3954 C   0  0  0  0  0  0  0  0  0  0  0  0
   -1.7939   -8.0809   33.6520 C   0  0  0  0  0  0  0  0  0  0  0  0
   -2.8853   -8.6871   35.0704 Br  0  0  0  0  0  0  0  0  0  0  0  0
  1  2  1  0
  2  3  1  0
  3  4  2  0
  4  5  1  0
  5  6  2  0
  6  7  1  0
  6  8  1  0
  8  9  2  0
  9 10  1  0
 10 11  1  0
 11 12  2  0
 11 13  1  0
 13 14  2  0
 14 15  1  0
 15 16  1  0
 15 17  2  0
 17 18  1  0
 18 19  2  0
 19 20  1  0
  9  3  1  0
 19 13  1  0
M  END
>  <ref_mols>  (54) 
7gov-a

>  <gnina_score>  (54) 
5.188

>  <smina_score_min>  (54) 
-5.411

>  <ref_pdb>  (54) 
7gov-a

>  <inspiration_score>  (54) 
None

>  <inchikey>  (54) 
MBZHSVNDGAPBJY-UHFFFAOYSA-N

>  <tags>  (54) 
BulkDock Fragalysis export,openbind_d68ev3c_c2_elabs_scored,openbind_d68ev3c_c2_elabs_scored_4.5plus,openbind_d68ev3c_c2_elabs,openbind_d68ev3c_c2_elabs_scored_5plus,syndirella_product,openbind_d68ev3c_c2_elabs_scored_top80percent,syndirella_placed

>  <smiles>  (54) 
CCc1ccc(F)cc1NC(=O)c1cc(Cl)ncc1Br

>  <subsites>  (54) 
None

>  <rmsd(smina/fragmenstein)>  (54) 
1.159

>  <alias>  (54) 
None

>  <energy_score>  (54) 
-17.279472

>  <HIPPO Pose ID>  (54) 
64041

>  <distance_score>  (54) 
0.548593

>  <HIPPO Compound ID>  (54) 
100267

>  <gnina_score_min>  (54) 
5.233

>  <name>  (54) 
P64041

>  <exports>  (54) 
['/opt/xchem-fragalysis-2/maxwin/BulkDock/OUTPUTS/openbind_d68ev3c_c2_elabs_1LOTQJ3.sdf', '/opt/xchem-fragalysis-2/maxwin/BulkDock/OUTPUTS/openbind_d68ev3c_c2_elabs_1LSYEHW.sdf', '/opt/xchem-fragalysis-2/maxwin/BulkDock/OUTPUTS/openbind_d68ev3c_c2_elabs_1LSYI5W.sdf']

$$$$
P64042
     RDKit          3D

 20 21  0  0  0  0  0  0  0  0999 V2000
    2.9958   -3.7698   35.1498 C   0  0  0  0  0  0  0  0  0  0  0  0
    2.0617   -3.4984   36.3005 C   0  0  0  0  0  0  0  0  0  0  0  0
    2.5583   -2.8373   37.4314 C   0  0  0  0  0  0  0  0  0  0  0  0
    1.7388   -2.6364   38.5395 C   0  0  0  0  0  0  0  0  0  0  0  0
    2.4542   -1.8263   40.0917 Br  0  0  0  0  0  0  0  0  0  0  0  0
    0.4092   -3.0486   38.5039 C   0  0  0  0  0  0  0  0  0  0  0  0
   -0.3725   -2.9278   39.5855 F   0  0  0  0  0  0  0  0  0  0  0  0
   -0.1248   -3.6481   37.3719 C   0  0  0  0  0  0  0  0  0  0  0  0
    0.7199   -3.9161   36.3011 C   0  0  0  0  0  0  0  0  0  0  0  0
    0.2637   -4.7804   35.3285 N   0  0  0  0  0  0  0  0  0  0  0  0
    0.8141   -6.1319   34.8602 C   0  0  0  0  0  0  0  0  0  0  0  0
    1.7823   -6.6976   35.1650 O   0  0  0  0  0  0  0  0  0  0  0  0
   -0.1041   -6.7630   33.9136 C   0  0  0  0  0  0  0  0  0  0  0  0
   -1.0348   -7.6082   34.4921 C   0  0  0  0  0  0  0  0  0  0  0  0
   -1.9230   -8.2207   33.6492 C   0  0  0  0  0  0  0  0  0  0  0  0
   -3.2581   -8.9879   34.3777 Cl  0  0  0  0  0  0  0  0  0  0  0  0
   -1.9168   -8.1117   32.2994 N   0  0  0  0  0  0  0  0  0  0  0  0
   -0.9622   -7.2967   31.7758 C   0  0  0  0  0  0  0  0  0  0  0  0
   -0.0606   -6.5689   32.5371 C   0  0  0  0  0  0  0  0  0  0  0  0
    1.1002   -5.3468   31.6876 Br  0  0  0  0  0  0  0  0  0  0  0  0
  1  2  1  0
  2  3  2  0
  3  4  1  0
  4  5  1  0
  4  6  2  0
  6  7  1  0
  6  8  1  0
  8  9  2  0
  9 10  1  0
 10 11  1  0
 11 12  2  0
 11 13  1  0
 13 14  2  0
 14 15  1  0
 15 16  1  0
 15 17  2  0
 17 18  1  0
 18 19  2  0
 19 20  1  0
  9  2  1  0
 19 13  1  0
M  END
>  <ref_mols>  (55) 
7gov-a

>  <gnina_score>  (55) 
4.984

>  <smina_score_min>  (55) 
-6.074

>  <ref_pdb>  (55) 
7gov-a

>  <inspiration_score>  (55) 
None

>  <inchikey>  (55) 
FARFPVSWVOLHIE-UHFFFAOYSA-N

>  <tags>  (55) 
BulkDock Fragalysis export,openbind_d68ev3c_c2_elabs_scored,openbind_d68ev3c_c2_elabs_scored_4.5plus,openbind_d68ev3c_c2_elabs,openbind_d68ev3c_c2_elabs_scored_5plus,syndirella_product,openbind_d68ev3c_c2_elabs_scored_top80percent,syndirella_placed

>  <smiles>  (55) 
Cc1cc(Br)c(F)cc1NC(=O)c1cc(Cl)ncc1Br

>  <subsites>  (55) 
None

>  <rmsd(smina/fragmenstein)>  (55) 
1.271

>  <alias>  (55) 
None

>  <energy_score>  (55) 
-4.028655

>  <HIPPO Pose ID>  (55) 
64042

>  <distance_score>  (55) 
0.764212

>  <HIPPO Compound ID>  (55) 
100268

>  <gnina_score_min>  (55) 
5.106

>  <name>  (55) 
P64042

>  <exports>  (55) 
['/opt/xchem-fragalysis-2/maxwin/BulkDock/OUTPUTS/openbind_d68ev3c_c2_elabs_1LOTQJ3.sdf', '/opt/xchem-fragalysis-2/maxwin/BulkDock/OUTPUTS/openbind_d68ev3c_c2_elabs_1LSYEHW.sdf', '/opt/xchem-fragalysis-2/maxwin/BulkDock/OUTPUTS/openbind_d68ev3c_c2_elabs_1LSYI5W.sdf']

$$$$
P64043
     RDKit          3D

 20 21  0  0  0  0  0  0  0  0999 V2000
    3.8435   -4.9481   34.4426 C   0  0  0  0  0  0  0  0  0  0  0  0
    2.8974   -3.7580   34.4841 C   0  0  0  0  0  0  0  0  0  0  0  0
    2.1167   -3.6917   35.7762 C   0  0  0  0  0  0  0  0  0  0  0  0
    2.6032   -2.8675   36.8087 C   0  0  0  0  0  0  0  0  0  0  0  0
    1.9434   -2.7899   38.0351 C   0  0  0  0  0  0  0  0  0  0  0  0
    0.7920   -3.5342   38.2359 C   0  0  0  0  0  0  0  0  0  0  0  0
    0.1582   -3.4666   39.4150 F   0  0  0  0  0  0  0  0  0  0  0  0
    0.2862   -4.3499   37.2338 C   0  0  0  0  0  0  0  0  0  0  0  0
    0.9493   -4.4437   36.0054 C   0  0  0  0  0  0  0  0  0  0  0  0
    0.4285   -5.2697   35.0089 N   0  0  0  0  0  0  0  0  0  0  0  0
   -0.7379   -6.2796   35.0521 C   0  0  0  0  0  0  0  0  0  0  0  0
   -1.4943   -6.5232   35.9045 O   0  0  0  0  0  0  0  0  0  0  0  0
   -0.9459   -7.0114   33.7436 C   0  0  0  0  0  0  0  0  0  0  0  0
   -0.3153   -6.6030   32.5626 C   0  0  0  0  0  0  0  0  0  0  0  0
    0.5498   -5.5791   32.5324 F   0  0  0  0  0  0  0  0  0  0  0  0
   -0.5983   -7.2432   31.3644 C   0  0  0  0  0  0  0  0  0  0  0  0
   -1.4759   -8.2616   31.2446 N   0  0  0  0  0  0  0  0  0  0  0  0
   -2.0568   -8.6688   32.3927 C   0  0  0  0  0  0  0  0  0  0  0  0
   -1.8469   -8.0869   33.6386 C   0  0  0  0  0  0  0  0  0  0  0  0
   -2.9411   -8.7990   35.0126 Br  0  0  0  0  0  0  0  0  0  0  0  0
  1  2  1  0
  2  3  1  0
  3  4  2  0
  4  5  1  0
  5  6  2  0
  6  7  1  0
  6  8  1  0
  8  9  2  0
  9 10  1  0
 10 11  1  0
 11 12  2  0
 11 13  1  0
 13 14  2  0
 14 15  1  0
 14 16  1  0
 16 17  2  0
 17 18  1  0
 18 19  2  0
 19 20  1  0
  9  3  1  0
 19 13  1  0
M  END
>  <ref_mols>  (56) 
7gov-a

>  <gnina_score>  (56) 
5.122

>  <smina_score_min>  (56) 
-5.315

>  <ref_pdb>  (56) 
7gov-a

>  <inspiration_score>  (56) 
None

>  <inchikey>  (56) 
FNRGVIPYTPSGCH-UHFFFAOYSA-N

>  <tags>  (56) 
BulkDock Fragalysis export,openbind_d68ev3c_c2_elabs_scored,openbind_d68ev3c_c2_elabs_scored_4.5plus,openbind_d68ev3c_c2_elabs,openbind_d68ev3c_c2_elabs_scored_5plus,syndirella_product,openbind_d68ev3c_c2_elabs_scored_top80percent,syndirella_placed

>  <smiles>  (56) 
CCc1ccc(F)cc1NC(=O)c1c(F)cncc1Br

>  <subsites>  (56) 
None

>  <rmsd(smina/fragmenstein)>  (56) 
1.785

>  <alias>  (56) 
None

>  <energy_score>  (56) 
-32.960418

>  <HIPPO Pose ID>  (56) 
64043

>  <distance_score>  (56) 
0.775008

>  <HIPPO Compound ID>  (56) 
100269

>  <gnina_score_min>  (56) 
5.136

>  <name>  (56) 
P64043

>  <exports>  (56) 
['/opt/xchem-fragalysis-2/maxwin/BulkDock/OUTPUTS/openbind_d68ev3c_c2_elabs_1LOTQJ3.sdf', '/opt/xchem-fragalysis-2/maxwin/BulkDock/OUTPUTS/openbind_d68ev3c_c2_elabs_1LSYEHW.sdf', '/opt/xchem-fragalysis-2/maxwin/BulkDock/OUTPUTS/openbind_d68ev3c_c2_elabs_1LSYI5W.sdf']

$$$$
P64045
     RDKit          3D

 20 21  0  0  0  0  0  0  0  0999 V2000
    3.7354   -2.0181   36.7893 C   0  0  0  0  0  0  0  0  0  0  0  0
    2.5168   -2.8919   36.9148 C   0  0  0  0  0  0  0  0  0  0  0  0
    1.7523   -2.8006   38.0867 C   0  0  0  0  0  0  0  0  0  0  0  0
    0.6261   -3.5920   38.2489 C   0  0  0  0  0  0  0  0  0  0  0  0
   -0.0847   -3.4992   39.3811 F   0  0  0  0  0  0  0  0  0  0  0  0
    0.2204   -4.4685   37.2559 C   0  0  0  0  0  0  0  0  0  0  0  0
    0.9744   -4.5920   36.0862 C   0  0  0  0  0  0  0  0  0  0  0  0
    0.5354   -5.4551   35.0771 N   0  0  0  0  0  0  0  0  0  0  0  0
   -0.7525   -6.2998   34.9699 C   0  0  0  0  0  0  0  0  0  0  0  0
   -1.6132   -6.4682   35.7404 O   0  0  0  0  0  0  0  0  0  0  0  0
   -0.9066   -6.9698   33.6407 C   0  0  0  0  0  0  0  0  0  0  0  0
   -1.6091   -8.1788   33.6560 C   0  0  0  0  0  0  0  0  0  0  0  0
   -2.0314   -8.7464   34.7918 F   0  0  0  0  0  0  0  0  0  0  0  0
   -1.9070   -8.8122   32.4676 C   0  0  0  0  0  0  0  0  0  0  0  0
   -1.5353   -8.3495   31.2569 N   0  0  0  0  0  0  0  0  0  0  0  0
   -0.8218   -7.1994   31.2550 C   0  0  0  0  0  0  0  0  0  0  0  0
   -0.5157   -6.4597   32.3963 C   0  0  0  0  0  0  0  0  0  0  0  0
    0.2858   -4.7724   32.0890 Br  0  0  0  0  0  0  0  0  0  0  0  0
    2.1538   -3.8301   35.9154 C   0  0  0  0  0  0  0  0  0  0  0  0
    3.0091   -3.9878   34.6826 C   0  0  0  0  0  0  0  0  0  0  0  0
  1  2  1  0
  2  3  2  0
  3  4  1  0
  4  5  1  0
  4  6  2  0
  6  7  1  0
  7  8  1  0
  8  9  1  0
  9 10  2  0
  9 11  1  0
 11 12  2  0
 12 13  1  0
 12 14  1  0
 14 15  2  0
 15 16  1  0
 16 17  2  0
 17 18  1  0
  7 19  2  0
 19 20  1  0
 19  2  1  0
 17 11  1  0
M  END
>  <ref_mols>  (57) 
7gov-a

>  <gnina_score>  (57) 
5.109

>  <smina_score_min>  (57) 
-5.801

>  <ref_pdb>  (57) 
7gov-a

>  <inspiration_score>  (57) 
None

>  <inchikey>  (57) 
ITJJTIBOYDUOFB-UHFFFAOYSA-N

>  <tags>  (57) 
BulkDock Fragalysis export,openbind_d68ev3c_c2_elabs_scored,openbind_d68ev3c_c2_elabs_scored_4.5plus,openbind_d68ev3c_c2_elabs,openbind_d68ev3c_c2_elabs_scored_5plus,syndirella_product,openbind_d68ev3c_c2_elabs_scored_top80percent,syndirella_placed

>  <smiles>  (57) 
Cc1cc(F)cc(NC(=O)c2c(F)cncc2Br)c1C

>  <subsites>  (57) 
None

>  <rmsd(smina/fragmenstein)>  (57) 
1.012

>  <alias>  (57) 
None

>  <energy_score>  (57) 
-22.164198

>  <HIPPO Pose ID>  (57) 
64045

>  <distance_score>  (57) 
0.783097

>  <HIPPO Compound ID>  (57) 
100273

>  <gnina_score_min>  (57) 
5.04

>  <name>  (57) 
P64045

>  <exports>  (57) 
['/opt/xchem-fragalysis-2/maxwin/BulkDock/OUTPUTS/openbind_d68ev3c_c2_elabs_1LOTQJ3.sdf', '/opt/xchem-fragalysis-2/maxwin/BulkDock/OUTPUTS/openbind_d68ev3c_c2_elabs_1LSYEHW.sdf', '/opt/xchem-fragalysis-2/maxwin/BulkDock/OUTPUTS/openbind_d68ev3c_c2_elabs_1LSYI5W.sdf']

$$$$
P64051
     RDKit          3D

 20 21  0  0  0  0  0  0  0  0999 V2000
    3.0418   -3.9830   34.6733 C   0  0  0  0  0  0  0  0  0  0  0  0
    2.1806   -3.8588   35.8992 C   0  0  0  0  0  0  0  0  0  0  0  0
    2.5951   -2.9875   36.9238 C   0  0  0  0  0  0  0  0  0  0  0  0
    1.8527   -2.8681   38.0979 C   0  0  0  0  0  0  0  0  0  0  0  0
    2.4666   -1.7296   39.4773 Br  0  0  0  0  0  0  0  0  0  0  0  0
    0.6765   -3.5910   38.2453 C   0  0  0  0  0  0  0  0  0  0  0  0
   -0.0502   -3.4973   39.3694 F   0  0  0  0  0  0  0  0  0  0  0  0
    0.2290   -4.4277   37.2287 C   0  0  0  0  0  0  0  0  0  0  0  0
    0.9794   -4.5740   36.0573 C   0  0  0  0  0  0  0  0  0  0  0  0
    0.5250   -5.4175   35.0433 N   0  0  0  0  0  0  0  0  0  0  0  0
   -0.7504   -6.2824   34.9548 C   0  0  0  0  0  0  0  0  0  0  0  0
   -1.5830   -6.4855   35.7471 O   0  0  0  0  0  0  0  0  0  0  0  0
   -0.9101   -6.9562   33.6270 C   0  0  0  0  0  0  0  0  0  0  0  0
   -1.6055   -8.1698   33.6477 C   0  0  0  0  0  0  0  0  0  0  0  0
   -2.0205   -8.7383   34.7856 F   0  0  0  0  0  0  0  0  0  0  0  0
   -1.9022   -8.8094   32.4624 C   0  0  0  0  0  0  0  0  0  0  0  0
   -1.5352   -8.3491   31.2497 N   0  0  0  0  0  0  0  0  0  0  0  0
   -0.8284   -7.1951   31.2419 C   0  0  0  0  0  0  0  0  0  0  0  0
   -0.5246   -6.4489   32.3795 C   0  0  0  0  0  0  0  0  0  0  0  0
    0.2687   -4.7600   32.0610 Br  0  0  0  0  0  0  0  0  0  0  0  0
  1  2  1  0
  2  3  2  0
  3  4  1  0
  4  5  1  0
  4  6  2  0
  6  7  1  0
  6  8  1  0
  8  9  2  0
  9 10  1  0
 10 11  1  0
 11 12  2  0
 11 13  1  0
 13 14  2  0
 14 15  1  0
 14 16  1  0
 16 17  2  0
 17 18  1  0
 18 19  2  0
 19 20  1  0
  9  2  1  0
 19 13  1  0
M  END
>  <ref_mols>  (58) 
7gov-a

>  <gnina_score>  (58) 
5.165

>  <smina_score_min>  (58) 
-5.788

>  <ref_pdb>  (58) 
7gov-a

>  <inspiration_score>  (58) 
None

>  <inchikey>  (58) 
WSUAPSAIWAIQNP-UHFFFAOYSA-N

>  <tags>  (58) 
BulkDock Fragalysis export,openbind_d68ev3c_c2_elabs_scored,openbind_d68ev3c_c2_elabs_scored_4.5plus,openbind_d68ev3c_c2_elabs,openbind_d68ev3c_c2_elabs_scored_5plus,syndirella_product,openbind_d68ev3c_c2_elabs_scored_top80percent,syndirella_placed

>  <smiles>  (58) 
Cc1cc(Br)c(F)cc1NC(=O)c1c(F)cncc1Br

>  <subsites>  (58) 
None

>  <rmsd(smina/fragmenstein)>  (58) 
1.102

>  <alias>  (58) 
None

>  <energy_score>  (58) 
-28.545359

>  <HIPPO Pose ID>  (58) 
64051

>  <distance_score>  (58) 
0.771329

>  <HIPPO Compound ID>  (58) 
100282

>  <gnina_score_min>  (58) 
5.031

>  <name>  (58) 
P64051

>  <exports>  (58) 
['/opt/xchem-fragalysis-2/maxwin/BulkDock/OUTPUTS/openbind_d68ev3c_c2_elabs_1LOTQJ3.sdf', '/opt/xchem-fragalysis-2/maxwin/BulkDock/OUTPUTS/openbind_d68ev3c_c2_elabs_1LSYEHW.sdf', '/opt/xchem-fragalysis-2/maxwin/BulkDock/OUTPUTS/openbind_d68ev3c_c2_elabs_1LSYI5W.sdf']

$$$$
P64052
     RDKit          3D

 20 21  0  0  0  0  0  0  0  0999 V2000
    3.0179   -3.2409   34.3675 C   0  0  0  0  0  0  0  0  0  0  0  0
    2.3204   -3.2251   35.6983 C   0  0  0  0  0  0  0  0  0  0  0  0
    2.8319   -2.4426   36.7454 C   0  0  0  0  0  0  0  0  0  0  0  0
    2.2612   -2.4915   38.0182 C   0  0  0  0  0  0  0  0  0  0  0  0
    1.1806   -3.3288   38.2547 C   0  0  0  0  0  0  0  0  0  0  0  0
    0.6219   -3.3343   39.4764 F   0  0  0  0  0  0  0  0  0  0  0  0
    0.6659   -4.1244   37.2366 C   0  0  0  0  0  0  0  0  0  0  0  0
   -0.8759   -5.1350   37.6262 Br  0  0  0  0  0  0  0  0  0  0  0  0
    1.2350   -4.0745   35.9550 C   0  0  0  0  0  0  0  0  0  0  0  0
    0.7623   -4.8667   34.9136 N   0  0  0  0  0  0  0  0  0  0  0  0
    0.5718   -6.3901   34.8244 C   0  0  0  0  0  0  0  0  0  0  0  0
    0.8519   -7.2316   35.5794 O   0  0  0  0  0  0  0  0  0  0  0  0
   -0.1564   -6.7712   33.5912 C   0  0  0  0  0  0  0  0  0  0  0  0
    0.3219   -6.3688   32.3399 C   0  0  0  0  0  0  0  0  0  0  0  0
   -0.3079   -6.8569   31.2075 C   0  0  0  0  0  0  0  0  0  0  0  0
   -1.3602   -7.6955   31.2453 N   0  0  0  0  0  0  0  0  0  0  0  0
   -1.7775   -8.0637   32.4797 C   0  0  0  0  0  0  0  0  0  0  0  0
   -3.0715   -9.1633   32.4080 Cl  0  0  0  0  0  0  0  0  0  0  0  0
   -1.2524   -7.6209   33.6789 C   0  0  0  0  0  0  0  0  0  0  0  0
   -1.9925   -8.0404   35.1757 Cl  0  0  0  0  0  0  0  0  0  0  0  0
  1  2  1  0
  2  3  2  0
  3  4  1  0
  4  5  2  0
  5  6  1  0
  5  7  1  0
  7  8  1  0
  7  9  2  0
  9 10  1  0
 10 11  1  0
 11 12  2  0
 11 13  1  0
 13 14  2  0
 14 15  1  0
 15 16  2  0
 16 17  1  0
 17 18  1  0
 17 19  2  0
 19 20  1  0
  9  2  1  0
 19 13  1  0
M  END
>  <ref_mols>  (59) 
7gov-a

>  <gnina_score>  (59) 
5.289

>  <smina_score_min>  (59) 
-5.191

>  <ref_pdb>  (59) 
7gov-a

>  <inspiration_score>  (59) 
None

>  <inchikey>  (59) 
ZJBLMBFICJAJHP-UHFFFAOYSA-N

>  <tags>  (59) 
BulkDock Fragalysis export,openbind_d68ev3c_c2_elabs_scored,openbind_d68ev3c_c2_elabs_scored_4.5plus,openbind_d68ev3c_c2_elabs,openbind_d68ev3c_c2_elabs_scored_5plus,syndirella_product,openbind_d68ev3c_c2_elabs_scored_top80percent,syndirella_placed

>  <smiles>  (59) 
Cc1ccc(F)c(Br)c1NC(=O)c1ccnc(Cl)c1Cl

>  <subsites>  (59) 
None

>  <rmsd(smina/fragmenstein)>  (59) 
0.342

>  <alias>  (59) 
None

>  <energy_score>  (59) 
-4.468273

>  <HIPPO Pose ID>  (59) 
64052

>  <distance_score>  (59) 
0.682264

>  <HIPPO Compound ID>  (59) 
100283

>  <gnina_score_min>  (59) 
5.231

>  <name>  (59) 
P64052

>  <exports>  (59) 
['/opt/xchem-fragalysis-2/maxwin/BulkDock/OUTPUTS/openbind_d68ev3c_c2_elabs_1LOTQJ3.sdf', '/opt/xchem-fragalysis-2/maxwin/BulkDock/OUTPUTS/openbind_d68ev3c_c2_elabs_1LSYEHW.sdf', '/opt/xchem-fragalysis-2/maxwin/BulkDock/OUTPUTS/openbind_d68ev3c_c2_elabs_1LSYI5W.sdf']

$$$$
P64053
     RDKit          3D

 20 21  0  0  0  0  0  0  0  0999 V2000
    3.0662   -4.0137   34.6694 C   0  0  0  0  0  0  0  0  0  0  0  0
    2.2142   -3.8526   35.9019 C   0  0  0  0  0  0  0  0  0  0  0  0
    2.5750   -2.9401   36.9185 C   0  0  0  0  0  0  0  0  0  0  0  0
    4.0976   -1.8019   36.7881 Br  0  0  0  0  0  0  0  0  0  0  0  0
    1.8135   -2.8157   38.0821 C   0  0  0  0  0  0  0  0  0  0  0  0
    0.6685   -3.5774   38.2284 C   0  0  0  0  0  0  0  0  0  0  0  0
   -0.0551   -3.4695   39.3508 F   0  0  0  0  0  0  0  0  0  0  0  0
    0.2505   -4.4376   37.2251 C   0  0  0  0  0  0  0  0  0  0  0  0
    1.0131   -4.5808   36.0607 C   0  0  0  0  0  0  0  0  0  0  0  0
    0.5505   -5.4257   35.0465 N   0  0  0  0  0  0  0  0  0  0  0  0
   -0.7291   -6.2857   34.9634 C   0  0  0  0  0  0  0  0  0  0  0  0
   -1.5599   -6.4845   35.7589 O   0  0  0  0  0  0  0  0  0  0  0  0
   -0.8974   -6.9557   33.6340 C   0  0  0  0  0  0  0  0  0  0  0  0
   -1.6059   -8.1621   33.6532 C   0  0  0  0  0  0  0  0  0  0  0  0
   -2.0277   -8.7271   34.7905 F   0  0  0  0  0  0  0  0  0  0  0  0
   -1.9088   -8.7979   32.4672 C   0  0  0  0  0  0  0  0  0  0  0  0
   -1.5378   -8.3399   31.2548 N   0  0  0  0  0  0  0  0  0  0  0  0
   -0.8192   -7.1930   31.2483 C   0  0  0  0  0  0  0  0  0  0  0  0
   -0.5061   -6.4515   32.3867 C   0  0  0  0  0  0  0  0  0  0  0  0
    0.3119   -4.7731   32.0697 Br  0  0  0  0  0  0  0  0  0  0  0  0
  1  2  1  0
  2  3  2  0
  3  4  1  0
  3  5  1  0
  5  6  2  0
  6  7  1  0
  6  8  1  0
  8  9  2  0
  9 10  1  0
 10 11  1  0
 11 12  2  0
 11 13  1  0
 13 14  2  0
 14 15  1  0
 14 16  1  0
 16 17  2  0
 17 18  1  0
 18 19  2  0
 19 20  1  0
  9  2  1  0
 19 13  1  0
M  END
>  <ref_mols>  (60) 
7gov-a

>  <gnina_score>  (60) 
5.2

>  <smina_score_min>  (60) 
-5.733

>  <ref_pdb>  (60) 
7gov-a

>  <inspiration_score>  (60) 
None

>  <inchikey>  (60) 
MFECCVOMZNCDAO-UHFFFAOYSA-N

>  <tags>  (60) 
BulkDock Fragalysis export,openbind_d68ev3c_c2_elabs_scored,openbind_d68ev3c_c2_elabs_scored_4.5plus,openbind_d68ev3c_c2_elabs,openbind_d68ev3c_c2_elabs_scored_5plus,syndirella_product,openbind_d68ev3c_c2_elabs_scored_top80percent,syndirella_placed

>  <smiles>  (60) 
Cc1c(Br)cc(F)cc1NC(=O)c1c(F)cncc1Br

>  <subsites>  (60) 
None

>  <rmsd(smina/fragmenstein)>  (60) 
1.276

>  <alias>  (60) 
None

>  <energy_score>  (60) 
-17.267551

>  <HIPPO Pose ID>  (60) 
64053

>  <distance_score>  (60) 
0.770068

>  <HIPPO Compound ID>  (60) 
100284

>  <gnina_score_min>  (60) 
5.02

>  <name>  (60) 
P64053

>  <exports>  (60) 
['/opt/xchem-fragalysis-2/maxwin/BulkDock/OUTPUTS/openbind_d68ev3c_c2_elabs_1LOTQJ3.sdf', '/opt/xchem-fragalysis-2/maxwin/BulkDock/OUTPUTS/openbind_d68ev3c_c2_elabs_1LSYEHW.sdf', '/opt/xchem-fragalysis-2/maxwin/BulkDock/OUTPUTS/openbind_d68ev3c_c2_elabs_1LSYI5W.sdf']

$$$$
P64056
     RDKit          3D

 20 21  0  0  0  0  0  0  0  0999 V2000
    3.7703   -3.6629   33.8483 N   0  0  0  0  0  0  0  0  0  0  0  0
    3.2176   -3.6005   34.8679 C   0  0  0  0  0  0  0  0  0  0  0  0
    2.4675   -3.5202   36.0876 C   0  0  0  0  0  0  0  0  0  0  0  0
    2.9351   -2.7177   37.1373 C   0  0  0  0  0  0  0  0  0  0  0  0
    2.2109   -2.6260   38.3292 C   0  0  0  0  0  0  0  0  0  0  0  0
    1.0174   -3.3231   38.4623 C   0  0  0  0  0  0  0  0  0  0  0  0
    0.3242   -3.2476   39.6055 F   0  0  0  0  0  0  0  0  0  0  0  0
    0.5265   -4.0973   37.4234 C   0  0  0  0  0  0  0  0  0  0  0  0
    1.2547   -4.2073   36.2343 C   0  0  0  0  0  0  0  0  0  0  0  0
    0.7328   -4.9674   35.1903 N   0  0  0  0  0  0  0  0  0  0  0  0
   -0.5626   -5.7930   35.1057 C   0  0  0  0  0  0  0  0  0  0  0  0
   -1.4355   -5.9067   35.8669 O   0  0  0  0  0  0  0  0  0  0  0  0
   -0.7074   -6.4563   33.7654 C   0  0  0  0  0  0  0  0  0  0  0  0
   -0.1789   -5.8531   32.6083 C   0  0  0  0  0  0  0  0  0  0  0  0
   -0.3789   -6.4522   31.3760 C   0  0  0  0  0  0  0  0  0  0  0  0
   -1.0859   -7.5773   31.2166 N   0  0  0  0  0  0  0  0  0  0  0  0
   -1.5661   -8.1346   32.3454 C   0  0  0  0  0  0  0  0  0  0  0  0
   -2.3411   -9.6022   32.0122 Cl  0  0  0  0  0  0  0  0  0  0  0  0
   -1.4498   -7.6276   33.6267 C   0  0  0  0  0  0  0  0  0  0  0  0
   -2.3648   -8.5003   35.0373 Br  0  0  0  0  0  0  0  0  0  0  0  0
  1  2  3  0
  2  3  1  0
  3  4  2  0
  4  5  1  0
  5  6  2  0
  6  7  1  0
  6  8  1  0
  8  9  2  0
  9 10  1  0
 10 11  1  0
 11 12  2  0
 11 13  1  0
 13 14  2  0
 14 15  1  0
 15 16  2  0
 16 17  1  0
 17 18  1  0
 17 19  2  0
 19 20  1  0
  9  3  1  0
 19 13  1  0
M  END
>  <ref_mols>  (61) 
7gov-a

>  <gnina_score>  (61) 
5.198

>  <smina_score_min>  (61) 
-4.147

>  <ref_pdb>  (61) 
7gov-a

>  <inspiration_score>  (61) 
None

>  <inchikey>  (61) 
RNGVAHVRJATYDE-UHFFFAOYSA-N

>  <tags>  (61) 
BulkDock Fragalysis export,openbind_d68ev3c_c2_elabs_scored,openbind_d68ev3c_c2_elabs_scored_4.5plus,openbind_d68ev3c_c2_elabs,openbind_d68ev3c_c2_elabs_scored_5plus,syndirella_product,openbind_d68ev3c_c2_elabs_scored_top80percent,syndirella_placed

>  <smiles>  (61) 
N#Cc1ccc(F)cc1NC(=O)c1ccnc(Cl)c1Br

>  <subsites>  (61) 
None

>  <rmsd(smina/fragmenstein)>  (61) 
0.27

>  <alias>  (61) 
None

>  <energy_score>  (61) 
-11.152847

>  <HIPPO Pose ID>  (61) 
64056

>  <distance_score>  (61) 
1.033144

>  <HIPPO Compound ID>  (61) 
100287

>  <gnina_score_min>  (61) 
5.022

>  <name>  (61) 
P64056

>  <exports>  (61) 
['/opt/xchem-fragalysis-2/maxwin/BulkDock/OUTPUTS/openbind_d68ev3c_c2_elabs_1LOTQJ3.sdf', '/opt/xchem-fragalysis-2/maxwin/BulkDock/OUTPUTS/openbind_d68ev3c_c2_elabs_1LSYEHW.sdf', '/opt/xchem-fragalysis-2/maxwin/BulkDock/OUTPUTS/openbind_d68ev3c_c2_elabs_1LSYI5W.sdf']

$$$$
P64057
     RDKit          3D

 20 21  0  0  0  0  0  0  0  0999 V2000
    3.0286   -3.9282   34.6847 C   0  0  0  0  0  0  0  0  0  0  0  0
    2.1743   -3.8333   35.9155 C   0  0  0  0  0  0  0  0  0  0  0  0
    2.5554   -2.9525   36.9394 C   0  0  0  0  0  0  0  0  0  0  0  0
    3.6549   -2.1959   36.7970 F   0  0  0  0  0  0  0  0  0  0  0  0
    1.8243   -2.8313   38.1134 C   0  0  0  0  0  0  0  0  0  0  0  0
    0.6786   -3.5913   38.2647 C   0  0  0  0  0  0  0  0  0  0  0  0
   -0.0321   -3.4936   39.3962 F   0  0  0  0  0  0  0  0  0  0  0  0
    0.2477   -4.4486   37.2587 C   0  0  0  0  0  0  0  0  0  0  0  0
    0.9930   -4.5776   36.0819 C   0  0  0  0  0  0  0  0  0  0  0  0
    0.5456   -5.4231   35.0649 N   0  0  0  0  0  0  0  0  0  0  0  0
   -0.6976   -6.3334   34.9928 C   0  0  0  0  0  0  0  0  0  0  0  0
   -1.5035   -6.5798   35.8017 O   0  0  0  0  0  0  0  0  0  0  0  0
   -0.8705   -7.0081   33.6630 C   0  0  0  0  0  0  0  0  0  0  0  0
   -1.5442   -8.2407   33.7396 C   0  0  0  0  0  0  0  0  0  0  0  0
   -1.8877   -8.8908   32.5773 C   0  0  0  0  0  0  0  0  0  0  0  0
   -1.5767   -8.4328   31.3559 N   0  0  0  0  0  0  0  0  0  0  0  0
   -0.8799   -7.2721   31.2976 C   0  0  0  0  0  0  0  0  0  0  0  0
   -0.5588   -6.8384   29.6606 Cl  0  0  0  0  0  0  0  0  0  0  0  0
   -0.5364   -6.4927   32.4013 C   0  0  0  0  0  0  0  0  0  0  0  0
    0.1987   -4.7632   32.1201 Br  0  0  0  0  0  0  0  0  0  0  0  0
  1  2  1  0
  2  3  2  0
  3  4  1  0
  3  5  1  0
  5  6  2  0
  6  7  1  0
  6  8  1  0
  8  9  2  0
  9 10  1  0
 10 11  1  0
 11 12  2  0
 11 13  1  0
 13 14  2  0
 14 15  1  0
 15 16  2  0
 16 17  1  0
 17 18  1  0
 17 19  2  0
 19 20  1  0
  9  2  1  0
 19 13  1  0
M  END
>  <ref_mols>  (62) 
7gov-a

>  <gnina_score>  (62) 
5.134

>  <smina_score_min>  (62) 
-6.109

>  <ref_pdb>  (62) 
7gov-a

>  <inspiration_score>  (62) 
None

>  <inchikey>  (62) 
JVCCLMQCXWSSPC-UHFFFAOYSA-N

>  <tags>  (62) 
BulkDock Fragalysis export,openbind_d68ev3c_c2_elabs_scored,openbind_d68ev3c_c2_elabs_scored_4.5plus,openbind_d68ev3c_c2_elabs,openbind_d68ev3c_c2_elabs_scored_5plus,syndirella_product,openbind_d68ev3c_c2_elabs_scored_top80percent,syndirella_placed

>  <smiles>  (62) 
Cc1c(F)cc(F)cc1NC(=O)c1ccnc(Cl)c1Br

>  <subsites>  (62) 
None

>  <rmsd(smina/fragmenstein)>  (62) 
1.117

>  <alias>  (62) 
None

>  <energy_score>  (62) 
-30.341009

>  <HIPPO Pose ID>  (62) 
64057

>  <distance_score>  (62) 
0.744395

>  <HIPPO Compound ID>  (62) 
100288

>  <gnina_score_min>  (62) 
5.085

>  <name>  (62) 
P64057

>  <exports>  (62) 
['/opt/xchem-fragalysis-2/maxwin/BulkDock/OUTPUTS/openbind_d68ev3c_c2_elabs_1LOTQJ3.sdf', '/opt/xchem-fragalysis-2/maxwin/BulkDock/OUTPUTS/openbind_d68ev3c_c2_elabs_1LSYEHW.sdf', '/opt/xchem-fragalysis-2/maxwin/BulkDock/OUTPUTS/openbind_d68ev3c_c2_elabs_1LSYI5W.sdf']

$$$$
P64058
     RDKit          3D

 20 21  0  0  0  0  0  0  0  0999 V2000
    2.7728   -2.9427   34.4297 C   0  0  0  0  0  0  0  0  0  0  0  0
    2.0892   -3.1107   35.7551 C   0  0  0  0  0  0  0  0  0  0  0  0
    2.4664   -2.3185   36.8501 C   0  0  0  0  0  0  0  0  0  0  0  0
    1.9038   -2.5456   38.1025 C   0  0  0  0  0  0  0  0  0  0  0  0
    2.2743   -1.7416   39.1445 O   0  0  0  0  0  0  0  0  0  0  0  0
    0.9813   -3.5685   38.2870 C   0  0  0  0  0  0  0  0  0  0  0  0
    0.4266   -3.7527   39.4949 F   0  0  0  0  0  0  0  0  0  0  0  0
    0.6176   -4.3811   37.2275 C   0  0  0  0  0  0  0  0  0  0  0  0
    1.1601   -4.1365   35.9626 C   0  0  0  0  0  0  0  0  0  0  0  0
    0.7436   -4.9292   34.9089 N   0  0  0  0  0  0  0  0  0  0  0  0
    0.4720   -6.4367   34.8432 C   0  0  0  0  0  0  0  0  0  0  0  0
    0.6284   -7.2670   35.6431 O   0  0  0  0  0  0  0  0  0  0  0  0
   -0.1819   -6.8229   33.5671 C   0  0  0  0  0  0  0  0  0  0  0  0
    0.3275   -6.4106   32.3326 C   0  0  0  0  0  0  0  0  0  0  0  0
   -0.2816   -6.8788   31.1791 C   0  0  0  0  0  0  0  0  0  0  0  0
   -1.3375   -7.7140   31.1790 N   0  0  0  0  0  0  0  0  0  0  0  0
   -1.7821   -8.0962   32.3955 C   0  0  0  0  0  0  0  0  0  0  0  0
   -3.0728   -9.1943   32.2965 Cl  0  0  0  0  0  0  0  0  0  0  0  0
   -1.2855   -7.6685   33.6083 C   0  0  0  0  0  0  0  0  0  0  0  0
   -2.1731   -8.1530   35.2053 Br  0  0  0  0  0  0  0  0  0  0  0  0
  1  2  1  0
  2  3  2  0
  3  4  1  0
  4  5  1  0
  4  6  2  0
  6  7  1  0
  6  8  1  0
  8  9  2  0
  9 10  1  0
 10 11  1  0
 11 12  2  0
 11 13  1  0
 13 14  2  0
 14 15  1  0
 15 16  2  0
 16 17  1  0
 17 18  1  0
 17 19  2  0
 19 20  1  0
  9  2  1  0
 19 13  1  0
M  END
>  <ref_mols>  (63) 
7gov-a

>  <gnina_score>  (63) 
5.066

>  <smina_score_min>  (63) 
-4.966

>  <ref_pdb>  (63) 
7gov-a

>  <inspiration_score>  (63) 
None

>  <inchikey>  (63) 
AJAHLCYULILGFI-UHFFFAOYSA-N

>  <tags>  (63) 
BulkDock Fragalysis export,openbind_d68ev3c_c2_elabs_scored,openbind_d68ev3c_c2_elabs_scored_4.5plus,openbind_d68ev3c_c2_elabs,openbind_d68ev3c_c2_elabs_scored_5plus,syndirella_product,openbind_d68ev3c_c2_elabs_scored_top80percent,syndirella_placed

>  <smiles>  (63) 
Cc1cc(O)c(F)cc1NC(=O)c1ccnc(Cl)c1Br

>  <subsites>  (63) 
None

>  <rmsd(smina/fragmenstein)>  (63) 
1.402

>  <alias>  (63) 
None

>  <energy_score>  (63) 
-9.955727

>  <HIPPO Pose ID>  (63) 
64058

>  <distance_score>  (63) 
0.663511

>  <HIPPO Compound ID>  (63) 
100289

>  <gnina_score_min>  (63) 
5.016

>  <name>  (63) 
P64058

>  <exports>  (63) 
['/opt/xchem-fragalysis-2/maxwin/BulkDock/OUTPUTS/openbind_d68ev3c_c2_elabs_1LOTQJ3.sdf', '/opt/xchem-fragalysis-2/maxwin/BulkDock/OUTPUTS/openbind_d68ev3c_c2_elabs_1LSYEHW.sdf', '/opt/xchem-fragalysis-2/maxwin/BulkDock/OUTPUTS/openbind_d68ev3c_c2_elabs_1LSYI5W.sdf']

$$$$
P64059
     RDKit          3D

 20 21  0  0  0  0  0  0  0  0999 V2000
   -1.6231   -6.5303   35.7736 O   0  0  0  0  0  0  0  0  0  0  0  0
   -0.7280   -6.3707   35.0398 C   0  0  0  0  0  0  0  0  0  0  0  0
    0.5480   -5.5148   35.1892 N   0  0  0  0  0  0  0  0  0  0  0  0
    0.9345   -4.6287   36.1999 C   0  0  0  0  0  0  0  0  0  0  0  0
    0.1227   -4.4708   37.3273 C   0  0  0  0  0  0  0  0  0  0  0  0
    0.4939   -3.5882   38.3338 C   0  0  0  0  0  0  0  0  0  0  0  0
   -0.2686   -3.4770   39.4292 F   0  0  0  0  0  0  0  0  0  0  0  0
    1.6462   -2.8262   38.2312 C   0  0  0  0  0  0  0  0  0  0  0  0
    2.4576   -2.9694   37.1098 C   0  0  0  0  0  0  0  0  0  0  0  0
    2.1235   -3.8809   36.0881 C   0  0  0  0  0  0  0  0  0  0  0  0
    3.1248   -4.0918   34.9843 C   0  0  0  0  0  0  0  0  0  0  0  0
    3.8582   -5.2849   35.2224 O   0  0  0  0  0  0  0  0  0  0  0  0
   -0.8548   -7.0466   33.7107 C   0  0  0  0  0  0  0  0  0  0  0  0
   -1.5289   -8.2787   33.7641 C   0  0  0  0  0  0  0  0  0  0  0  0
   -1.8699   -8.9046   32.5873 C   0  0  0  0  0  0  0  0  0  0  0  0
   -1.5555   -8.4237   31.3748 N   0  0  0  0  0  0  0  0  0  0  0  0
   -0.8563   -7.2626   31.3419 C   0  0  0  0  0  0  0  0  0  0  0  0
   -0.5323   -6.7917   29.7164 Cl  0  0  0  0  0  0  0  0  0  0  0  0
   -0.5177   -6.5050   32.4620 C   0  0  0  0  0  0  0  0  0  0  0  0
    0.1945   -4.7594   32.2282 Br  0  0  0  0  0  0  0  0  0  0  0  0
  1  2  2  0
  2  3  1  0
  3  4  1  0
  4  5  2  0
  5  6  1  0
  6  7  1  0
  6  8  2  0
  8  9  1  0
  9 10  2  0
 10 11  1  0
 11 12  1  0
  2 13  1  0
 13 14  2  0
 14 15  1  0
 15 16  2  0
 16 17  1  0
 17 18  1  0
 17 19  2  0
 19 20  1  0
 10  4  1  0
 19 13  1  0
M  END
>  <ref_mols>  (64) 
7gov-a

>  <gnina_score>  (64) 
4.922

>  <smina_score_min>  (64) 
-6.241

>  <ref_pdb>  (64) 
7gov-a

>  <inspiration_score>  (64) 
None

>  <inchikey>  (64) 
LXVSTASNLIORKC-UHFFFAOYSA-N

>  <tags>  (64) 
BulkDock Fragalysis export,openbind_d68ev3c_c2_elabs_scored,openbind_d68ev3c_c2_elabs_scored_4.5plus,openbind_d68ev3c_c2_elabs,openbind_d68ev3c_c2_elabs_scored_5plus,syndirella_product,openbind_d68ev3c_c2_elabs_scored_top80percent,syndirella_placed

>  <smiles>  (64) 
O=C(Nc1cc(F)ccc1CO)c1ccnc(Cl)c1Br

>  <subsites>  (64) 
None

>  <rmsd(smina/fragmenstein)>  (64) 
1.077

>  <alias>  (64) 
None

>  <energy_score>  (64) 
-6.523951

>  <HIPPO Pose ID>  (64) 
64059

>  <distance_score>  (64) 
0.797277

>  <HIPPO Compound ID>  (64) 
100290

>  <gnina_score_min>  (64) 
5.014

>  <name>  (64) 
P64059

>  <exports>  (64) 
['/opt/xchem-fragalysis-2/maxwin/BulkDock/OUTPUTS/openbind_d68ev3c_c2_elabs_1LOTQJ3.sdf', '/opt/xchem-fragalysis-2/maxwin/BulkDock/OUTPUTS/openbind_d68ev3c_c2_elabs_1LSYEHW.sdf', '/opt/xchem-fragalysis-2/maxwin/BulkDock/OUTPUTS/openbind_d68ev3c_c2_elabs_1LSYI5W.sdf']

$$$$
P64060
     RDKit          3D

 20 21  0  0  0  0  0  0  0  0999 V2000
    2.7974   -2.9784   34.4431 C   0  0  0  0  0  0  0  0  0  0  0  0
    2.1082   -3.1419   35.7665 C   0  0  0  0  0  0  0  0  0  0  0  0
    2.5099   -2.3769   36.8724 C   0  0  0  0  0  0  0  0  0  0  0  0
    1.9464   -2.6004   38.1332 C   0  0  0  0  0  0  0  0  0  0  0  0
    2.5013   -1.5406   39.5987 Br  0  0  0  0  0  0  0  0  0  0  0  0
    0.9906   -3.5957   38.3026 C   0  0  0  0  0  0  0  0  0  0  0  0
    0.4101   -3.8025   39.4947 F   0  0  0  0  0  0  0  0  0  0  0  0
    0.6086   -4.3849   37.2282 C   0  0  0  0  0  0  0  0  0  0  0  0
    1.1571   -4.1458   35.9653 C   0  0  0  0  0  0  0  0  0  0  0  0
    0.7383   -4.9342   34.9101 N   0  0  0  0  0  0  0  0  0  0  0  0
    0.4717   -6.4422   34.8379 C   0  0  0  0  0  0  0  0  0  0  0  0
    0.6351   -7.2759   35.6327 O   0  0  0  0  0  0  0  0  0  0  0  0
   -0.1869   -6.8243   33.5638 C   0  0  0  0  0  0  0  0  0  0  0  0
    0.3221   -6.4126   32.3289 C   0  0  0  0  0  0  0  0  0  0  0  0
   -0.2877   -6.8814   31.1763 C   0  0  0  0  0  0  0  0  0  0  0  0
   -1.3440   -7.7162   31.1777 N   0  0  0  0  0  0  0  0  0  0  0  0
   -1.7880   -8.0976   32.3948 C   0  0  0  0  0  0  0  0  0  0  0  0
   -3.0794   -9.1946   32.2979 Cl  0  0  0  0  0  0  0  0  0  0  0  0
   -1.2903   -7.6696   33.6069 C   0  0  0  0  0  0  0  0  0  0  0  0
   -2.1743   -8.1535   35.2056 Br  0  0  0  0  0  0  0  0  0  0  0  0
  1  2  1  0
  2  3  2  0
  3  4  1  0
  4  5  1  0
  4  6  2  0
  6  7  1  0
  6  8  1  0
  8  9  2  0
  9 10  1  0
 10 11  1  0
 11 12  2  0
 11 13  1  0
 13 14  2  0
 14 15  1  0
 15 16  2  0
 16 17  1  0
 17 18  1  0
 17 19  2  0
 19 20  1  0
  9  2  1  0
 19 13  1  0
M  END
>  <ref_mols>  (65) 
7gov-a

>  <gnina_score>  (65) 
5.198

>  <smina_score_min>  (65) 
-4.899

>  <ref_pdb>  (65) 
7gov-a

>  <inspiration_score>  (65) 
None

>  <inchikey>  (65) 
YQXUHDNRIFRQKY-UHFFFAOYSA-N

>  <tags>  (65) 
BulkDock Fragalysis export,openbind_d68ev3c_c2_elabs_scored,openbind_d68ev3c_c2_elabs_scored_4.5plus,openbind_d68ev3c_c2_elabs,openbind_d68ev3c_c2_elabs_scored_5plus,syndirella_product,openbind_d68ev3c_c2_elabs_scored_top80percent,syndirella_placed

>  <smiles>  (65) 
Cc1cc(Br)c(F)cc1NC(=O)c1ccnc(Cl)c1Br

>  <subsites>  (65) 
None

>  <rmsd(smina/fragmenstein)>  (65) 
1.563

>  <alias>  (65) 
None

>  <energy_score>  (65) 
-9.800603

>  <HIPPO Pose ID>  (65) 
64060

>  <distance_score>  (65) 
0.646821

>  <HIPPO Compound ID>  (65) 
100292

>  <gnina_score_min>  (65) 
5.068

>  <name>  (65) 
P64060

>  <exports>  (65) 
['/opt/xchem-fragalysis-2/maxwin/BulkDock/OUTPUTS/openbind_d68ev3c_c2_elabs_1LOTQJ3.sdf', '/opt/xchem-fragalysis-2/maxwin/BulkDock/OUTPUTS/openbind_d68ev3c_c2_elabs_1LSYEHW.sdf', '/opt/xchem-fragalysis-2/maxwin/BulkDock/OUTPUTS/openbind_d68ev3c_c2_elabs_1LSYI5W.sdf']

$$$$
P64062
     RDKit          3D

 20 21  0  0  0  0  0  0  0  0999 V2000
    3.7910   -2.2841   37.2158 C   0  0  0  0  0  0  0  0  0  0  0  0
    2.4019   -2.8611   37.2257 C   0  0  0  0  0  0  0  0  0  0  0  0
    1.6001   -2.6604   38.3575 C   0  0  0  0  0  0  0  0  0  0  0  0
    0.3009   -3.1520   38.3955 C   0  0  0  0  0  0  0  0  0  0  0  0
   -0.4175   -3.0130   39.5162 F   0  0  0  0  0  0  0  0  0  0  0  0
   -0.2533   -3.8126   37.3133 C   0  0  0  0  0  0  0  0  0  0  0  0
    0.5482   -4.0581   36.2063 C   0  0  0  0  0  0  0  0  0  0  0  0
    0.0489   -4.9026   35.2328 N   0  0  0  0  0  0  0  0  0  0  0  0
    0.5563   -6.2629   34.7382 C   0  0  0  0  0  0  0  0  0  0  0  0
    1.4304   -6.9268   35.1225 O   0  0  0  0  0  0  0  0  0  0  0  0
   -0.1754   -6.6899   33.5322 C   0  0  0  0  0  0  0  0  0  0  0  0
    0.2924   -6.2876   32.2806 C   0  0  0  0  0  0  0  0  0  0  0  0
   -0.3265   -6.8060   31.1570 C   0  0  0  0  0  0  0  0  0  0  0  0
   -1.3594   -7.6701   31.2093 N   0  0  0  0  0  0  0  0  0  0  0  0
   -1.7544   -8.0436   32.4475 C   0  0  0  0  0  0  0  0  0  0  0  0
   -3.0221   -9.1736   32.3955 Cl  0  0  0  0  0  0  0  0  0  0  0  0
   -1.2280   -7.5776   33.6353 C   0  0  0  0  0  0  0  0  0  0  0  0
   -1.9347   -8.0694   35.3013 Br  0  0  0  0  0  0  0  0  0  0  0  0
    1.8778   -3.5851   36.1324 C   0  0  0  0  0  0  0  0  0  0  0  0
    2.7398   -3.8784   34.9271 C   0  0  0  0  0  0  0  0  0  0  0  0
  1  2  1  0
  2  3  2  0
  3  4  1  0
  4  5  1  0
  4  6  2  0
  6  7  1  0
  7  8  1  0
  8  9  1  0
  9 10  2  0
  9 11  1  0
 11 12  2  0
 12 13  1  0
 13 14  2  0
 14 15  1  0
 15 16  1  0
 15 17  2  0
 17 18  1  0
  7 19  2  0
 19 20  1  0
 19  2  1  0
 17 11  1  0
M  END
>  <ref_mols>  (66) 
7gov-a

>  <gnina_score>  (66) 
5.184

>  <smina_score_min>  (66) 
-4.793

>  <ref_pdb>  (66) 
7gov-a

>  <inspiration_score>  (66) 
None

>  <inchikey>  (66) 
DJFJQAWNWHHCKM-UHFFFAOYSA-N

>  <tags>  (66) 
BulkDock Fragalysis export,openbind_d68ev3c_c2_elabs_scored,openbind_d68ev3c_c2_elabs_scored_4.5plus,openbind_d68ev3c_c2_elabs,openbind_d68ev3c_c2_elabs_scored_5plus,syndirella_product,openbind_d68ev3c_c2_elabs_scored_top80percent,syndirella_placed

>  <smiles>  (66) 
Cc1cc(F)cc(NC(=O)c2ccnc(Cl)c2Br)c1C

>  <subsites>  (66) 
None

>  <rmsd(smina/fragmenstein)>  (66) 
1.644

>  <alias>  (66) 
None

>  <energy_score>  (66) 
-7.882638

>  <HIPPO Pose ID>  (66) 
64062

>  <distance_score>  (66) 
0.633

>  <HIPPO Compound ID>  (66) 
100297

>  <gnina_score_min>  (66) 
5.125

>  <name>  (66) 
P64062

>  <exports>  (66) 
['/opt/xchem-fragalysis-2/maxwin/BulkDock/OUTPUTS/openbind_d68ev3c_c2_elabs_1LOTQJ3.sdf', '/opt/xchem-fragalysis-2/maxwin/BulkDock/OUTPUTS/openbind_d68ev3c_c2_elabs_1LSYEHW.sdf', '/opt/xchem-fragalysis-2/maxwin/BulkDock/OUTPUTS/openbind_d68ev3c_c2_elabs_1LSYI5W.sdf']

$$$$
P64063
     RDKit          3D

 20 21  0  0  0  0  0  0  0  0999 V2000
    3.0135   -3.9455   34.6862 C   0  0  0  0  0  0  0  0  0  0  0  0
    2.1582   -3.8390   35.9182 C   0  0  0  0  0  0  0  0  0  0  0  0
    2.5628   -2.9638   36.9415 C   0  0  0  0  0  0  0  0  0  0  0  0
    1.8223   -2.8624   38.1135 C   0  0  0  0  0  0  0  0  0  0  0  0
    2.2377   -2.0376   39.0856 F   0  0  0  0  0  0  0  0  0  0  0  0
    0.6633   -3.6046   38.2731 C   0  0  0  0  0  0  0  0  0  0  0  0
   -0.0476   -3.5089   39.4057 F   0  0  0  0  0  0  0  0  0  0  0  0
    0.2241   -4.4508   37.2615 C   0  0  0  0  0  0  0  0  0  0  0  0
    0.9701   -4.5781   36.0841 C   0  0  0  0  0  0  0  0  0  0  0  0
    0.5250   -5.4213   35.0658 N   0  0  0  0  0  0  0  0  0  0  0  0
   -0.7163   -6.3333   34.9909 C   0  0  0  0  0  0  0  0  0  0  0  0
   -1.5222   -6.5829   35.7986 O   0  0  0  0  0  0  0  0  0  0  0  0
   -0.8838   -7.0086   33.6610 C   0  0  0  0  0  0  0  0  0  0  0  0
   -1.5507   -8.2447   33.7365 C   0  0  0  0  0  0  0  0  0  0  0  0
   -1.8875   -8.8967   32.5734 C   0  0  0  0  0  0  0  0  0  0  0  0
   -1.5752   -8.4376   31.3528 N   0  0  0  0  0  0  0  0  0  0  0  0
   -0.8847   -7.2733   31.2959 C   0  0  0  0  0  0  0  0  0  0  0  0
   -0.5598   -6.8390   29.6598 Cl  0  0  0  0  0  0  0  0  0  0  0  0
   -0.5496   -6.4914   32.4002 C   0  0  0  0  0  0  0  0  0  0  0  0
    0.1728   -4.7563   32.1206 Br  0  0  0  0  0  0  0  0  0  0  0  0
  1  2  1  0
  2  3  2  0
  3  4  1  0
  4  5  1  0
  4  6  2  0
  6  7  1  0
  6  8  1  0
  8  9  2  0
  9 10  1  0
 10 11  1  0
 11 12  2  0
 11 13  1  0
 13 14  2  0
 14 15  1  0
 15 16  2  0
 16 17  1  0
 17 18  1  0
 17 19  2  0
 19 20  1  0
  9  2  1  0
 19 13  1  0
M  END
>  <ref_mols>  (67) 
7gov-a

>  <gnina_score>  (67) 
5.169

>  <smina_score_min>  (67) 
-6.113

>  <ref_pdb>  (67) 
7gov-a

>  <inspiration_score>  (67) 
None

>  <inchikey>  (67) 
YXYWYZOWASMPMN-UHFFFAOYSA-N

>  <tags>  (67) 
BulkDock Fragalysis export,openbind_d68ev3c_c2_elabs_scored,openbind_d68ev3c_c2_elabs_scored_4.5plus,openbind_d68ev3c_c2_elabs,openbind_d68ev3c_c2_elabs_scored_5plus,syndirella_product,openbind_d68ev3c_c2_elabs_scored_top80percent,syndirella_placed

>  <smiles>  (67) 
Cc1cc(F)c(F)cc1NC(=O)c1ccnc(Cl)c1Br

>  <subsites>  (67) 
None

>  <rmsd(smina/fragmenstein)>  (67) 
1.135

>  <alias>  (67) 
None

>  <energy_score>  (67) 
-4.974699

>  <HIPPO Pose ID>  (67) 
64063

>  <distance_score>  (67) 
0.747186

>  <HIPPO Compound ID>  (67) 
100298

>  <gnina_score_min>  (67) 
5.096

>  <name>  (67) 
P64063

>  <exports>  (67) 
['/opt/xchem-fragalysis-2/maxwin/BulkDock/OUTPUTS/openbind_d68ev3c_c2_elabs_1LOTQJ3.sdf', '/opt/xchem-fragalysis-2/maxwin/BulkDock/OUTPUTS/openbind_d68ev3c_c2_elabs_1LSYEHW.sdf', '/opt/xchem-fragalysis-2/maxwin/BulkDock/OUTPUTS/openbind_d68ev3c_c2_elabs_1LSYI5W.sdf']

$$$$
P64065
     RDKit          3D

 20 21  0  0  0  0  0  0  0  0999 V2000
    3.5261   -3.8810   33.5608 N   0  0  0  0  0  0  0  0  0  0  0  0
    2.9468   -3.8306   34.5663 C   0  0  0  0  0  0  0  0  0  0  0  0
    2.2072   -3.7467   35.7926 C   0  0  0  0  0  0  0  0  0  0  0  0
    2.6877   -2.9067   36.8110 C   0  0  0  0  0  0  0  0  0  0  0  0
    2.0034   -2.8022   38.0232 C   0  0  0  0  0  0  0  0  0  0  0  0
    0.8375   -3.5301   38.2119 C   0  0  0  0  0  0  0  0  0  0  0  0
    0.1821   -3.4389   39.3768 F   0  0  0  0  0  0  0  0  0  0  0  0
    0.3373   -4.3508   37.2085 C   0  0  0  0  0  0  0  0  0  0  0  0
    1.0210   -4.4724   35.9918 C   0  0  0  0  0  0  0  0  0  0  0  0
    0.4859   -5.2912   34.9906 N   0  0  0  0  0  0  0  0  0  0  0  0
   -0.7122   -6.2657   35.0253 C   0  0  0  0  0  0  0  0  0  0  0  0
   -1.4862   -6.4807   35.8699 O   0  0  0  0  0  0  0  0  0  0  0  0
   -0.9279   -6.9993   33.7210 C   0  0  0  0  0  0  0  0  0  0  0  0
   -0.3096   -6.5844   32.5368 C   0  0  0  0  0  0  0  0  0  0  0  0
    0.5408   -5.5489   32.5055 F   0  0  0  0  0  0  0  0  0  0  0  0
   -0.5952   -7.2266   31.3409 C   0  0  0  0  0  0  0  0  0  0  0  0
   -1.4685   -8.2504   31.2280 N   0  0  0  0  0  0  0  0  0  0  0  0
   -2.0410   -8.6606   32.3793 C   0  0  0  0  0  0  0  0  0  0  0  0
   -1.8259   -8.0774   33.6230 C   0  0  0  0  0  0  0  0  0  0  0  0
   -2.9071   -8.7902   35.0059 Br  0  0  0  0  0  0  0  0  0  0  0  0
  1  2  3  0
  2  3  1  0
  3  4  2  0
  4  5  1  0
  5  6  2  0
  6  7  1  0
  6  8  1  0
  8  9  2  0
  9 10  1  0
 10 11  1  0
 11 12  2  0
 11 13  1  0
 13 14  2  0
 14 15  1  0
 14 16  1  0
 16 17  2  0
 17 18  1  0
 18 19  2  0
 19 20  1  0
  9  3  1  0
 19 13  1  0
M  END
>  <ref_mols>  (68) 
7gov-a

>  <gnina_score>  (68) 
5.141

>  <smina_score_min>  (68) 
-5.244

>  <ref_pdb>  (68) 
7gov-a

>  <inspiration_score>  (68) 
None

>  <inchikey>  (68) 
YXKMSUQCPQPIIY-UHFFFAOYSA-N

>  <tags>  (68) 
BulkDock Fragalysis export,openbind_d68ev3c_c2_elabs_scored,openbind_d68ev3c_c2_elabs_scored_4.5plus,openbind_d68ev3c_c2_elabs,openbind_d68ev3c_c2_elabs_scored_5plus,syndirella_product,openbind_d68ev3c_c2_elabs_scored_top80percent,syndirella_placed

>  <smiles>  (68) 
N#Cc1ccc(F)cc1NC(=O)c1c(F)cncc1Br

>  <subsites>  (68) 
None

>  <rmsd(smina/fragmenstein)>  (68) 
1.194

>  <alias>  (68) 
None

>  <energy_score>  (68) 
-9.771683

>  <HIPPO Pose ID>  (68) 
64065

>  <distance_score>  (68) 
0.775245

>  <HIPPO Compound ID>  (68) 
100301

>  <gnina_score_min>  (68) 
5.003

>  <name>  (68) 
P64065

>  <exports>  (68) 
['/opt/xchem-fragalysis-2/maxwin/BulkDock/OUTPUTS/openbind_d68ev3c_c2_elabs_1LOTQJ3.sdf', '/opt/xchem-fragalysis-2/maxwin/BulkDock/OUTPUTS/openbind_d68ev3c_c2_elabs_1LSYEHW.sdf', '/opt/xchem-fragalysis-2/maxwin/BulkDock/OUTPUTS/openbind_d68ev3c_c2_elabs_1LSYI5W.sdf']

$$$$
P64066
     RDKit          3D

 20 21  0  0  0  0  0  0  0  0999 V2000
    2.9446   -3.8591   34.5135 C   0  0  0  0  0  0  0  0  0  0  0  0
    2.1718   -3.7530   35.7953 C   0  0  0  0  0  0  0  0  0  0  0  0
    2.6411   -2.9193   36.8212 C   0  0  0  0  0  0  0  0  0  0  0  0
    3.7571   -2.1963   36.6382 F   0  0  0  0  0  0  0  0  0  0  0  0
    1.9791   -2.8074   38.0381 C   0  0  0  0  0  0  0  0  0  0  0  0
    0.8208   -3.5374   38.2366 C   0  0  0  0  0  0  0  0  0  0  0  0
    0.1730   -3.4468   39.4061 F   0  0  0  0  0  0  0  0  0  0  0  0
    0.3142   -4.3587   37.2377 C   0  0  0  0  0  0  0  0  0  0  0  0
    0.9893   -4.4765   36.0174 C   0  0  0  0  0  0  0  0  0  0  0  0
    0.4615   -5.2937   35.0170 N   0  0  0  0  0  0  0  0  0  0  0  0
   -0.7277   -6.2776   35.0495 C   0  0  0  0  0  0  0  0  0  0  0  0
   -1.4990   -6.5019   35.8939 O   0  0  0  0  0  0  0  0  0  0  0  0
   -0.9374   -7.0078   33.7412 C   0  0  0  0  0  0  0  0  0  0  0  0
   -0.3086   -6.5957   32.5608 C   0  0  0  0  0  0  0  0  0  0  0  0
    0.5565   -5.5715   32.5340 F   0  0  0  0  0  0  0  0  0  0  0  0
   -0.5937   -7.2332   31.3617 C   0  0  0  0  0  0  0  0  0  0  0  0
   -1.4719   -8.2514   31.2413 N   0  0  0  0  0  0  0  0  0  0  0  0
   -2.0515   -8.6612   32.3893 C   0  0  0  0  0  0  0  0  0  0  0  0
   -1.8395   -8.0821   33.6358 C   0  0  0  0  0  0  0  0  0  0  0  0
   -2.9294   -8.7962   35.0115 Br  0  0  0  0  0  0  0  0  0  0  0  0
  1  2  1  0
  2  3  2  0
  3  4  1  0
  3  5  1  0
  5  6  2  0
  6  7  1  0
  6  8  1  0
  8  9  2  0
  9 10  1  0
 10 11  1  0
 11 12  2  0
 11 13  1  0
 13 14  2  0
 14 15  1  0
 14 16  1  0
 16 17  2  0
 17 18  1  0
 18 19  2  0
 19 20  1  0
  9  2  1  0
 19 13  1  0
M  END
>  <ref_mols>  (69) 
7gov-a

>  <gnina_score>  (69) 
5.21

>  <smina_score_min>  (69) 
-5.739

>  <ref_pdb>  (69) 
7gov-a

>  <inspiration_score>  (69) 
None

>  <inchikey>  (69) 
KTKPOAYVRFNVCR-UHFFFAOYSA-N

>  <tags>  (69) 
BulkDock Fragalysis export,openbind_d68ev3c_c2_elabs_scored,openbind_d68ev3c_c2_elabs_scored_4.5plus,openbind_d68ev3c_c2_elabs,openbind_d68ev3c_c2_elabs_scored_5plus,syndirella_product,openbind_d68ev3c_c2_elabs_scored_top80percent,syndirella_placed

>  <smiles>  (69) 
Cc1c(F)cc(F)cc1NC(=O)c1c(F)cncc1Br

>  <subsites>  (69) 
None

>  <rmsd(smina/fragmenstein)>  (69) 
1.158

>  <alias>  (69) 
None

>  <energy_score>  (69) 
-28.628846

>  <HIPPO Pose ID>  (69) 
64066

>  <distance_score>  (69) 
0.775319

>  <HIPPO Compound ID>  (69) 
100302

>  <gnina_score_min>  (69) 
5.087

>  <name>  (69) 
P64066

>  <exports>  (69) 
['/opt/xchem-fragalysis-2/maxwin/BulkDock/OUTPUTS/openbind_d68ev3c_c2_elabs_1LOTQJ3.sdf', '/opt/xchem-fragalysis-2/maxwin/BulkDock/OUTPUTS/openbind_d68ev3c_c2_elabs_1LSYEHW.sdf', '/opt/xchem-fragalysis-2/maxwin/BulkDock/OUTPUTS/openbind_d68ev3c_c2_elabs_1LSYI5W.sdf']

$$$$
P64068
     RDKit          3D

 20 21  0  0  0  0  0  0  0  0999 V2000
    3.4902   -3.8977   34.0217 N   0  0  0  0  0  0  0  0  0  0  0  0
    2.8526   -3.8291   34.9912 C   0  0  0  0  0  0  0  0  0  0  0  0
    2.0194   -3.6492   36.1507 C   0  0  0  0  0  0  0  0  0  0  0  0
    2.5223   -2.9652   37.2616 C   0  0  0  0  0  0  0  0  0  0  0  0
    1.7193   -2.7838   38.3879 C   0  0  0  0  0  0  0  0  0  0  0  0
    0.4091   -3.2536   38.3835 C   0  0  0  0  0  0  0  0  0  0  0  0
   -0.3321   -3.1301   39.4907 F   0  0  0  0  0  0  0  0  0  0  0  0
   -0.1342   -3.8774   37.2682 C   0  0  0  0  0  0  0  0  0  0  0  0
    0.6831   -4.0883   36.1632 C   0  0  0  0  0  0  0  0  0  0  0  0
    0.2193   -4.8849   35.1340 N   0  0  0  0  0  0  0  0  0  0  0  0
    0.5452   -6.3400   34.7762 C   0  0  0  0  0  0  0  0  0  0  0  0
    1.3132   -7.0777   35.2438 O   0  0  0  0  0  0  0  0  0  0  0  0
   -0.2077   -6.7618   33.5860 C   0  0  0  0  0  0  0  0  0  0  0  0
    0.2628   -6.3692   32.3295 C   0  0  0  0  0  0  0  0  0  0  0  0
   -0.3644   -6.8830   31.2101 C   0  0  0  0  0  0  0  0  0  0  0  0
   -1.4110   -7.7287   31.2734 N   0  0  0  0  0  0  0  0  0  0  0  0
   -1.8117   -8.0856   32.5179 C   0  0  0  0  0  0  0  0  0  0  0  0
   -3.1166   -9.1707   32.4698 Cl  0  0  0  0  0  0  0  0  0  0  0  0
   -1.2761   -7.6272   33.7062 C   0  0  0  0  0  0  0  0  0  0  0  0
   -1.9360   -8.0366   35.2360 Cl  0  0  0  0  0  0  0  0  0  0  0  0
  1  2  3  0
  2  3  1  0
  3  4  2  0
  4  5  1  0
  5  6  2  0
  6  7  1  0
  6  8  1  0
  8  9  2  0
  9 10  1  0
 10 11  1  0
 11 12  2  0
 11 13  1  0
 13 14  2  0
 14 15  1  0
 15 16  2  0
 16 17  1  0
 17 18  1  0
 17 19  2  0
 19 20  1  0
  9  3  1  0
 19 13  1  0
M  END
>  <ref_mols>  (70) 
7gov-a

>  <gnina_score>  (70) 
5.134

>  <smina_score_min>  (70) 
-5.218

>  <ref_pdb>  (70) 
7gov-a

>  <inspiration_score>  (70) 
None

>  <inchikey>  (70) 
IFWVQBAHAQNDPF-UHFFFAOYSA-N

>  <tags>  (70) 
BulkDock Fragalysis export,openbind_d68ev3c_c2_elabs_scored,openbind_d68ev3c_c2_elabs_scored_4.5plus,openbind_d68ev3c_c2_elabs,openbind_d68ev3c_c2_elabs_scored_5plus,syndirella_product,openbind_d68ev3c_c2_elabs_scored_top80percent,syndirella_placed

>  <smiles>  (70) 
N#Cc1ccc(F)cc1NC(=O)c1ccnc(Cl)c1Cl

>  <subsites>  (70) 
None

>  <rmsd(smina/fragmenstein)>  (70) 
1.054

>  <alias>  (70) 
None

>  <energy_score>  (70) 
-0.009223

>  <HIPPO Pose ID>  (70) 
64068

>  <distance_score>  (70) 
0.547655

>  <HIPPO Compound ID>  (70) 
100304

>  <gnina_score_min>  (70) 
5.021

>  <name>  (70) 
P64068

>  <exports>  (70) 
['/opt/xchem-fragalysis-2/maxwin/BulkDock/OUTPUTS/openbind_d68ev3c_c2_elabs_1LOTQJ3.sdf', '/opt/xchem-fragalysis-2/maxwin/BulkDock/OUTPUTS/openbind_d68ev3c_c2_elabs_1LSYEHW.sdf', '/opt/xchem-fragalysis-2/maxwin/BulkDock/OUTPUTS/openbind_d68ev3c_c2_elabs_1LSYI5W.sdf']

$$$$
P64072
     RDKit          3D

 20 21  0  0  0  0  0  0  0  0999 V2000
    3.1550   -3.5869   34.9923 C   0  0  0  0  0  0  0  0  0  0  0  0
    2.3528   -3.4894   36.2666 C   0  0  0  0  0  0  0  0  0  0  0  0
    2.7005   -2.6226   37.3187 C   0  0  0  0  0  0  0  0  0  0  0  0
    4.1889   -1.4397   37.2405 Br  0  0  0  0  0  0  0  0  0  0  0  0
    1.9486   -2.5867   38.4970 C   0  0  0  0  0  0  0  0  0  0  0  0
    0.8383   -3.4040   38.6294 C   0  0  0  0  0  0  0  0  0  0  0  0
    0.1214   -3.3718   39.7596 F   0  0  0  0  0  0  0  0  0  0  0  0
    0.4508   -4.2489   37.6078 C   0  0  0  0  0  0  0  0  0  0  0  0
    1.2050   -4.2957   36.4359 C   0  0  0  0  0  0  0  0  0  0  0  0
    0.8037   -5.1294   35.3997 N   0  0  0  0  0  0  0  0  0  0  0  0
   -0.4310   -6.0411   35.2698 C   0  0  0  0  0  0  0  0  0  0  0  0
   -1.2672   -6.2963   36.0419 O   0  0  0  0  0  0  0  0  0  0  0  0
   -0.5765   -6.5745   33.8920 C   0  0  0  0  0  0  0  0  0  0  0  0
   -1.2875   -7.7507   33.7472 C   0  0  0  0  0  0  0  0  0  0  0  0
   -1.5658   -8.1390   32.4627 C   0  0  0  0  0  0  0  0  0  0  0  0
   -2.5286   -9.4925   32.1982 Cl  0  0  0  0  0  0  0  0  0  0  0  0
   -1.1939   -7.5082   31.3351 N   0  0  0  0  0  0  0  0  0  0  0  0
   -0.4599   -6.3981   31.5143 C   0  0  0  0  0  0  0  0  0  0  0  0
    0.1164   -5.4174   30.0012 Br  0  0  0  0  0  0  0  0  0  0  0  0
   -0.1587   -5.8758   32.7582 C   0  0  0  0  0  0  0  0  0  0  0  0
  1  2  1  0
  2  3  2  0
  3  4  1  0
  3  5  1  0
  5  6  2  0
  6  7  1  0
  6  8  1  0
  8  9  2  0
  9 10  1  0
 10 11  1  0
 11 12  2  0
 11 13  1  0
 13 14  2  0
 14 15  1  0
 15 16  1  0
 15 17  2  0
 17 18  1  0
 18 19  1  0
 18 20  2  0
  9  2  1  0
 20 13  1  0
M  END
>  <ref_mols>  (71) 
7gov-a

>  <gnina_score>  (71) 
5.1

>  <smina_score_min>  (71) 
-5.292

>  <ref_pdb>  (71) 
7gov-a

>  <inspiration_score>  (71) 
None

>  <inchikey>  (71) 
ZSWUWOHNDBIKFH-UHFFFAOYSA-N

>  <tags>  (71) 
BulkDock Fragalysis export,openbind_d68ev3c_c2_elabs_scored,openbind_d68ev3c_c2_elabs_scored_4.5plus,openbind_d68ev3c_c2_elabs,openbind_d68ev3c_c2_elabs_scored_5plus,syndirella_product,openbind_d68ev3c_c2_elabs_scored_top80percent,syndirella_placed

>  <smiles>  (71) 
Cc1c(Br)cc(F)cc1NC(=O)c1cc(Cl)nc(Br)c1

>  <subsites>  (71) 
None

>  <rmsd(smina/fragmenstein)>  (71) 
1.21

>  <alias>  (71) 
None

>  <energy_score>  (71) 
-14.810957

>  <HIPPO Pose ID>  (71) 
64072

>  <distance_score>  (71) 
0.981353

>  <HIPPO Compound ID>  (71) 
100308

>  <gnina_score_min>  (71) 
5.009

>  <name>  (71) 
P64072

>  <exports>  (71) 
['/opt/xchem-fragalysis-2/maxwin/BulkDock/OUTPUTS/openbind_d68ev3c_c2_elabs_1LOTQJ3.sdf', '/opt/xchem-fragalysis-2/maxwin/BulkDock/OUTPUTS/openbind_d68ev3c_c2_elabs_1LSYEHW.sdf', '/opt/xchem-fragalysis-2/maxwin/BulkDock/OUTPUTS/openbind_d68ev3c_c2_elabs_1LSYI5W.sdf']

$$$$
P64078
     RDKit          3D

 20 21  0  0  0  0  0  0  0  0999 V2000
    2.7638   -3.4940   34.1038 C   0  0  0  0  0  0  0  0  0  0  0  0
    2.1573   -3.4440   35.4777 C   0  0  0  0  0  0  0  0  0  0  0  0
    2.7488   -2.6280   36.4590 C   0  0  0  0  0  0  0  0  0  0  0  0
    2.2689   -2.6189   37.7680 C   0  0  0  0  0  0  0  0  0  0  0  0
    1.2005   -3.4330   38.1069 C   0  0  0  0  0  0  0  0  0  0  0  0
    0.7205   -3.3800   39.3613 F   0  0  0  0  0  0  0  0  0  0  0  0
    0.6090   -4.2619   37.1554 C   0  0  0  0  0  0  0  0  0  0  0  0
   -0.9179   -5.2122   37.7051 Br  0  0  0  0  0  0  0  0  0  0  0  0
    1.0790   -4.2721   35.8317 C   0  0  0  0  0  0  0  0  0  0  0  0
    0.4819   -5.0626   34.8434 N   0  0  0  0  0  0  0  0  0  0  0  0
    0.2130   -6.5830   34.8018 C   0  0  0  0  0  0  0  0  0  0  0  0
    0.3770   -7.4018   35.6154 O   0  0  0  0  0  0  0  0  0  0  0  0
   -0.4489   -7.0085   33.5338 C   0  0  0  0  0  0  0  0  0  0  0  0
    0.0379   -6.5672   32.3030 C   0  0  0  0  0  0  0  0  0  0  0  0
   -0.6007   -7.0162   31.1622 C   0  0  0  0  0  0  0  0  0  0  0  0
   -0.2245   -6.3576   29.6294 Cl  0  0  0  0  0  0  0  0  0  0  0  0
   -1.6307   -7.8898   31.1440 N   0  0  0  0  0  0  0  0  0  0  0  0
   -2.0514   -8.3263   32.3479 C   0  0  0  0  0  0  0  0  0  0  0  0
   -1.5315   -7.8943   33.5549 C   0  0  0  0  0  0  0  0  0  0  0  0
   -2.4682   -8.4423   35.0895 Br  0  0  0  0  0  0  0  0  0  0  0  0
  1  2  1  0
  2  3  2  0
  3  4  1  0
  4  5  2  0
  5  6  1  0
  5  7  1  0
  7  8  1  0
  7  9  2  0
  9 10  1  0
 10 11  1  0
 11 12  2  0
 11 13  1  0
 13 14  2  0
 14 15  1  0
 15 16  1  0
 15 17  2  0
 17 18  1  0
 18 19  2  0
 19 20  1  0
  9  2  1  0
 19 13  1  0
M  END
>  <ref_mols>  (72) 
7gov-a

>  <gnina_score>  (72) 
5.392

>  <smina_score_min>  (72) 
-4.912

>  <ref_pdb>  (72) 
7gov-a

>  <inspiration_score>  (72) 
None

>  <inchikey>  (72) 
BOWVFUVULKCHQL-UHFFFAOYSA-N

>  <tags>  (72) 
BulkDock Fragalysis export,openbind_d68ev3c_c2_elabs_scored,openbind_d68ev3c_c2_elabs_scored_4.5plus,openbind_d68ev3c_c2_elabs,openbind_d68ev3c_c2_elabs_scored_5plus,syndirella_product,openbind_d68ev3c_c2_elabs_scored_top80percent,syndirella_placed

>  <smiles>  (72) 
Cc1ccc(F)c(Br)c1NC(=O)c1cc(Cl)ncc1Br

>  <subsites>  (72) 
None

>  <rmsd(smina/fragmenstein)>  (72) 
0.374

>  <alias>  (72) 
None

>  <energy_score>  (72) 
-6.52919

>  <HIPPO Pose ID>  (72) 
64078

>  <distance_score>  (72) 
0.553896

>  <HIPPO Compound ID>  (72) 
100317

>  <gnina_score_min>  (72) 
5.293

>  <name>  (72) 
P64078

>  <exports>  (72) 
['/opt/xchem-fragalysis-2/maxwin/BulkDock/OUTPUTS/openbind_d68ev3c_c2_elabs_1LOTQJ3.sdf', '/opt/xchem-fragalysis-2/maxwin/BulkDock/OUTPUTS/openbind_d68ev3c_c2_elabs_1LSYEHW.sdf', '/opt/xchem-fragalysis-2/maxwin/BulkDock/OUTPUTS/openbind_d68ev3c_c2_elabs_1LSYI5W.sdf']

$$$$
P64079
     RDKit          3D

 20 21  0  0  0  0  0  0  0  0999 V2000
    2.9008   -3.4059   33.3956 N   0  0  0  0  0  0  0  0  0  0  0  0
    2.4786   -3.4594   34.4759 C   0  0  0  0  0  0  0  0  0  0  0  0
    1.8875   -3.5242   35.7807 C   0  0  0  0  0  0  0  0  0  0  0  0
    2.3873   -2.7056   36.8035 C   0  0  0  0  0  0  0  0  0  0  0  0
    1.8523   -2.7871   38.0906 C   0  0  0  0  0  0  0  0  0  0  0  0
    0.8344   -3.6956   38.3535 C   0  0  0  0  0  0  0  0  0  0  0  0
    0.3077   -3.7588   39.5833 F   0  0  0  0  0  0  0  0  0  0  0  0
    0.3425   -4.5289   37.3568 C   0  0  0  0  0  0  0  0  0  0  0  0
    0.8572   -4.4356   36.0611 C   0  0  0  0  0  0  0  0  0  0  0  0
    0.3146   -5.2414   35.0614 N   0  0  0  0  0  0  0  0  0  0  0  0
   -0.3528   -6.6310   35.1455 C   0  0  0  0  0  0  0  0  0  0  0  0
   -0.6218   -7.2841   36.0719 O   0  0  0  0  0  0  0  0  0  0  0  0
   -0.7797   -7.1578   33.7933 C   0  0  0  0  0  0  0  0  0  0  0  0
   -0.1620   -6.7218   32.6119 C   0  0  0  0  0  0  0  0  0  0  0  0
   -0.6699   -7.1552   31.4000 C   0  0  0  0  0  0  0  0  0  0  0  0
   -0.1923   -6.4101   29.9358 Cl  0  0  0  0  0  0  0  0  0  0  0  0
   -1.6627   -8.0547   31.2628 N   0  0  0  0  0  0  0  0  0  0  0  0
   -2.1820   -8.5294   32.4118 C   0  0  0  0  0  0  0  0  0  0  0  0
   -1.8214   -8.0929   33.6782 C   0  0  0  0  0  0  0  0  0  0  0  0
   -2.9418   -8.7238   35.0656 Br  0  0  0  0  0  0  0  0  0  0  0  0
  1  2  3  0
  2  3  1  0
  3  4  2  0
  4  5  1  0
  5  6  2  0
  6  7  1  0
  6  8  1  0
  8  9  2  0
  9 10  1  0
 10 11  1  0
 11 12  2  0
 11 13  1  0
 13 14  2  0
 14 15  1  0
 15 16  1  0
 15 17  2  0
 17 18  1  0
 18 19  2  0
 19 20  1  0
  9  3  1  0
 19 13  1  0
M  END
>  <ref_mols>  (73) 
7gov-a

>  <gnina_score>  (73) 
5.18

>  <smina_score_min>  (73) 
-5.682

>  <ref_pdb>  (73) 
7gov-a

>  <inspiration_score>  (73) 
None

>  <inchikey>  (73) 
SGEVXRMCURISBS-UHFFFAOYSA-N

>  <tags>  (73) 
BulkDock Fragalysis export,openbind_d68ev3c_c2_elabs_scored,openbind_d68ev3c_c2_elabs_scored_4.5plus,openbind_d68ev3c_c2_elabs,openbind_d68ev3c_c2_elabs_scored_5plus,syndirella_product,openbind_d68ev3c_c2_elabs_scored_top80percent,syndirella_placed

>  <smiles>  (73) 
N#Cc1ccc(F)cc1NC(=O)c1cc(Cl)ncc1Br

>  <subsites>  (73) 
None

>  <rmsd(smina/fragmenstein)>  (73) 
1.046

>  <alias>  (73) 
None

>  <energy_score>  (73) 
-5.578543

>  <HIPPO Pose ID>  (73) 
64079

>  <distance_score>  (73) 
0.600914

>  <HIPPO Compound ID>  (73) 
100318

>  <gnina_score_min>  (73) 
5.162

>  <name>  (73) 
P64079

>  <exports>  (73) 
['/opt/xchem-fragalysis-2/maxwin/BulkDock/OUTPUTS/openbind_d68ev3c_c2_elabs_1LOTQJ3.sdf', '/opt/xchem-fragalysis-2/maxwin/BulkDock/OUTPUTS/openbind_d68ev3c_c2_elabs_1LSYEHW.sdf', '/opt/xchem-fragalysis-2/maxwin/BulkDock/OUTPUTS/openbind_d68ev3c_c2_elabs_1LSYI5W.sdf']

$$$$
P64080
     RDKit          3D

 20 21  0  0  0  0  0  0  0  0999 V2000
    2.5400   -3.4500   34.4350 C   0  0  0  0  0  0  0  0  0  0  0  0
    1.8653   -3.5064   35.7775 C   0  0  0  0  0  0  0  0  0  0  0  0
    2.3070   -2.6572   36.8057 C   0  0  0  0  0  0  0  0  0  0  0  0
    1.7534   -2.7577   38.0757 C   0  0  0  0  0  0  0  0  0  0  0  0
    2.1907   -1.9095   39.0543 O   0  0  0  0  0  0  0  0  0  0  0  0
    0.7711   -3.7042   38.3408 C   0  0  0  0  0  0  0  0  0  0  0  0
    0.2374   -3.7738   39.5696 F   0  0  0  0  0  0  0  0  0  0  0  0
    0.3283   -4.5624   37.3458 C   0  0  0  0  0  0  0  0  0  0  0  0
    0.8659   -4.4558   36.0611 C   0  0  0  0  0  0  0  0  0  0  0  0
    0.4030   -5.2928   35.0521 N   0  0  0  0  0  0  0  0  0  0  0  0
   -0.3046   -6.6629   35.1315 C   0  0  0  0  0  0  0  0  0  0  0  0
   -0.5405   -7.3384   36.0510 O   0  0  0  0  0  0  0  0  0  0  0  0
   -0.7643   -7.1651   33.7830 C   0  0  0  0  0  0  0  0  0  0  0  0
   -0.1550   -6.7281   32.5983 C   0  0  0  0  0  0  0  0  0  0  0  0
   -0.6756   -7.1535   31.3897 C   0  0  0  0  0  0  0  0  0  0  0  0
   -0.1966   -6.4120   29.9239 Cl  0  0  0  0  0  0  0  0  0  0  0  0
   -1.6760   -8.0445   31.2574 N   0  0  0  0  0  0  0  0  0  0  0  0
   -2.1915   -8.5169   32.4095 C   0  0  0  0  0  0  0  0  0  0  0  0
   -1.8161   -8.0883   33.6743 C   0  0  0  0  0  0  0  0  0  0  0  0
   -2.9272   -8.7125   35.0709 Br  0  0  0  0  0  0  0  0  0  0  0  0
  1  2  1  0
  2  3  2  0
  3  4  1  0
  4  5  1  0
  4  6  2  0
  6  7  1  0
  6  8  1  0
  8  9  2  0
  9 10  1  0
 10 11  1  0
 11 12  2  0
 11 13  1  0
 13 14  2  0
 14 15  1  0
 15 16  1  0
 15 17  2  0
 17 18  1  0
 18 19  2  0
 19 20  1  0
  9  2  1  0
 19 13  1  0
M  END
>  <ref_mols>  (74) 
7gov-a

>  <gnina_score>  (74) 
5.083

>  <smina_score_min>  (74) 
-5.871

>  <ref_pdb>  (74) 
7gov-a

>  <inspiration_score>  (74) 
None

>  <inchikey>  (74) 
FUWACVMPTJWXSM-UHFFFAOYSA-N

>  <tags>  (74) 
BulkDock Fragalysis export,openbind_d68ev3c_c2_elabs_scored,openbind_d68ev3c_c2_elabs_scored_4.5plus,openbind_d68ev3c_c2_elabs,openbind_d68ev3c_c2_elabs_scored_5plus,syndirella_product,openbind_d68ev3c_c2_elabs_scored_top80percent,syndirella_placed

>  <smiles>  (74) 
Cc1cc(O)c(F)cc1NC(=O)c1cc(Cl)ncc1Br

>  <subsites>  (74) 
None

>  <rmsd(smina/fragmenstein)>  (74) 
0.997

>  <alias>  (74) 
None

>  <energy_score>  (74) 
-39.869533

>  <HIPPO Pose ID>  (74) 
64080

>  <distance_score>  (74) 
0.587885

>  <HIPPO Compound ID>  (74) 
100320

>  <gnina_score_min>  (74) 
5.134

>  <name>  (74) 
P64080

>  <exports>  (74) 
['/opt/xchem-fragalysis-2/maxwin/BulkDock/OUTPUTS/openbind_d68ev3c_c2_elabs_1LOTQJ3.sdf', '/opt/xchem-fragalysis-2/maxwin/BulkDock/OUTPUTS/openbind_d68ev3c_c2_elabs_1LSYEHW.sdf', '/opt/xchem-fragalysis-2/maxwin/BulkDock/OUTPUTS/openbind_d68ev3c_c2_elabs_1LSYI5W.sdf']

$$$$
P64081
     RDKit          3D

 20 21  0  0  0  0  0  0  0  0999 V2000
   -0.7695   -7.2474   36.1297 O   0  0  0  0  0  0  0  0  0  0  0  0
   -0.4438   -6.6195   35.2040 C   0  0  0  0  0  0  0  0  0  0  0  0
    0.2697   -5.2538   35.1235 N   0  0  0  0  0  0  0  0  0  0  0  0
    0.7955   -4.4515   36.1253 C   0  0  0  0  0  0  0  0  0  0  0  0
    0.2852   -4.5296   37.4200 C   0  0  0  0  0  0  0  0  0  0  0  0
    0.7851   -3.6826   38.3978 C   0  0  0  0  0  0  0  0  0  0  0  0
    0.2718   -3.7287   39.6344 F   0  0  0  0  0  0  0  0  0  0  0  0
    1.8004   -2.7784   38.1123 C   0  0  0  0  0  0  0  0  0  0  0  0
    2.3264   -2.7153   36.8208 C   0  0  0  0  0  0  0  0  0  0  0  0
    1.8214   -3.5439   35.8063 C   0  0  0  0  0  0  0  0  0  0  0  0
    2.4621   -3.5353   34.4418 C   0  0  0  0  0  0  0  0  0  0  0  0
    1.4634   -3.3764   33.4317 O   0  0  0  0  0  0  0  0  0  0  0  0
   -0.8311   -7.1599   33.8411 C   0  0  0  0  0  0  0  0  0  0  0  0
   -0.1991   -6.7186   32.6682 C   0  0  0  0  0  0  0  0  0  0  0  0
   -0.6800   -7.1566   31.4467 C   0  0  0  0  0  0  0  0  0  0  0  0
   -0.1830   -6.4032   29.9925 Cl  0  0  0  0  0  0  0  0  0  0  0  0
   -1.6576   -8.0691   31.2899 N   0  0  0  0  0  0  0  0  0  0  0  0
   -2.1897   -8.5501   32.4306 C   0  0  0  0  0  0  0  0  0  0  0  0
   -1.8575   -8.1095   33.7048 C   0  0  0  0  0  0  0  0  0  0  0  0
   -2.9987   -8.7575   35.0691 Br  0  0  0  0  0  0  0  0  0  0  0  0
  1  2  2  0
  2  3  1  0
  3  4  1  0
  4  5  2  0
  5  6  1  0
  6  7  1  0
  6  8  2  0
  8  9  1  0
  9 10  2  0
 10 11  1  0
 11 12  1  0
  2 13  1  0
 13 14  2  0
 14 15  1  0
 15 16  1  0
 15 17  2  0
 17 18  1  0
 18 19  2  0
 19 20  1  0
 10  4  1  0
 19 13  1  0
M  END
>  <ref_mols>  (75) 
7gov-a

>  <gnina_score>  (75) 
5.005

>  <smina_score_min>  (75) 
-5.709

>  <ref_pdb>  (75) 
7gov-a

>  <inspiration_score>  (75) 
None

>  <inchikey>  (75) 
RBBNFFPEYDLUEA-UHFFFAOYSA-N

>  <tags>  (75) 
BulkDock Fragalysis export,openbind_d68ev3c_c2_elabs_scored,openbind_d68ev3c_c2_elabs_scored_4.5plus,openbind_d68ev3c_c2_elabs,openbind_d68ev3c_c2_elabs_scored_5plus,syndirella_product,openbind_d68ev3c_c2_elabs_scored_top80percent,syndirella_placed

>  <smiles>  (75) 
O=C(Nc1cc(F)ccc1CO)c1cc(Cl)ncc1Br

>  <subsites>  (75) 
None

>  <rmsd(smina/fragmenstein)>  (75) 
0.887

>  <alias>  (75) 
None

>  <energy_score>  (75) 
-12.798063

>  <HIPPO Pose ID>  (75) 
64081

>  <distance_score>  (75) 
0.640605

>  <HIPPO Compound ID>  (75) 
100321

>  <gnina_score_min>  (75) 
5.01

>  <name>  (75) 
P64081

>  <exports>  (75) 
['/opt/xchem-fragalysis-2/maxwin/BulkDock/OUTPUTS/openbind_d68ev3c_c2_elabs_1LOTQJ3.sdf', '/opt/xchem-fragalysis-2/maxwin/BulkDock/OUTPUTS/openbind_d68ev3c_c2_elabs_1LSYEHW.sdf', '/opt/xchem-fragalysis-2/maxwin/BulkDock/OUTPUTS/openbind_d68ev3c_c2_elabs_1LSYI5W.sdf']

$$$$
P64082
     RDKit          3D

 20 21  0  0  0  0  0  0  0  0999 V2000
    3.3453   -3.5952   34.8945 C   0  0  0  0  0  0  0  0  0  0  0  0
    2.4695   -3.5005   36.1159 C   0  0  0  0  0  0  0  0  0  0  0  0
    2.7946   -2.6528   37.1947 C   0  0  0  0  0  0  0  0  0  0  0  0
    4.3085   -1.4973   37.1760 Br  0  0  0  0  0  0  0  0  0  0  0  0
    2.0054   -2.6130   38.3477 C   0  0  0  0  0  0  0  0  0  0  0  0
    0.8715   -3.4012   38.4253 C   0  0  0  0  0  0  0  0  0  0  0  0
    0.1187   -3.3745   39.5329 F   0  0  0  0  0  0  0  0  0  0  0  0
    0.4944   -4.2057   37.3658 C   0  0  0  0  0  0  0  0  0  0  0  0
    1.2844   -4.2566   36.2123 C   0  0  0  0  0  0  0  0  0  0  0  0
    0.8632   -5.0523   35.1496 N   0  0  0  0  0  0  0  0  0  0  0  0
   -0.3300   -6.0111   35.0327 C   0  0  0  0  0  0  0  0  0  0  0  0
   -1.1097   -6.3493   35.8320 O   0  0  0  0  0  0  0  0  0  0  0  0
   -0.5001   -6.5925   33.6552 C   0  0  0  0  0  0  0  0  0  0  0  0
   -1.3526   -7.6985   33.6449 C   0  0  0  0  0  0  0  0  0  0  0  0
   -1.7497   -8.2034   32.4361 C   0  0  0  0  0  0  0  0  0  0  0  0
   -2.9977   -9.3265   32.3845 Cl  0  0  0  0  0  0  0  0  0  0  0  0
   -1.3290   -7.7915   31.2336 N   0  0  0  0  0  0  0  0  0  0  0  0
   -0.4408   -6.7790   31.2611 C   0  0  0  0  0  0  0  0  0  0  0  0
   -0.0262   -6.1214   32.4220 C   0  0  0  0  0  0  0  0  0  0  0  0
    1.0568   -4.5973   32.1358 Br  0  0  0  0  0  0  0  0  0  0  0  0
  1  2  1  0
  2  3  2  0
  3  4  1  0
  3  5  1  0
  5  6  2  0
  6  7  1  0
  6  8  1  0
  8  9  2  0
  9 10  1  0
 10 11  1  0
 11 12  2  0
 11 13  1  0
 13 14  2  0
 14 15  1  0
 15 16  1  0
 15 17  2  0
 17 18  1  0
 18 19  2  0
 19 20  1  0
  9  2  1  0
 19 13  1  0
M  END
>  <ref_mols>  (76) 
7gov-a

>  <gnina_score>  (76) 
5.217

>  <smina_score_min>  (76) 
-5.817

>  <ref_pdb>  (76) 
7gov-a

>  <inspiration_score>  (76) 
None

>  <inchikey>  (76) 
KJEKXTHXDAXJPT-UHFFFAOYSA-N

>  <tags>  (76) 
BulkDock Fragalysis export,openbind_d68ev3c_c2_elabs_scored,openbind_d68ev3c_c2_elabs_scored_4.5plus,openbind_d68ev3c_c2_elabs,openbind_d68ev3c_c2_elabs_scored_5plus,syndirella_product,openbind_d68ev3c_c2_elabs_scored_top80percent,syndirella_placed

>  <smiles>  (76) 
Cc1c(Br)cc(F)cc1NC(=O)c1cc(Cl)ncc1Br

>  <subsites>  (76) 
None

>  <rmsd(smina/fragmenstein)>  (76) 
1.223

>  <alias>  (76) 
None

>  <energy_score>  (76) 
-14.731467

>  <HIPPO Pose ID>  (76) 
64082

>  <distance_score>  (76) 
0.857005

>  <HIPPO Compound ID>  (76) 
100322

>  <gnina_score_min>  (76) 
5.052

>  <name>  (76) 
P64082

>  <exports>  (76) 
['/opt/xchem-fragalysis-2/maxwin/BulkDock/OUTPUTS/openbind_d68ev3c_c2_elabs_1LOTQJ3.sdf', '/opt/xchem-fragalysis-2/maxwin/BulkDock/OUTPUTS/openbind_d68ev3c_c2_elabs_1LSYEHW.sdf', '/opt/xchem-fragalysis-2/maxwin/BulkDock/OUTPUTS/openbind_d68ev3c_c2_elabs_1LSYI5W.sdf']

$$$$
P64084
     RDKit          3D

 20 21  0  0  0  0  0  0  0  0999 V2000
    2.7832   -3.0077   34.4565 C   0  0  0  0  0  0  0  0  0  0  0  0
    2.0965   -3.1506   35.7811 C   0  0  0  0  0  0  0  0  0  0  0  0
    2.4870   -2.3717   36.8759 C   0  0  0  0  0  0  0  0  0  0  0  0
    3.4125   -1.4134   36.7153 F   0  0  0  0  0  0  0  0  0  0  0  0
    1.9344   -2.5507   38.1409 C   0  0  0  0  0  0  0  0  0  0  0  0
    0.9918   -3.5480   38.3270 C   0  0  0  0  0  0  0  0  0  0  0  0
    0.4294   -3.7159   39.5316 F   0  0  0  0  0  0  0  0  0  0  0  0
    0.6086   -4.3650   37.2748 C   0  0  0  0  0  0  0  0  0  0  0  0
    1.1511   -4.1524   36.0042 C   0  0  0  0  0  0  0  0  0  0  0  0
    0.7243   -4.9579   34.9632 N   0  0  0  0  0  0  0  0  0  0  0  0
    0.3669   -6.4484   34.9392 C   0  0  0  0  0  0  0  0  0  0  0  0
    0.4469   -7.2563   35.7717 O   0  0  0  0  0  0  0  0  0  0  0  0
   -0.2648   -6.8468   33.6583 C   0  0  0  0  0  0  0  0  0  0  0  0
    0.2749   -6.4538   32.4284 C   0  0  0  0  0  0  0  0  0  0  0  0
   -0.3094   -6.9332   31.2674 C   0  0  0  0  0  0  0  0  0  0  0  0
   -1.3704   -7.7607   31.2572 N   0  0  0  0  0  0  0  0  0  0  0  0
   -1.8449   -8.1226   32.4711 C   0  0  0  0  0  0  0  0  0  0  0  0
   -3.1559   -9.1931   32.3564 Cl  0  0  0  0  0  0  0  0  0  0  0  0
   -1.3736   -7.6860   33.6923 C   0  0  0  0  0  0  0  0  0  0  0  0
   -2.2125   -8.1021   35.1433 Cl  0  0  0  0  0  0  0  0  0  0  0  0
  1  2  1  0
  2  3  2  0
  3  4  1  0
  3  5  1  0
  5  6  2  0
  6  7  1  0
  6  8  1  0
  8  9  2  0
  9 10  1  0
 10 11  1  0
 11 12  2  0
 11 13  1  0
 13 14  2  0
 14 15  1  0
 15 16  2  0
 16 17  1  0
 17 18  1  0
 17 19  2  0
 19 20  1  0
  9  2  1  0
 19 13  1  0
M  END
>  <ref_mols>  (77) 
7gov-a

>  <gnina_score>  (77) 
5.103

>  <smina_score_min>  (77) 
-5.473

>  <ref_pdb>  (77) 
7gov-a

>  <inspiration_score>  (77) 
None

>  <inchikey>  (77) 
VZERIUNURFZCIS-UHFFFAOYSA-N

>  <tags>  (77) 
BulkDock Fragalysis export,openbind_d68ev3c_c2_elabs_scored,openbind_d68ev3c_c2_elabs_scored_4.5plus,openbind_d68ev3c_c2_elabs,openbind_d68ev3c_c2_elabs_scored_5plus,syndirella_product,openbind_d68ev3c_c2_elabs_scored_top80percent,syndirella_placed

>  <smiles>  (77) 
Cc1c(F)cc(F)cc1NC(=O)c1ccnc(Cl)c1Cl

>  <subsites>  (77) 
None

>  <rmsd(smina/fragmenstein)>  (77) 
1.323

>  <alias>  (77) 
None

>  <energy_score>  (77) 
-3.090701

>  <HIPPO Pose ID>  (77) 
64084

>  <distance_score>  (77) 
0.639785

>  <HIPPO Compound ID>  (77) 
100324

>  <gnina_score_min>  (77) 
5.047

>  <name>  (77) 
P64084

>  <exports>  (77) 
['/opt/xchem-fragalysis-2/maxwin/BulkDock/OUTPUTS/openbind_d68ev3c_c2_elabs_1LOTQJ3.sdf', '/opt/xchem-fragalysis-2/maxwin/BulkDock/OUTPUTS/openbind_d68ev3c_c2_elabs_1LSYEHW.sdf', '/opt/xchem-fragalysis-2/maxwin/BulkDock/OUTPUTS/openbind_d68ev3c_c2_elabs_1LSYI5W.sdf']

$$$$
P64087
     RDKit          3D

 20 21  0  0  0  0  0  0  0  0999 V2000
    2.7890   -3.0161   34.4566 C   0  0  0  0  0  0  0  0  0  0  0  0
    2.1044   -3.1627   35.7846 C   0  0  0  0  0  0  0  0  0  0  0  0
    2.5149   -2.3873   36.8801 C   0  0  0  0  0  0  0  0  0  0  0  0
    1.9544   -2.5923   38.1453 C   0  0  0  0  0  0  0  0  0  0  0  0
    2.5227   -1.5201   39.5966 Br  0  0  0  0  0  0  0  0  0  0  0  0
    0.9918   -3.5782   38.3295 C   0  0  0  0  0  0  0  0  0  0  0  0
    0.4147   -3.7680   39.5259 F   0  0  0  0  0  0  0  0  0  0  0  0
    0.5994   -4.3762   37.2656 C   0  0  0  0  0  0  0  0  0  0  0  0
    1.1460   -4.1573   35.9983 C   0  0  0  0  0  0  0  0  0  0  0  0
    0.7190   -4.9560   34.9537 N   0  0  0  0  0  0  0  0  0  0  0  0
    0.3862   -6.4521   34.9154 C   0  0  0  0  0  0  0  0  0  0  0  0
    0.4911   -7.2692   35.7364 O   0  0  0  0  0  0  0  0  0  0  0  0
   -0.2561   -6.8464   33.6388 C   0  0  0  0  0  0  0  0  0  0  0  0
    0.2774   -6.4613   32.4038 C   0  0  0  0  0  0  0  0  0  0  0  0
   -0.3172   -6.9426   31.2489 C   0  0  0  0  0  0  0  0  0  0  0  0
   -1.3813   -7.7662   31.2491 N   0  0  0  0  0  0  0  0  0  0  0  0
   -1.8492   -8.1213   32.4677 C   0  0  0  0  0  0  0  0  0  0  0  0
   -3.1629   -9.1899   32.3650 Cl  0  0  0  0  0  0  0  0  0  0  0  0
   -1.3680   -7.6810   33.6838 C   0  0  0  0  0  0  0  0  0  0  0  0
   -2.1950   -8.0894   35.1437 Cl  0  0  0  0  0  0  0  0  0  0  0  0
  1  2  1  0
  2  3  2  0
  3  4  1  0
  4  5  1  0
  4  6  2  0
  6  7  1  0
  6  8  1  0
  8  9  2  0
  9 10  1  0
 10 11  1  0
 11 12  2  0
 11 13  1  0
 13 14  2  0
 14 15  1  0
 15 16  2  0
 16 17  1  0
 17 18  1  0
 17 19  2  0
 19 20  1  0
  9  2  1  0
 19 13  1  0
M  END
>  <ref_mols>  (78) 
7gov-a

>  <gnina_score>  (78) 
5.177

>  <smina_score_min>  (78) 
-5.481

>  <ref_pdb>  (78) 
7gov-a

>  <inspiration_score>  (78) 
None

>  <inchikey>  (78) 
QZUMCNHKDQJTAL-UHFFFAOYSA-N

>  <tags>  (78) 
BulkDock Fragalysis export,openbind_d68ev3c_c2_elabs_scored,openbind_d68ev3c_c2_elabs_scored_4.5plus,openbind_d68ev3c_c2_elabs,openbind_d68ev3c_c2_elabs_scored_5plus,syndirella_product,openbind_d68ev3c_c2_elabs_scored_top80percent,syndirella_placed

>  <smiles>  (78) 
Cc1cc(Br)c(F)cc1NC(=O)c1ccnc(Cl)c1Cl

>  <subsites>  (78) 
None

>  <rmsd(smina/fragmenstein)>  (78) 
1.378

>  <alias>  (78) 
None

>  <energy_score>  (78) 
-11.077434

>  <HIPPO Pose ID>  (78) 
64087

>  <distance_score>  (78) 
0.627661

>  <HIPPO Compound ID>  (78) 
100329

>  <gnina_score_min>  (78) 
5.088

>  <name>  (78) 
P64087

>  <exports>  (78) 
['/opt/xchem-fragalysis-2/maxwin/BulkDock/OUTPUTS/openbind_d68ev3c_c2_elabs_1LOTQJ3.sdf', '/opt/xchem-fragalysis-2/maxwin/BulkDock/OUTPUTS/openbind_d68ev3c_c2_elabs_1LSYEHW.sdf', '/opt/xchem-fragalysis-2/maxwin/BulkDock/OUTPUTS/openbind_d68ev3c_c2_elabs_1LSYI5W.sdf']

$$$$
P64090
     RDKit          3D

 20 21  0  0  0  0  0  0  0  0999 V2000
    3.4888   -1.2244   36.7409 C   0  0  0  0  0  0  0  0  0  0  0  0
    2.4597   -2.3130   36.8732 C   0  0  0  0  0  0  0  0  0  0  0  0
    1.8765   -2.5332   38.1342 C   0  0  0  0  0  0  0  0  0  0  0  0
    0.9506   -3.5513   38.3161 C   0  0  0  0  0  0  0  0  0  0  0  0
    0.3872   -3.7291   39.5191 F   0  0  0  0  0  0  0  0  0  0  0  0
    0.5885   -4.3706   37.2643 C   0  0  0  0  0  0  0  0  0  0  0  0
    1.1393   -4.1445   36.0022 C   0  0  0  0  0  0  0  0  0  0  0  0
    0.7153   -4.9473   34.9566 N   0  0  0  0  0  0  0  0  0  0  0  0
    0.3897   -6.4453   34.9194 C   0  0  0  0  0  0  0  0  0  0  0  0
    0.4985   -7.2614   35.7412 O   0  0  0  0  0  0  0  0  0  0  0  0
   -0.2509   -6.8422   33.6425 C   0  0  0  0  0  0  0  0  0  0  0  0
    0.2822   -6.4555   32.4079 C   0  0  0  0  0  0  0  0  0  0  0  0
   -0.3117   -6.9366   31.2524 C   0  0  0  0  0  0  0  0  0  0  0  0
   -1.3748   -7.7614   31.2515 N   0  0  0  0  0  0  0  0  0  0  0  0
   -1.8424   -8.1180   32.4698 C   0  0  0  0  0  0  0  0  0  0  0  0
   -3.1545   -9.1889   32.3651 Cl  0  0  0  0  0  0  0  0  0  0  0  0
   -1.3618   -7.6781   33.6865 C   0  0  0  0  0  0  0  0  0  0  0  0
   -2.1887   -8.0887   35.1457 Cl  0  0  0  0  0  0  0  0  0  0  0  0
    2.0843   -3.1290   35.7829 C   0  0  0  0  0  0  0  0  0  0  0  0
    2.7440   -3.0241   34.4327 C   0  0  0  0  0  0  0  0  0  0  0  0
  1  2  1  0
  2  3  2  0
  3  4  1  0
  4  5  1  0
  4  6  2  0
  6  7  1  0
  7  8  1  0
  8  9  1  0
  9 10  2  0
  9 11  1  0
 11 12  2  0
 12 13  1  0
 13 14  2  0
 14 15  1  0
 15 16  1  0
 15 17  2  0
 17 18  1  0
  7 19  2  0
 19 20  1  0
 19  2  1  0
 17 11  1  0
M  END
>  <ref_mols>  (79) 
7gov-a

>  <gnina_score>  (79) 
5.095

>  <smina_score_min>  (79) 
-5.483

>  <ref_pdb>  (79) 
7gov-a

>  <inspiration_score>  (79) 
None

>  <inchikey>  (79) 
DEWLIJAAOBRMJY-UHFFFAOYSA-N

>  <tags>  (79) 
BulkDock Fragalysis export,openbind_d68ev3c_c2_elabs_scored,openbind_d68ev3c_c2_elabs_scored_4.5plus,openbind_d68ev3c_c2_elabs,openbind_d68ev3c_c2_elabs_scored_5plus,syndirella_product,openbind_d68ev3c_c2_elabs_scored_top80percent,syndirella_placed

>  <smiles>  (79) 
Cc1cc(F)cc(NC(=O)c2ccnc(Cl)c2Cl)c1C

>  <subsites>  (79) 
None

>  <rmsd(smina/fragmenstein)>  (79) 
1.322

>  <alias>  (79) 
None

>  <energy_score>  (79) 
-0.878223

>  <HIPPO Pose ID>  (79) 
64090

>  <distance_score>  (79) 
0.638022

>  <HIPPO Compound ID>  (79) 
100334

>  <gnina_score_min>  (79) 
5.036

>  <name>  (79) 
P64090

>  <exports>  (79) 
['/opt/xchem-fragalysis-2/maxwin/BulkDock/OUTPUTS/openbind_d68ev3c_c2_elabs_1LOTQJ3.sdf', '/opt/xchem-fragalysis-2/maxwin/BulkDock/OUTPUTS/openbind_d68ev3c_c2_elabs_1LSYEHW.sdf', '/opt/xchem-fragalysis-2/maxwin/BulkDock/OUTPUTS/openbind_d68ev3c_c2_elabs_1LSYI5W.sdf']

$$$$
P64091
     RDKit          3D

 20 21  0  0  0  0  0  0  0  0999 V2000
    2.9163   -3.8152   34.6544 C   0  0  0  0  0  0  0  0  0  0  0  0
    2.1086   -3.7688   35.9222 C   0  0  0  0  0  0  0  0  0  0  0  0
    2.5393   -2.9328   36.9665 C   0  0  0  0  0  0  0  0  0  0  0  0
    1.8388   -2.8916   38.1667 C   0  0  0  0  0  0  0  0  0  0  0  0
    2.2739   -2.0977   39.1557 F   0  0  0  0  0  0  0  0  0  0  0  0
    0.6987   -3.6611   38.3374 C   0  0  0  0  0  0  0  0  0  0  0  0
    0.0237   -3.6168   39.4950 F   0  0  0  0  0  0  0  0  0  0  0  0
    0.2395   -4.4781   37.3105 C   0  0  0  0  0  0  0  0  0  0  0  0
    0.9416   -4.5383   36.1019 C   0  0  0  0  0  0  0  0  0  0  0  0
    0.4716   -5.3334   35.0578 N   0  0  0  0  0  0  0  0  0  0  0  0
   -0.7133   -6.3192   35.0039 C   0  0  0  0  0  0  0  0  0  0  0  0
   -1.5307   -6.5650   35.8015 O   0  0  0  0  0  0  0  0  0  0  0  0
   -0.8673   -7.0101   33.6783 C   0  0  0  0  0  0  0  0  0  0  0  0
   -1.5628   -8.2316   33.7484 C   0  0  0  0  0  0  0  0  0  0  0  0
   -1.9074   -8.8769   32.5824 C   0  0  0  0  0  0  0  0  0  0  0  0
   -1.5845   -8.4215   31.3625 N   0  0  0  0  0  0  0  0  0  0  0  0
   -0.8636   -7.2745   31.3128 C   0  0  0  0  0  0  0  0  0  0  0  0
   -0.5380   -6.8200   29.6826 Cl  0  0  0  0  0  0  0  0  0  0  0  0
   -0.5031   -6.5088   32.4204 C   0  0  0  0  0  0  0  0  0  0  0  0
    0.2473   -4.9713   32.1784 Cl  0  0  0  0  0  0  0  0  0  0  0  0
  1  2  1  0
  2  3  2  0
  3  4  1  0
  4  5  1  0
  4  6  2  0
  6  7  1  0
  6  8  1  0
  8  9  2  0
  9 10  1  0
 10 11  1  0
 11 12  2  0
 11 13  1  0
 13 14  2  0
 14 15  1  0
 15 16  2  0
 16 17  1  0
 17 18  1  0
 17 19  2  0
 19 20  1  0
  9  2  1  0
 19 13  1  0
M  END
>  <ref_mols>  (80) 
7gov-a

>  <gnina_score>  (80) 
5.111

>  <smina_score_min>  (80) 
-6.14

>  <ref_pdb>  (80) 
7gov-a

>  <inspiration_score>  (80) 
None

>  <inchikey>  (80) 
HDWWAVPZYNDQJR-UHFFFAOYSA-N

>  <tags>  (80) 
BulkDock Fragalysis export,openbind_d68ev3c_c2_elabs_scored,openbind_d68ev3c_c2_elabs_scored_4.5plus,openbind_d68ev3c_c2_elabs,openbind_d68ev3c_c2_elabs_scored_5plus,syndirella_product,openbind_d68ev3c_c2_elabs_scored_top80percent,syndirella_placed

>  <smiles>  (80) 
Cc1cc(F)c(F)cc1NC(=O)c1ccnc(Cl)c1Cl

>  <subsites>  (80) 
None

>  <rmsd(smina/fragmenstein)>  (80) 
1.114

>  <alias>  (80) 
None

>  <energy_score>  (80) 
-17.366258

>  <HIPPO Pose ID>  (80) 
64091

>  <distance_score>  (80) 
0.745585

>  <HIPPO Compound ID>  (80) 
100335

>  <gnina_score_min>  (80) 
5.071

>  <name>  (80) 
P64091

>  <exports>  (80) 
['/opt/xchem-fragalysis-2/maxwin/BulkDock/OUTPUTS/openbind_d68ev3c_c2_elabs_1LOTQJ3.sdf', '/opt/xchem-fragalysis-2/maxwin/BulkDock/OUTPUTS/openbind_d68ev3c_c2_elabs_1LSYEHW.sdf', '/opt/xchem-fragalysis-2/maxwin/BulkDock/OUTPUTS/openbind_d68ev3c_c2_elabs_1LSYI5W.sdf']

$$$$
P64135
     RDKit          3D

 20 21  0  0  0  0  0  0  0  0999 V2000
    3.3062   -2.1318   33.8656 C   0  0  0  0  0  0  0  0  0  0  0  0
    3.4593   -3.3094   34.8181 C   0  0  0  0  0  0  0  0  0  0  0  0
    2.4299   -3.2877   35.9153 C   0  0  0  0  0  0  0  0  0  0  0  0
    2.8148   -2.6100   37.0996 C   0  0  0  0  0  0  0  0  0  0  0  0
    2.0246   -2.6151   38.2473 C   0  0  0  0  0  0  0  0  0  0  0  0
    0.8249   -3.2924   38.2242 C   0  0  0  0  0  0  0  0  0  0  0  0
    0.0628   -3.3453   39.3250 F   0  0  0  0  0  0  0  0  0  0  0  0
    0.4002   -3.9245   37.0660 C   0  0  0  0  0  0  0  0  0  0  0  0
    1.1851   -3.9239   35.8903 C   0  0  0  0  0  0  0  0  0  0  0  0
    0.5787   -4.6662   34.8698 N   0  0  0  0  0  0  0  0  0  0  0  0
    1.0212   -4.9112   33.3981 C   0  0  0  0  0  0  0  0  0  0  0  0
    1.9186   -4.4676   32.7923 O   0  0  0  0  0  0  0  0  0  0  0  0
    0.1770   -5.9530   32.7438 C   0  0  0  0  0  0  0  0  0  0  0  0
    0.1452   -6.0687   31.3565 C   0  0  0  0  0  0  0  0  0  0  0  0
   -0.6504   -7.0562   30.7905 C   0  0  0  0  0  0  0  0  0  0  0  0
   -1.4397   -7.8977   31.5000 N   0  0  0  0  0  0  0  0  0  0  0  0
   -1.3431   -7.7821   32.8451 C   0  0  0  0  0  0  0  0  0  0  0  0
   -2.4626   -8.9593   34.0872 I   0  0  0  0  0  0  0  0  0  0  0  0
   -0.5432   -6.8641   33.4935 C   0  0  0  0  0  0  0  0  0  0  0  0
   -0.4826   -6.8595   34.8370 F   0  0  0  0  0  0  0  0  0  0  0  0
  1  2  1  0
  2  3  1  0
  3  4  2  0
  4  5  1  0
  5  6  2  0
  6  7  1  0
  6  8  1  0
  8  9  2  0
  9 10  1  0
 10 11  1  0
 11 12  2  0
 11 13  1  0
 13 14  2  0
 14 15  1  0
 15 16  2  0
 16 17  1  0
 17 18  1  0
 17 19  2  0
 19 20  1  0
  9  3  1  0
 19 13  1  0
M  END
>  <ref_mols>  (81) 
7gov-a

>  <gnina_score>  (81) 
5.077

>  <smina_score_min>  (81) 
-4.6

>  <ref_pdb>  (81) 
7gov-a

>  <inspiration_score>  (81) 
None

>  <inchikey>  (81) 
FYQQOONAUZKWOE-UHFFFAOYSA-N

>  <tags>  (81) 
BulkDock Fragalysis export,openbind_d68ev3c_c2_elabs_scored,openbind_d68ev3c_c2_elabs_scored_4.5plus,openbind_d68ev3c_c2_elabs,openbind_d68ev3c_c2_elabs_scored_5plus,syndirella_product,openbind_d68ev3c_c2_elabs_scored_top80percent,syndirella_placed

>  <smiles>  (81) 
CCc1ccc(F)cc1NC(=O)c1ccnc(I)c1F

>  <subsites>  (81) 
None

>  <rmsd(smina/fragmenstein)>  (81) 
1.512

>  <alias>  (81) 
None

>  <energy_score>  (81) 
-7.599456

>  <HIPPO Pose ID>  (81) 
64135

>  <distance_score>  (81) 
1.398976

>  <HIPPO Compound ID>  (81) 
100393

>  <gnina_score_min>  (81) 
5.07

>  <name>  (81) 
P64135

>  <exports>  (81) 
['/opt/xchem-fragalysis-2/maxwin/BulkDock/OUTPUTS/openbind_d68ev3c_c2_elabs_1LOTQJ3.sdf', '/opt/xchem-fragalysis-2/maxwin/BulkDock/OUTPUTS/openbind_d68ev3c_c2_elabs_1LSYEHW.sdf', '/opt/xchem-fragalysis-2/maxwin/BulkDock/OUTPUTS/openbind_d68ev3c_c2_elabs_1LSYI5W.sdf']

$$$$
P64214
     RDKit          3D

 20 21  0  0  0  0  0  0  0  0999 V2000
    3.5065   -3.8869   33.5633 N   0  0  0  0  0  0  0  0  0  0  0  0
    2.9306   -3.8357   34.5707 C   0  0  0  0  0  0  0  0  0  0  0  0
    2.1940   -3.7515   35.7989 C   0  0  0  0  0  0  0  0  0  0  0  0
    2.6752   -2.9085   36.8144 C   0  0  0  0  0  0  0  0  0  0  0  0
    1.9935   -2.8033   38.0279 C   0  0  0  0  0  0  0  0  0  0  0  0
    0.8297   -3.5334   38.2207 C   0  0  0  0  0  0  0  0  0  0  0  0
    0.1768   -3.4410   39.3869 F   0  0  0  0  0  0  0  0  0  0  0  0
    0.3288   -4.3576   37.2204 C   0  0  0  0  0  0  0  0  0  0  0  0
    1.0100   -4.4800   36.0025 C   0  0  0  0  0  0  0  0  0  0  0  0
    0.4753   -5.3026   35.0040 N   0  0  0  0  0  0  0  0  0  0  0  0
   -0.7190   -6.2822   35.0437 C   0  0  0  0  0  0  0  0  0  0  0  0
   -1.4899   -6.4991   35.8909 O   0  0  0  0  0  0  0  0  0  0  0  0
   -0.9360   -7.0159   33.7423 C   0  0  0  0  0  0  0  0  0  0  0  0
   -0.3268   -6.6026   32.5532 C   0  0  0  0  0  0  0  0  0  0  0  0
    0.5229   -5.5671   32.5145 F   0  0  0  0  0  0  0  0  0  0  0  0
   -0.6210   -7.2479   31.3609 C   0  0  0  0  0  0  0  0  0  0  0  0
   -1.4971   -8.2707   31.2580 N   0  0  0  0  0  0  0  0  0  0  0  0
   -2.0611   -8.6775   32.4165 C   0  0  0  0  0  0  0  0  0  0  0  0
   -1.8326   -8.0952   33.6582 C   0  0  0  0  0  0  0  0  0  0  0  0
   -2.7809   -8.7390   34.9466 Cl  0  0  0  0  0  0  0  0  0  0  0  0
  1  2  3  0
  2  3  1  0
  3  4  2  0
  4  5  1  0
  5  6  2  0
  6  7  1  0
  6  8  1  0
  8  9  2  0
  9 10  1  0
 10 11  1  0
 11 12  2  0
 11 13  1  0
 13 14  2  0
 14 15  1  0
 14 16  1  0
 16 17  2  0
 17 18  1  0
 18 19  2  0
 19 20  1  0
  9  3  1  0
 19 13  1  0
M  END
>  <ref_mols>  (82) 
7gov-a

>  <gnina_score>  (82) 
5.104

>  <smina_score_min>  (82) 
-5.776

>  <ref_pdb>  (82) 
7gov-a

>  <inspiration_score>  (82) 
None

>  <inchikey>  (82) 
VOIHBHRQSSTRQP-UHFFFAOYSA-N

>  <tags>  (82) 
BulkDock Fragalysis export,openbind_d68ev3c_c2_elabs_scored,openbind_d68ev3c_c2_elabs_scored_4.5plus,openbind_d68ev3c_c2_elabs,openbind_d68ev3c_c2_elabs_scored_5plus,syndirella_product,openbind_d68ev3c_c2_elabs_scored_top80percent,syndirella_placed

>  <smiles>  (82) 
N#Cc1ccc(F)cc1NC(=O)c1c(F)cncc1Cl

>  <subsites>  (82) 
None

>  <rmsd(smina/fragmenstein)>  (82) 
1.192

>  <alias>  (82) 
None

>  <energy_score>  (82) 
-13.711878

>  <HIPPO Pose ID>  (82) 
64214

>  <distance_score>  (82) 
0.77235

>  <HIPPO Compound ID>  (82) 
100502

>  <gnina_score_min>  (82) 
5.013

>  <name>  (82) 
P64214

>  <exports>  (82) 
['/opt/xchem-fragalysis-2/maxwin/BulkDock/OUTPUTS/openbind_d68ev3c_c2_elabs_1LOTQJ3.sdf', '/opt/xchem-fragalysis-2/maxwin/BulkDock/OUTPUTS/openbind_d68ev3c_c2_elabs_1LSYEHW.sdf', '/opt/xchem-fragalysis-2/maxwin/BulkDock/OUTPUTS/openbind_d68ev3c_c2_elabs_1LSYI5W.sdf']

$$$$
P64222
     RDKit          3D

 20 21  0  0  0  0  0  0  0  0999 V2000
   -2.1858   -8.5774   34.8328 C   0  0  0  0  0  0  0  0  0  0  0  0
   -1.5515   -7.9787   33.6175 C   0  0  0  0  0  0  0  0  0  0  0  0
   -2.0698   -8.3812   32.3927 C   0  0  0  0  0  0  0  0  0  0  0  0
   -1.6694   -7.9075   31.1979 N   0  0  0  0  0  0  0  0  0  0  0  0
   -0.6521   -7.0220   31.2276 C   0  0  0  0  0  0  0  0  0  0  0  0
   -0.2478   -6.3699   29.6979 Cl  0  0  0  0  0  0  0  0  0  0  0  0
   -0.0266   -6.5741   32.3727 C   0  0  0  0  0  0  0  0  0  0  0  0
   -0.4963   -7.0499   33.5971 C   0  0  0  0  0  0  0  0  0  0  0  0
    0.1812   -6.6127   34.8580 C   0  0  0  0  0  0  0  0  0  0  0  0
    0.3582   -7.4225   35.6774 O   0  0  0  0  0  0  0  0  0  0  0  0
    0.4430   -5.0912   34.8818 N   0  0  0  0  0  0  0  0  0  0  0  0
    1.0466   -4.2889   35.8546 C   0  0  0  0  0  0  0  0  0  0  0  0
    2.1199   -3.4652   35.4762 C   0  0  0  0  0  0  0  0  0  0  0  0
    2.7094   -3.5367   34.0956 C   0  0  0  0  0  0  0  0  0  0  0  0
    2.7276   -2.6407   36.4402 C   0  0  0  0  0  0  0  0  0  0  0  0
    2.2651   -2.6156   37.7552 C   0  0  0  0  0  0  0  0  0  0  0  0
    1.1995   -3.4235   38.1170 C   0  0  0  0  0  0  0  0  0  0  0  0
    0.7358   -3.3565   39.3768 F   0  0  0  0  0  0  0  0  0  0  0  0
    0.5943   -4.2625   37.1834 C   0  0  0  0  0  0  0  0  0  0  0  0
   -0.9220   -5.2085   37.7669 Br  0  0  0  0  0  0  0  0  0  0  0  0
  1  2  1  0
  2  3  2  0
  3  4  1  0
  4  5  2  0
  5  6  1  0
  5  7  1  0
  7  8  2  0
  8  9  1  0
  9 10  2  0
  9 11  1  0
 11 12  1  0
 12 13  2  0
 13 14  1  0
 13 15  1  0
 15 16  2  0
 16 17  1  0
 17 18  1  0
 17 19  2  0
 19 20  1  0
  8  2  1  0
 19 12  1  0
M  END
>  <ref_mols>  (83) 
7gov-a

>  <gnina_score>  (83) 
5.173

>  <smina_score_min>  (83) 
-5.326

>  <ref_pdb>  (83) 
7gov-a

>  <inspiration_score>  (83) 
None

>  <inchikey>  (83) 
TWYUSRNCQSTLTP-UHFFFAOYSA-N

>  <tags>  (83) 
BulkDock Fragalysis export,openbind_d68ev3c_c2_elabs_scored,openbind_d68ev3c_c2_elabs_scored_4.5plus,openbind_d68ev3c_c2_elabs,openbind_d68ev3c_c2_elabs_scored_5plus,syndirella_product,openbind_d68ev3c_c2_elabs_scored_top80percent,syndirella_placed

>  <smiles>  (83) 
Cc1cnc(Cl)cc1C(=O)Nc1c(C)ccc(F)c1Br

>  <subsites>  (83) 
None

>  <rmsd(smina/fragmenstein)>  (83) 
0.409

>  <alias>  (83) 
None

>  <energy_score>  (83) 
-3.100053

>  <HIPPO Pose ID>  (83) 
64222

>  <distance_score>  (83) 
0.538964

>  <HIPPO Compound ID>  (83) 
100517

>  <gnina_score_min>  (83) 
5.055

>  <name>  (83) 
P64222

>  <exports>  (83) 
['/opt/xchem-fragalysis-2/maxwin/BulkDock/OUTPUTS/openbind_d68ev3c_c2_elabs_1LOTQJ3.sdf', '/opt/xchem-fragalysis-2/maxwin/BulkDock/OUTPUTS/openbind_d68ev3c_c2_elabs_1LSYEHW.sdf', '/opt/xchem-fragalysis-2/maxwin/BulkDock/OUTPUTS/openbind_d68ev3c_c2_elabs_1LSYI5W.sdf']

$$$$
P64228
     RDKit          3D

 20 21  0  0  0  0  0  0  0  0999 V2000
    3.0240   -3.2260   33.3511 N   0  0  0  0  0  0  0  0  0  0  0  0
    2.5720   -3.3218   34.4168 C   0  0  0  0  0  0  0  0  0  0  0  0
    1.9501   -3.4333   35.7041 C   0  0  0  0  0  0  0  0  0  0  0  0
    2.3798   -2.6100   36.7543 C   0  0  0  0  0  0  0  0  0  0  0  0
    1.8176   -2.7446   38.0255 C   0  0  0  0  0  0  0  0  0  0  0  0
    0.8427   -3.7101   38.2457 C   0  0  0  0  0  0  0  0  0  0  0  0
    0.2906   -3.8234   39.4610 F   0  0  0  0  0  0  0  0  0  0  0  0
    0.4225   -4.5495   37.2211 C   0  0  0  0  0  0  0  0  0  0  0  0
    0.9650   -4.4027   35.9414 C   0  0  0  0  0  0  0  0  0  0  0  0
    0.5130   -5.2265   34.9122 N   0  0  0  0  0  0  0  0  0  0  0  0
   -0.0739   -6.6496   34.9547 C   0  0  0  0  0  0  0  0  0  0  0  0
   -0.2008   -7.3867   35.8464 O   0  0  0  0  0  0  0  0  0  0  0  0
   -0.5834   -7.0982   33.6130 C   0  0  0  0  0  0  0  0  0  0  0  0
    0.0623   -6.6815   32.4396 C   0  0  0  0  0  0  0  0  0  0  0  0
   -0.4140   -7.1182   31.2149 C   0  0  0  0  0  0  0  0  0  0  0  0
   -1.4617   -7.9477   31.0792 N   0  0  0  0  0  0  0  0  0  0  0  0
   -2.0303   -8.3772   32.2237 C   0  0  0  0  0  0  0  0  0  0  0  0
   -3.0606   -9.2208   32.0632 F   0  0  0  0  0  0  0  0  0  0  0  0
   -1.6618   -7.9816   33.4978 C   0  0  0  0  0  0  0  0  0  0  0  0
   -2.8704   -8.6939   35.0207 I   0  0  0  0  0  0  0  0  0  0  0  0
  1  2  3  0
  2  3  1  0
  3  4  2  0
  4  5  1  0
  5  6  2  0
  6  7  1  0
  6  8  1  0
  8  9  2  0
  9 10  1  0
 10 11  1  0
 11 12  2  0
 11 13  1  0
 13 14  2  0
 14 15  1  0
 15 16  2  0
 16 17  1  0
 17 18  1  0
 17 19  2  0
 19 20  1  0
  9  3  1  0
 19 13  1  0
M  END
>  <ref_mols>  (84) 
7gov-a

>  <gnina_score>  (84) 
5.031

>  <smina_score_min>  (84) 
-5.057

>  <ref_pdb>  (84) 
7gov-a

>  <inspiration_score>  (84) 
None

>  <inchikey>  (84) 
XEIJYWXMBBWHOB-UHFFFAOYSA-N

>  <tags>  (84) 
BulkDock Fragalysis export,openbind_d68ev3c_c2_elabs_scored,openbind_d68ev3c_c2_elabs_scored_4.5plus,openbind_d68ev3c_c2_elabs,openbind_d68ev3c_c2_elabs_scored_5plus,syndirella_product,openbind_d68ev3c_c2_elabs_scored_top80percent,syndirella_placed

>  <smiles>  (84) 
N#Cc1ccc(F)cc1NC(=O)c1ccnc(F)c1I

>  <subsites>  (84) 
None

>  <rmsd(smina/fragmenstein)>  (84) 
1.23

>  <alias>  (84) 
None

>  <energy_score>  (84) 
-5.113987

>  <HIPPO Pose ID>  (84) 
64228

>  <distance_score>  (84) 
0.554703

>  <HIPPO Compound ID>  (84) 
100529

>  <gnina_score_min>  (84) 
5.191

>  <name>  (84) 
P64228

>  <exports>  (84) 
['/opt/xchem-fragalysis-2/maxwin/BulkDock/OUTPUTS/openbind_d68ev3c_c2_elabs_1LOTQJ3.sdf', '/opt/xchem-fragalysis-2/maxwin/BulkDock/OUTPUTS/openbind_d68ev3c_c2_elabs_1LSYEHW.sdf', '/opt/xchem-fragalysis-2/maxwin/BulkDock/OUTPUTS/openbind_d68ev3c_c2_elabs_1LSYI5W.sdf']

$$$$
P64231
     RDKit          3D

 20 21  0  0  0  0  0  0  0  0999 V2000
    2.5955   -3.3733   34.3653 C   0  0  0  0  0  0  0  0  0  0  0  0
    1.9281   -3.4605   35.7117 C   0  0  0  0  0  0  0  0  0  0  0  0
    2.3552   -2.6519   36.7859 C   0  0  0  0  0  0  0  0  0  0  0  0
    3.6969   -1.3174   36.5764 Br  0  0  0  0  0  0  0  0  0  0  0  0
    1.7971   -2.7848   38.0599 C   0  0  0  0  0  0  0  0  0  0  0  0
    0.8122   -3.7340   38.2754 C   0  0  0  0  0  0  0  0  0  0  0  0
    0.2624   -3.8507   39.4917 F   0  0  0  0  0  0  0  0  0  0  0  0
    0.3681   -4.5442   37.2431 C   0  0  0  0  0  0  0  0  0  0  0  0
    0.9038   -4.3904   35.9609 C   0  0  0  0  0  0  0  0  0  0  0  0
    0.3648   -5.1700   34.9440 N   0  0  0  0  0  0  0  0  0  0  0  0
   -0.0680   -6.6484   34.9391 C   0  0  0  0  0  0  0  0  0  0  0  0
   -0.1127   -7.4242   35.8060 O   0  0  0  0  0  0  0  0  0  0  0  0
   -0.5787   -7.0889   33.6008 C   0  0  0  0  0  0  0  0  0  0  0  0
    0.0630   -6.6641   32.4301 C   0  0  0  0  0  0  0  0  0  0  0  0
   -0.4128   -7.1035   31.2064 C   0  0  0  0  0  0  0  0  0  0  0  0
   -1.4566   -7.9388   31.0717 N   0  0  0  0  0  0  0  0  0  0  0  0
   -2.0225   -8.3721   32.2167 C   0  0  0  0  0  0  0  0  0  0  0  0
   -3.0495   -9.2198   32.0577 F   0  0  0  0  0  0  0  0  0  0  0  0
   -1.6530   -7.9762   33.4892 C   0  0  0  0  0  0  0  0  0  0  0  0
   -2.8503   -8.6844   35.0198 I   0  0  0  0  0  0  0  0  0  0  0  0
  1  2  1  0
  2  3  2  0
  3  4  1  0
  3  5  1  0
  5  6  2  0
  6  7  1  0
  6  8  1  0
  8  9  2  0
  9 10  1  0
 10 11  1  0
 11 12  2  0
 11 13  1  0
 13 14  2  0
 14 15  1  0
 15 16  2  0
 16 17  1  0
 17 18  1  0
 17 19  2  0
 19 20  1  0
  9  2  1  0
 19 13  1  0
M  END
>  <ref_mols>  (85) 
7gov-a

>  <gnina_score>  (85) 
5.127

>  <smina_score_min>  (85) 
-5.15

>  <ref_pdb>  (85) 
7gov-a

>  <inspiration_score>  (85) 
None

>  <inchikey>  (85) 
CIKWEQGJBBRMLL-UHFFFAOYSA-N

>  <tags>  (85) 
BulkDock Fragalysis export,openbind_d68ev3c_c2_elabs_scored,openbind_d68ev3c_c2_elabs_scored_4.5plus,openbind_d68ev3c_c2_elabs,openbind_d68ev3c_c2_elabs_scored_5plus,syndirella_product,openbind_d68ev3c_c2_elabs_scored_top80percent,syndirella_placed

>  <smiles>  (85) 
Cc1c(Br)cc(F)cc1NC(=O)c1ccnc(F)c1I

>  <subsites>  (85) 
None

>  <rmsd(smina/fragmenstein)>  (85) 
1.064

>  <alias>  (85) 
None

>  <energy_score>  (85) 
-20.736267

>  <HIPPO Pose ID>  (85) 
64231

>  <distance_score>  (85) 
0.526018

>  <HIPPO Compound ID>  (85) 
100533

>  <gnina_score_min>  (85) 
5.187

>  <name>  (85) 
P64231

>  <exports>  (85) 
['/opt/xchem-fragalysis-2/maxwin/BulkDock/OUTPUTS/openbind_d68ev3c_c2_elabs_1LOTQJ3.sdf', '/opt/xchem-fragalysis-2/maxwin/BulkDock/OUTPUTS/openbind_d68ev3c_c2_elabs_1LSYEHW.sdf', '/opt/xchem-fragalysis-2/maxwin/BulkDock/OUTPUTS/openbind_d68ev3c_c2_elabs_1LSYI5W.sdf']

$$$$
P64232
     RDKit          3D

 20 21  0  0  0  0  0  0  0  0999 V2000
    2.6057   -3.3271   34.3790 C   0  0  0  0  0  0  0  0  0  0  0  0
    1.9211   -3.4390   35.7117 C   0  0  0  0  0  0  0  0  0  0  0  0
    2.3635   -2.6496   36.7866 C   0  0  0  0  0  0  0  0  0  0  0  0
    1.8070   -2.8077   38.0579 C   0  0  0  0  0  0  0  0  0  0  0  0
    2.4213   -1.7266   39.4832 Br  0  0  0  0  0  0  0  0  0  0  0  0
    0.8139   -3.7578   38.2670 C   0  0  0  0  0  0  0  0  0  0  0  0
    0.2469   -3.9054   39.4741 F   0  0  0  0  0  0  0  0  0  0  0  0
    0.3819   -4.5654   37.2220 C   0  0  0  0  0  0  0  0  0  0  0  0
    0.9255   -4.3990   35.9459 C   0  0  0  0  0  0  0  0  0  0  0  0
    0.4724   -5.2033   34.9093 N   0  0  0  0  0  0  0  0  0  0  0  0
   -0.0427   -6.6550   34.9210 C   0  0  0  0  0  0  0  0  0  0  0  0
   -0.0959   -7.4296   35.7886 O   0  0  0  0  0  0  0  0  0  0  0  0
   -0.5689   -7.0899   33.5856 C   0  0  0  0  0  0  0  0  0  0  0  0
    0.0672   -6.6730   32.4084 C   0  0  0  0  0  0  0  0  0  0  0  0
   -0.4201   -7.1111   31.1889 C   0  0  0  0  0  0  0  0  0  0  0  0
   -1.4697   -7.9396   31.0634 N   0  0  0  0  0  0  0  0  0  0  0  0
   -2.0304   -8.3668   32.2132 C   0  0  0  0  0  0  0  0  0  0  0  0
   -3.0633   -9.2089   32.0626 F   0  0  0  0  0  0  0  0  0  0  0  0
   -1.6496   -7.9709   33.4825 C   0  0  0  0  0  0  0  0  0  0  0  0
   -2.8389   -8.6763   35.0204 I   0  0  0  0  0  0  0  0  0  0  0  0
  1  2  1  0
  2  3  2  0
  3  4  1  0
  4  5  1  0
  4  6  2  0
  6  7  1  0
  6  8  1  0
  8  9  2  0
  9 10  1  0
 10 11  1  0
 11 12  2  0
 11 13  1  0
 13 14  2  0
 14 15  1  0
 15 16  2  0
 16 17  1  0
 17 18  1  0
 17 19  2  0
 19 20  1  0
  9  2  1  0
 19 13  1  0
M  END
>  <ref_mols>  (86) 
7gov-a

>  <gnina_score>  (86) 
5.157

>  <smina_score_min>  (86) 
-5.125

>  <ref_pdb>  (86) 
7gov-a

>  <inspiration_score>  (86) 
None

>  <inchikey>  (86) 
LWQFGVMPVFOPAI-UHFFFAOYSA-N

>  <tags>  (86) 
BulkDock Fragalysis export,openbind_d68ev3c_c2_elabs_scored,openbind_d68ev3c_c2_elabs_scored_4.5plus,openbind_d68ev3c_c2_elabs,openbind_d68ev3c_c2_elabs_scored_5plus,syndirella_product,openbind_d68ev3c_c2_elabs_scored_top80percent,syndirella_placed

>  <smiles>  (86) 
Cc1cc(Br)c(F)cc1NC(=O)c1ccnc(F)c1I

>  <subsites>  (86) 
None

>  <rmsd(smina/fragmenstein)>  (86) 
1.054

>  <alias>  (86) 
None

>  <energy_score>  (86) 
-9.570277

>  <HIPPO Pose ID>  (86) 
64232

>  <distance_score>  (86) 
0.529484

>  <HIPPO Compound ID>  (86) 
100534

>  <gnina_score_min>  (86) 
5.181

>  <name>  (86) 
P64232

>  <exports>  (86) 
['/opt/xchem-fragalysis-2/maxwin/BulkDock/OUTPUTS/openbind_d68ev3c_c2_elabs_1LOTQJ3.sdf', '/opt/xchem-fragalysis-2/maxwin/BulkDock/OUTPUTS/openbind_d68ev3c_c2_elabs_1LSYEHW.sdf', '/opt/xchem-fragalysis-2/maxwin/BulkDock/OUTPUTS/openbind_d68ev3c_c2_elabs_1LSYI5W.sdf']

$$$$
P64233
     RDKit          3D

 20 21  0  0  0  0  0  0  0  0999 V2000
    1.8442   -2.3487   33.4479 C   0  0  0  0  0  0  0  0  0  0  0  0
    2.5757   -3.3074   34.3756 C   0  0  0  0  0  0  0  0  0  0  0  0
    1.8872   -3.4312   35.7139 C   0  0  0  0  0  0  0  0  0  0  0  0
    2.2927   -2.5945   36.7683 C   0  0  0  0  0  0  0  0  0  0  0  0
    1.7373   -2.7325   38.0407 C   0  0  0  0  0  0  0  0  0  0  0  0
    0.7832   -3.7140   38.2674 C   0  0  0  0  0  0  0  0  0  0  0  0
    0.2391   -3.8349   39.4861 F   0  0  0  0  0  0  0  0  0  0  0  0
    0.3731   -4.5602   37.2466 C   0  0  0  0  0  0  0  0  0  0  0  0
    0.9103   -4.4073   35.9668 C   0  0  0  0  0  0  0  0  0  0  0  0
    0.4632   -5.2284   34.9394 N   0  0  0  0  0  0  0  0  0  0  0  0
   -0.1091   -6.6578   34.9782 C   0  0  0  0  0  0  0  0  0  0  0  0
   -0.2242   -7.4003   35.8673 O   0  0  0  0  0  0  0  0  0  0  0  0
   -0.6104   -7.1079   33.6352 C   0  0  0  0  0  0  0  0  0  0  0  0
    0.0434   -6.6904   32.4668 C   0  0  0  0  0  0  0  0  0  0  0  0
   -0.4215   -7.1293   31.2387 C   0  0  0  0  0  0  0  0  0  0  0  0
   -1.4658   -7.9615   31.0954 N   0  0  0  0  0  0  0  0  0  0  0  0
   -2.0420   -8.3919   32.2365 C   0  0  0  0  0  0  0  0  0  0  0  0
   -3.0688   -9.2381   32.0685 F   0  0  0  0  0  0  0  0  0  0  0  0
   -1.6843   -7.9948   33.5132 C   0  0  0  0  0  0  0  0  0  0  0  0
   -2.8997   -8.7074   35.0294 I   0  0  0  0  0  0  0  0  0  0  0  0
  1  2  1  0
  2  3  1  0
  3  4  2  0
  4  5  1  0
  5  6  2  0
  6  7  1  0
  6  8  1  0
  8  9  2  0
  9 10  1  0
 10 11  1  0
 11 12  2  0
 11 13  1  0
 13 14  2  0
 14 15  1  0
 15 16  2  0
 16 17  1  0
 17 18  1  0
 17 19  2  0
 19 20  1  0
  9  3  1  0
 19 13  1  0
M  END
>  <ref_mols>  (87) 
7gov-a

>  <gnina_score>  (87) 
5.07

>  <smina_score_min>  (87) 
-4.756

>  <ref_pdb>  (87) 
7gov-a

>  <inspiration_score>  (87) 
None

>  <inchikey>  (87) 
HQCFLZVWUVZLFX-UHFFFAOYSA-N

>  <tags>  (87) 
BulkDock Fragalysis export,openbind_d68ev3c_c2_elabs_scored,openbind_d68ev3c_c2_elabs_scored_4.5plus,openbind_d68ev3c_c2_elabs,openbind_d68ev3c_c2_elabs_scored_5plus,syndirella_product,openbind_d68ev3c_c2_elabs_scored_top80percent,syndirella_placed

>  <smiles>  (87) 
CCc1ccc(F)cc1NC(=O)c1ccnc(F)c1I

>  <subsites>  (87) 
None

>  <rmsd(smina/fragmenstein)>  (87) 
1.137

>  <alias>  (87) 
None

>  <energy_score>  (87) 
-18.004734

>  <HIPPO Pose ID>  (87) 
64233

>  <distance_score>  (87) 
0.558502

>  <HIPPO Compound ID>  (87) 
100535

>  <gnina_score_min>  (87) 
5.119

>  <name>  (87) 
P64233

>  <exports>  (87) 
['/opt/xchem-fragalysis-2/maxwin/BulkDock/OUTPUTS/openbind_d68ev3c_c2_elabs_1LOTQJ3.sdf', '/opt/xchem-fragalysis-2/maxwin/BulkDock/OUTPUTS/openbind_d68ev3c_c2_elabs_1LSYEHW.sdf', '/opt/xchem-fragalysis-2/maxwin/BulkDock/OUTPUTS/openbind_d68ev3c_c2_elabs_1LSYI5W.sdf']

$$$$
P64236
     RDKit          3D

 20 21  0  0  0  0  0  0  0  0999 V2000
    3.8418   -2.1450   37.1392 C   0  0  0  0  0  0  0  0  0  0  0  0
    2.5004   -2.8260   37.0334 C   0  0  0  0  0  0  0  0  0  0  0  0
    1.7034   -2.8606   38.1848 C   0  0  0  0  0  0  0  0  0  0  0  0
    0.4693   -3.4757   38.1477 C   0  0  0  0  0  0  0  0  0  0  0  0
   -0.2766   -3.5259   39.2594 F   0  0  0  0  0  0  0  0  0  0  0  0
    0.0038   -4.0603   36.9809 C   0  0  0  0  0  0  0  0  0  0  0  0
    0.7878   -4.0768   35.8117 C   0  0  0  0  0  0  0  0  0  0  0  0
    0.2080   -4.8418   34.7795 N   0  0  0  0  0  0  0  0  0  0  0  0
    0.8032   -5.3381   33.4393 C   0  0  0  0  0  0  0  0  0  0  0  0
    1.8413   -5.1255   32.9467 O   0  0  0  0  0  0  0  0  0  0  0  0
   -0.1099   -6.2753   32.6995 C   0  0  0  0  0  0  0  0  0  0  0  0
    0.0202   -6.2202   31.3061 C   0  0  0  0  0  0  0  0  0  0  0  0
   -0.7008   -7.0943   30.5209 C   0  0  0  0  0  0  0  0  0  0  0  0
   -1.5733   -7.9882   31.0166 N   0  0  0  0  0  0  0  0  0  0  0  0
   -1.6632   -8.0548   32.3615 C   0  0  0  0  0  0  0  0  0  0  0  0
   -2.5146   -8.9820   32.8298 F   0  0  0  0  0  0  0  0  0  0  0  0
   -0.9585   -7.2432   33.2480 C   0  0  0  0  0  0  0  0  0  0  0  0
   -1.2059   -7.6380   35.2587 I   0  0  0  0  0  0  0  0  0  0  0  0
    2.0403   -3.4239   35.8216 C   0  0  0  0  0  0  0  0  0  0  0  0
    2.9242   -3.3414   34.6090 C   0  0  0  0  0  0  0  0  0  0  0  0
  1  2  1  0
  2  3  2  0
  3  4  1  0
  4  5  1  0
  4  6  2  0
  6  7  1  0
  7  8  1  0
  8  9  1  0
  9 10  2  0
  9 11  1  0
 11 12  2  0
 12 13  1  0
 13 14  2  0
 14 15  1  0
 15 16  1  0
 15 17  2  0
 17 18  1  0
  7 19  2  0
 19 20  1  0
 19  2  1  0
 17 11  1  0
M  END
>  <ref_mols>  (88) 
7gov-a

>  <gnina_score>  (88) 
5.086

>  <smina_score_min>  (88) 
-5.165

>  <ref_pdb>  (88) 
7gov-a

>  <inspiration_score>  (88) 
None

>  <inchikey>  (88) 
NAXPHMWTDSABQO-UHFFFAOYSA-N

>  <tags>  (88) 
BulkDock Fragalysis export,openbind_d68ev3c_c2_elabs_scored,openbind_d68ev3c_c2_elabs_scored_4.5plus,openbind_d68ev3c_c2_elabs,openbind_d68ev3c_c2_elabs_scored_5plus,syndirella_product,openbind_d68ev3c_c2_elabs_scored_top80percent,syndirella_placed

>  <smiles>  (88) 
Cc1cc(F)cc(NC(=O)c2ccnc(F)c2I)c1C

>  <subsites>  (88) 
None

>  <rmsd(smina/fragmenstein)>  (88) 
1.413

>  <alias>  (88) 
None

>  <energy_score>  (88) 
-25.583003

>  <HIPPO Pose ID>  (88) 
64236

>  <distance_score>  (88) 
1.151996

>  <HIPPO Compound ID>  (88) 
100539

>  <gnina_score_min>  (88) 
5.113

>  <name>  (88) 
P64236

>  <exports>  (88) 
['/opt/xchem-fragalysis-2/maxwin/BulkDock/OUTPUTS/openbind_d68ev3c_c2_elabs_1LOTQJ3.sdf', '/opt/xchem-fragalysis-2/maxwin/BulkDock/OUTPUTS/openbind_d68ev3c_c2_elabs_1LSYEHW.sdf', '/opt/xchem-fragalysis-2/maxwin/BulkDock/OUTPUTS/openbind_d68ev3c_c2_elabs_1LSYI5W.sdf']

$$$$
P64239
     RDKit          3D

 20 21  0  0  0  0  0  0  0  0999 V2000
    3.9117   -3.4183   33.9029 C   0  0  0  0  0  0  0  0  0  0  0  0
    3.2149   -3.4258   34.8811 C   0  0  0  0  0  0  0  0  0  0  0  0
    2.4068   -3.4213   36.0675 C   0  0  0  0  0  0  0  0  0  0  0  0
    2.7831   -2.5936   37.1321 C   0  0  0  0  0  0  0  0  0  0  0  0
    2.0404   -2.5847   38.3145 C   0  0  0  0  0  0  0  0  0  0  0  0
    0.9204   -3.3973   38.4258 C   0  0  0  0  0  0  0  0  0  0  0  0
    0.2081   -3.3937   39.5605 F   0  0  0  0  0  0  0  0  0  0  0  0
    0.5242   -4.2135   37.3774 C   0  0  0  0  0  0  0  0  0  0  0  0
    1.2716   -4.2348   36.1960 C   0  0  0  0  0  0  0  0  0  0  0  0
    0.8704   -5.0525   35.1446 N   0  0  0  0  0  0  0  0  0  0  0  0
   -0.2658   -6.0797   35.0577 C   0  0  0  0  0  0  0  0  0  0  0  0
   -1.0023   -6.4640   35.8768 O   0  0  0  0  0  0  0  0  0  0  0  0
   -0.4629   -6.6495   33.6788 C   0  0  0  0  0  0  0  0  0  0  0  0
   -1.3557   -7.7241   33.6593 C   0  0  0  0  0  0  0  0  0  0  0  0
   -1.7687   -8.2083   32.4469 C   0  0  0  0  0  0  0  0  0  0  0  0
   -3.0443   -9.3013   32.3914 Cl  0  0  0  0  0  0  0  0  0  0  0  0
   -1.3363   -7.7985   31.2471 N   0  0  0  0  0  0  0  0  0  0  0  0
   -0.4125   -6.8164   31.2845 C   0  0  0  0  0  0  0  0  0  0  0  0
    0.0306   -6.1882   32.4507 C   0  0  0  0  0  0  0  0  0  0  0  0
    1.0948   -4.8554   32.2269 Cl  0  0  0  0  0  0  0  0  0  0  0  0
  1  2  3  0
  2  3  1  0
  3  4  2  0
  4  5  1  0
  5  6  2  0
  6  7  1  0
  6  8  1  0
  8  9  2  0
  9 10  1  0
 10 11  1  0
 11 12  2  0
 11 13  1  0
 13 14  2  0
 14 15  1  0
 15 16  1  0
 15 17  2  0
 17 18  1  0
 18 19  2  0
 19 20  1  0
  9  3  1  0
 19 13  1  0
M  END
>  <ref_mols>  (89) 
7gov-a

>  <gnina_score>  (89) 
5.09

>  <smina_score_min>  (89) 
-5.235

>  <ref_pdb>  (89) 
7gov-a

>  <inspiration_score>  (89) 
None

>  <inchikey>  (89) 
HTKJTYVAXURESU-UHFFFAOYSA-N

>  <tags>  (89) 
BulkDock Fragalysis export,openbind_d68ev3c_c2_elabs_scored,openbind_d68ev3c_c2_elabs_scored_4.5plus,openbind_d68ev3c_c2_elabs,openbind_d68ev3c_c2_elabs_scored_5plus,syndirella_product,openbind_d68ev3c_c2_elabs_scored_top80percent,syndirella_placed

>  <smiles>  (89) 
C#Cc1ccc(F)cc1NC(=O)c1cc(Cl)ncc1Cl

>  <subsites>  (89) 
None

>  <rmsd(smina/fragmenstein)>  (89) 
1.268

>  <alias>  (89) 
None

>  <energy_score>  (89) 
-18.010064

>  <HIPPO Pose ID>  (89) 
64239

>  <distance_score>  (89) 
0.830929

>  <HIPPO Compound ID>  (89) 
100544

>  <gnina_score_min>  (89) 
5.025

>  <name>  (89) 
P64239

>  <exports>  (89) 
['/opt/xchem-fragalysis-2/maxwin/BulkDock/OUTPUTS/openbind_d68ev3c_c2_elabs_1LOTQJ3.sdf', '/opt/xchem-fragalysis-2/maxwin/BulkDock/OUTPUTS/openbind_d68ev3c_c2_elabs_1LSYEHW.sdf', '/opt/xchem-fragalysis-2/maxwin/BulkDock/OUTPUTS/openbind_d68ev3c_c2_elabs_1LSYI5W.sdf']

$$$$
P64241
     RDKit          3D

 20 21  0  0  0  0  0  0  0  0999 V2000
    2.5225   -3.5203   34.4317 C   0  0  0  0  0  0  0  0  0  0  0  0
    1.8734   -3.5573   35.7870 C   0  0  0  0  0  0  0  0  0  0  0  0
    2.3934   -2.7597   36.8209 C   0  0  0  0  0  0  0  0  0  0  0  0
    1.8628   -2.8365   38.1106 C   0  0  0  0  0  0  0  0  0  0  0  0
    2.5857   -1.7511   39.4806 Br  0  0  0  0  0  0  0  0  0  0  0  0
    0.8159   -3.7107   38.3785 C   0  0  0  0  0  0  0  0  0  0  0  0
    0.2739   -3.7822   39.6036 F   0  0  0  0  0  0  0  0  0  0  0  0
    0.3008   -4.5206   37.3747 C   0  0  0  0  0  0  0  0  0  0  0  0
    0.8202   -4.4385   36.0808 C   0  0  0  0  0  0  0  0  0  0  0  0
    0.2687   -5.2391   35.0883 N   0  0  0  0  0  0  0  0  0  0  0  0
   -0.3623   -6.6461   35.1702 C   0  0  0  0  0  0  0  0  0  0  0  0
   -0.5872   -7.3200   36.0938 O   0  0  0  0  0  0  0  0  0  0  0  0
   -0.8021   -7.1738   33.8268 C   0  0  0  0  0  0  0  0  0  0  0  0
   -0.1961   -6.7533   32.6343 C   0  0  0  0  0  0  0  0  0  0  0  0
   -0.7160   -7.2044   31.4342 C   0  0  0  0  0  0  0  0  0  0  0  0
   -0.2414   -6.4924   29.9526 Cl  0  0  0  0  0  0  0  0  0  0  0  0
   -1.7122   -8.1029   31.3201 N   0  0  0  0  0  0  0  0  0  0  0  0
   -2.2266   -8.5553   32.4828 C   0  0  0  0  0  0  0  0  0  0  0  0
   -1.8510   -8.1037   33.7401 C   0  0  0  0  0  0  0  0  0  0  0  0
   -2.8473   -8.6349   35.0413 Cl  0  0  0  0  0  0  0  0  0  0  0  0
  1  2  1  0
  2  3  2  0
  3  4  1  0
  4  5  1  0
  4  6  2  0
  6  7  1  0
  6  8  1  0
  8  9  2  0
  9 10  1  0
 10 11  1  0
 11 12  2  0
 11 13  1  0
 13 14  2  0
 14 15  1  0
 15 16  1  0
 15 17  2  0
 17 18  1  0
 18 19  2  0
 19 20  1  0
  9  2  1  0
 19 13  1  0
M  END
>  <ref_mols>  (90) 
7gov-a

>  <gnina_score>  (90) 
5.196

>  <smina_score_min>  (90) 
-6.226

>  <ref_pdb>  (90) 
7gov-a

>  <inspiration_score>  (90) 
None

>  <inchikey>  (90) 
GICLIIWUICQXPP-UHFFFAOYSA-N

>  <tags>  (90) 
BulkDock Fragalysis export,openbind_d68ev3c_c2_elabs_scored,openbind_d68ev3c_c2_elabs_scored_4.5plus,openbind_d68ev3c_c2_elabs,openbind_d68ev3c_c2_elabs_scored_5plus,syndirella_product,openbind_d68ev3c_c2_elabs_scored_top80percent,syndirella_placed

>  <smiles>  (90) 
Cc1cc(Br)c(F)cc1NC(=O)c1cc(Cl)ncc1Cl

>  <subsites>  (90) 
None

>  <rmsd(smina/fragmenstein)>  (90) 
1.004

>  <alias>  (90) 
None

>  <energy_score>  (90) 
-4.24356

>  <HIPPO Pose ID>  (90) 
64241

>  <distance_score>  (90) 
0.585296

>  <HIPPO Compound ID>  (90) 
100547

>  <gnina_score_min>  (90) 
5.269

>  <name>  (90) 
P64241

>  <exports>  (90) 
['/opt/xchem-fragalysis-2/maxwin/BulkDock/OUTPUTS/openbind_d68ev3c_c2_elabs_1LOTQJ3.sdf', '/opt/xchem-fragalysis-2/maxwin/BulkDock/OUTPUTS/openbind_d68ev3c_c2_elabs_1LSYEHW.sdf', '/opt/xchem-fragalysis-2/maxwin/BulkDock/OUTPUTS/openbind_d68ev3c_c2_elabs_1LSYI5W.sdf']

$$$$
P64242
     RDKit          3D

 20 21  0  0  0  0  0  0  0  0999 V2000
    3.2842   -3.5324   34.8458 C   0  0  0  0  0  0  0  0  0  0  0  0
    2.4434   -3.4606   36.0935 C   0  0  0  0  0  0  0  0  0  0  0  0
    2.7725   -2.6149   37.1715 C   0  0  0  0  0  0  0  0  0  0  0  0
    4.2621   -1.4295   37.1357 Br  0  0  0  0  0  0  0  0  0  0  0  0
    2.0032   -2.5992   38.3390 C   0  0  0  0  0  0  0  0  0  0  0  0
    0.8880   -3.4126   38.4338 C   0  0  0  0  0  0  0  0  0  0  0  0
    0.1525   -3.4037   39.5534 F   0  0  0  0  0  0  0  0  0  0  0  0
    0.5125   -4.2250   37.3802 C   0  0  0  0  0  0  0  0  0  0  0  0
    1.2827   -4.2509   36.2132 C   0  0  0  0  0  0  0  0  0  0  0  0
    0.8712   -5.0591   35.1574 N   0  0  0  0  0  0  0  0  0  0  0  0
   -0.2653   -6.0878   35.0723 C   0  0  0  0  0  0  0  0  0  0  0  0
   -0.9926   -6.4812   35.8954 O   0  0  0  0  0  0  0  0  0  0  0  0
   -0.4669   -6.6507   33.6904 C   0  0  0  0  0  0  0  0  0  0  0  0
   -1.3666   -7.7194   33.6669 C   0  0  0  0  0  0  0  0  0  0  0  0
   -1.7758   -8.2031   32.4528 C   0  0  0  0  0  0  0  0  0  0  0  0
   -3.0505   -9.2969   32.3924 Cl  0  0  0  0  0  0  0  0  0  0  0  0
   -1.3366   -7.7949   31.2550 N   0  0  0  0  0  0  0  0  0  0  0  0
   -0.4074   -6.8180   31.2958 C   0  0  0  0  0  0  0  0  0  0  0  0
    0.0360   -6.1936   32.4640 C   0  0  0  0  0  0  0  0  0  0  0  0
    1.1205   -4.8747   32.2458 Cl  0  0  0  0  0  0  0  0  0  0  0  0
  1  2  1  0
  2  3  2  0
  3  4  1  0
  3  5  1  0
  5  6  2  0
  6  7  1  0
  6  8  1  0
  8  9  2  0
  9 10  1  0
 10 11  1  0
 11 12  2  0
 11 13  1  0
 13 14  2  0
 14 15  1  0
 15 16  1  0
 15 17  2  0
 17 18  1  0
 18 19  2  0
 19 20  1  0
  9  2  1  0
 19 13  1  0
M  END
>  <ref_mols>  (91) 
7gov-a

>  <gnina_score>  (91) 
5.175

>  <smina_score_min>  (91) 
-5.807

>  <ref_pdb>  (91) 
7gov-a

>  <inspiration_score>  (91) 
None

>  <inchikey>  (91) 
CPWSZOZZQWQQHG-UHFFFAOYSA-N

>  <tags>  (91) 
BulkDock Fragalysis export,openbind_d68ev3c_c2_elabs_scored,openbind_d68ev3c_c2_elabs_scored_4.5plus,openbind_d68ev3c_c2_elabs,openbind_d68ev3c_c2_elabs_scored_5plus,syndirella_product,openbind_d68ev3c_c2_elabs_scored_top80percent,syndirella_placed

>  <smiles>  (91) 
Cc1c(Br)cc(F)cc1NC(=O)c1cc(Cl)ncc1Cl

>  <subsites>  (91) 
None

>  <rmsd(smina/fragmenstein)>  (91) 
1.177

>  <alias>  (91) 
None

>  <energy_score>  (91) 
-16.520652

>  <HIPPO Pose ID>  (91) 
64242

>  <distance_score>  (91) 
0.824334

>  <HIPPO Compound ID>  (91) 
100548

>  <gnina_score_min>  (91) 
5.009

>  <name>  (91) 
P64242

>  <exports>  (91) 
['/opt/xchem-fragalysis-2/maxwin/BulkDock/OUTPUTS/openbind_d68ev3c_c2_elabs_1LOTQJ3.sdf', '/opt/xchem-fragalysis-2/maxwin/BulkDock/OUTPUTS/openbind_d68ev3c_c2_elabs_1LSYEHW.sdf', '/opt/xchem-fragalysis-2/maxwin/BulkDock/OUTPUTS/openbind_d68ev3c_c2_elabs_1LSYI5W.sdf']

$$$$
P64245
     RDKit          3D

 20 21  0  0  0  0  0  0  0  0999 V2000
    2.5094   -3.5085   34.4400 C   0  0  0  0  0  0  0  0  0  0  0  0
    1.8659   -3.5483   35.7954 C   0  0  0  0  0  0  0  0  0  0  0  0
    2.3556   -2.7334   36.8248 C   0  0  0  0  0  0  0  0  0  0  0  0
    3.3452   -1.8623   36.5746 F   0  0  0  0  0  0  0  0  0  0  0  0
    1.8360   -2.7875   38.1126 C   0  0  0  0  0  0  0  0  0  0  0  0
    0.8179   -3.6855   38.3855 C   0  0  0  0  0  0  0  0  0  0  0  0
    0.2932   -3.7363   39.6170 F   0  0  0  0  0  0  0  0  0  0  0  0
    0.3181   -4.5225   37.3969 C   0  0  0  0  0  0  0  0  0  0  0  0
    0.8311   -4.4453   36.0998 C   0  0  0  0  0  0  0  0  0  0  0  0
    0.2864   -5.2538   35.1090 N   0  0  0  0  0  0  0  0  0  0  0  0
   -0.4177   -6.6257   35.2077 C   0  0  0  0  0  0  0  0  0  0  0  0
   -0.7183   -7.2543   36.1418 O   0  0  0  0  0  0  0  0  0  0  0  0
   -0.8306   -7.1728   33.8592 C   0  0  0  0  0  0  0  0  0  0  0  0
   -0.2095   -6.7540   32.6728 C   0  0  0  0  0  0  0  0  0  0  0  0
   -0.7132   -7.2045   31.4652 C   0  0  0  0  0  0  0  0  0  0  0  0
   -0.2283   -6.4804   29.9927 Cl  0  0  0  0  0  0  0  0  0  0  0  0
   -1.7041   -8.1065   31.3372 N   0  0  0  0  0  0  0  0  0  0  0  0
   -2.2278   -8.5641   32.4936 C   0  0  0  0  0  0  0  0  0  0  0  0
   -1.8709   -8.1114   33.7570 C   0  0  0  0  0  0  0  0  0  0  0  0
   -2.8801   -8.6587   35.0421 Cl  0  0  0  0  0  0  0  0  0  0  0  0
  1  2  1  0
  2  3  2  0
  3  4  1  0
  3  5  1  0
  5  6  2  0
  6  7  1  0
  6  8  1  0
  8  9  2  0
  9 10  1  0
 10 11  1  0
 11 12  2  0
 11 13  1  0
 13 14  2  0
 14 15  1  0
 15 16  1  0
 15 17  2  0
 17 18  1  0
 18 19  2  0
 19 20  1  0
  9  2  1  0
 19 13  1  0
M  END
>  <ref_mols>  (92) 
7gov-a

>  <gnina_score>  (92) 
5.146

>  <smina_score_min>  (92) 
-6.247

>  <ref_pdb>  (92) 
7gov-a

>  <inspiration_score>  (92) 
None

>  <inchikey>  (92) 
IUPFPTCVFFMDSC-UHFFFAOYSA-N

>  <tags>  (92) 
BulkDock Fragalysis export,openbind_d68ev3c_c2_elabs_scored,openbind_d68ev3c_c2_elabs_scored_4.5plus,openbind_d68ev3c_c2_elabs,openbind_d68ev3c_c2_elabs_scored_5plus,syndirella_product,openbind_d68ev3c_c2_elabs_scored_top80percent,syndirella_placed

>  <smiles>  (92) 
Cc1c(F)cc(F)cc1NC(=O)c1cc(Cl)ncc1Cl

>  <subsites>  (92) 
None

>  <rmsd(smina/fragmenstein)>  (92) 
0.999

>  <alias>  (92) 
None

>  <energy_score>  (92) 
-9.350999

>  <HIPPO Pose ID>  (92) 
64245

>  <distance_score>  (92) 
0.626581

>  <HIPPO Compound ID>  (92) 
100551

>  <gnina_score_min>  (92) 
5.187

>  <name>  (92) 
P64245

>  <exports>  (92) 
['/opt/xchem-fragalysis-2/maxwin/BulkDock/OUTPUTS/openbind_d68ev3c_c2_elabs_1LOTQJ3.sdf', '/opt/xchem-fragalysis-2/maxwin/BulkDock/OUTPUTS/openbind_d68ev3c_c2_elabs_1LSYEHW.sdf', '/opt/xchem-fragalysis-2/maxwin/BulkDock/OUTPUTS/openbind_d68ev3c_c2_elabs_1LSYI5W.sdf']

$$$$
P64246
     RDKit          3D

 20 21  0  0  0  0  0  0  0  0999 V2000
    2.9443   -3.4428   33.3958 N   0  0  0  0  0  0  0  0  0  0  0  0
    2.5161   -3.4813   34.4744 C   0  0  0  0  0  0  0  0  0  0  0  0
    1.9151   -3.5346   35.7747 C   0  0  0  0  0  0  0  0  0  0  0  0
    2.4170   -2.7185   36.7986 C   0  0  0  0  0  0  0  0  0  0  0  0
    1.8708   -2.7875   38.0819 C   0  0  0  0  0  0  0  0  0  0  0  0
    0.8382   -3.6806   38.3403 C   0  0  0  0  0  0  0  0  0  0  0  0
    0.3027   -3.7337   39.5668 F   0  0  0  0  0  0  0  0  0  0  0  0
    0.3419   -4.5092   37.3422 C   0  0  0  0  0  0  0  0  0  0  0  0
    0.8695   -4.4298   36.0503 C   0  0  0  0  0  0  0  0  0  0  0  0
    0.3178   -5.2366   35.0552 N   0  0  0  0  0  0  0  0  0  0  0  0
   -0.3143   -6.6422   35.1402 C   0  0  0  0  0  0  0  0  0  0  0  0
   -0.5419   -7.3126   36.0654 O   0  0  0  0  0  0  0  0  0  0  0  0
   -0.7678   -7.1669   33.7994 C   0  0  0  0  0  0  0  0  0  0  0  0
   -0.1730   -6.7487   32.5999 C   0  0  0  0  0  0  0  0  0  0  0  0
   -0.7071   -7.2011   31.4062 C   0  0  0  0  0  0  0  0  0  0  0  0
   -0.2480   -6.4982   29.9157 Cl  0  0  0  0  0  0  0  0  0  0  0  0
   -1.7086   -8.0963   31.3049 N   0  0  0  0  0  0  0  0  0  0  0  0
   -2.2138   -8.5438   32.4726 C   0  0  0  0  0  0  0  0  0  0  0  0
   -1.8235   -8.0912   33.7244 C   0  0  0  0  0  0  0  0  0  0  0  0
   -2.8114   -8.6153   35.0354 Cl  0  0  0  0  0  0  0  0  0  0  0  0
  1  2  3  0
  2  3  1  0
  3  4  2  0
  4  5  1  0
  5  6  2  0
  6  7  1  0
  6  8  1  0
  8  9  2  0
  9 10  1  0
 10 11  1  0
 11 12  2  0
 11 13  1  0
 13 14  2  0
 14 15  1  0
 15 16  1  0
 15 17  2  0
 17 18  1  0
 18 19  2  0
 19 20  1  0
  9  3  1  0
 19 13  1  0
M  END
>  <ref_mols>  (93) 
7gov-a

>  <gnina_score>  (93) 
5.078

>  <smina_score_min>  (93) 
-6.023

>  <ref_pdb>  (93) 
7gov-a

>  <inspiration_score>  (93) 
None

>  <inchikey>  (93) 
YCPMLOUWOGFZFY-UHFFFAOYSA-N

>  <tags>  (93) 
BulkDock Fragalysis export,openbind_d68ev3c_c2_elabs_scored,openbind_d68ev3c_c2_elabs_scored_4.5plus,openbind_d68ev3c_c2_elabs,openbind_d68ev3c_c2_elabs_scored_5plus,syndirella_product,openbind_d68ev3c_c2_elabs_scored_top80percent,syndirella_placed

>  <smiles>  (93) 
N#Cc1ccc(F)cc1NC(=O)c1cc(Cl)ncc1Cl

>  <subsites>  (93) 
None

>  <rmsd(smina/fragmenstein)>  (93) 
1.201

>  <alias>  (93) 
None

>  <energy_score>  (93) 
-3.081976

>  <HIPPO Pose ID>  (93) 
64246

>  <distance_score>  (93) 
0.574169

>  <HIPPO Compound ID>  (93) 
100552

>  <gnina_score_min>  (93) 
5.179

>  <name>  (93) 
P64246

>  <exports>  (93) 
['/opt/xchem-fragalysis-2/maxwin/BulkDock/OUTPUTS/openbind_d68ev3c_c2_elabs_1LOTQJ3.sdf', '/opt/xchem-fragalysis-2/maxwin/BulkDock/OUTPUTS/openbind_d68ev3c_c2_elabs_1LSYEHW.sdf', '/opt/xchem-fragalysis-2/maxwin/BulkDock/OUTPUTS/openbind_d68ev3c_c2_elabs_1LSYI5W.sdf']

$$$$
P64247
     RDKit          3D

 20 21  0  0  0  0  0  0  0  0999 V2000
    3.1783   -3.2124   34.4591 C   0  0  0  0  0  0  0  0  0  0  0  0
    2.4274   -3.2535   35.7598 C   0  0  0  0  0  0  0  0  0  0  0  0
    2.8711   -2.4677   36.8360 C   0  0  0  0  0  0  0  0  0  0  0  0
    2.2433   -2.5391   38.0782 C   0  0  0  0  0  0  0  0  0  0  0  0
    1.1618   -3.3893   38.2495 C   0  0  0  0  0  0  0  0  0  0  0  0
    0.5404   -3.4056   39.4409 F   0  0  0  0  0  0  0  0  0  0  0  0
    0.7024   -4.1788   37.1969 C   0  0  0  0  0  0  0  0  0  0  0  0
   -0.8941   -5.1374   37.4971 Br  0  0  0  0  0  0  0  0  0  0  0  0
    1.3422   -4.1246   35.9468 C   0  0  0  0  0  0  0  0  0  0  0  0
    0.9275   -4.8919   34.8564 N   0  0  0  0  0  0  0  0  0  0  0  0
    0.5343   -6.3784   34.7705 C   0  0  0  0  0  0  0  0  0  0  0  0
    0.5678   -7.2182   35.5809 O   0  0  0  0  0  0  0  0  0  0  0  0
   -0.0733   -6.7531   33.4613 C   0  0  0  0  0  0  0  0  0  0  0  0
   -1.1040   -7.6928   33.5706 C   0  0  0  0  0  0  0  0  0  0  0  0
   -1.7232   -8.1089   32.4197 C   0  0  0  0  0  0  0  0  0  0  0  0
   -3.0200   -9.1872   32.4923 Cl  0  0  0  0  0  0  0  0  0  0  0  0
   -1.4191   -7.6961   31.1780 N   0  0  0  0  0  0  0  0  0  0  0  0
   -0.4018   -6.8082   31.0989 C   0  0  0  0  0  0  0  0  0  0  0  0
    0.2865   -6.2908   32.1946 C   0  0  0  0  0  0  0  0  0  0  0  0
    1.5268   -5.1413   31.8804 Cl  0  0  0  0  0  0  0  0  0  0  0  0
  1  2  1  0
  2  3  2  0
  3  4  1  0
  4  5  2  0
  5  6  1  0
  5  7  1  0
  7  8  1  0
  7  9  2  0
  9 10  1  0
 10 11  1  0
 11 12  2  0
 11 13  1  0
 13 14  2  0
 14 15  1  0
 15 16  1  0
 15 17  2  0
 17 18  1  0
 18 19  2  0
 19 20  1  0
  9  2  1  0
 19 13  1  0
M  END
>  <ref_mols>  (94) 
7gov-a

>  <gnina_score>  (94) 
5.213

>  <smina_score_min>  (94) 
-5.427

>  <ref_pdb>  (94) 
7gov-a

>  <inspiration_score>  (94) 
None

>  <inchikey>  (94) 
IZWDFAXEDYVWRR-UHFFFAOYSA-N

>  <tags>  (94) 
BulkDock Fragalysis export,openbind_d68ev3c_c2_elabs_scored,openbind_d68ev3c_c2_elabs_scored_4.5plus,openbind_d68ev3c_c2_elabs,openbind_d68ev3c_c2_elabs_scored_5plus,syndirella_product,openbind_d68ev3c_c2_elabs_scored_top80percent,syndirella_placed

>  <smiles>  (94) 
Cc1ccc(F)c(Br)c1NC(=O)c1cc(Cl)ncc1Cl

>  <subsites>  (94) 
None

>  <rmsd(smina/fragmenstein)>  (94) 
1.007

>  <alias>  (94) 
None

>  <energy_score>  (94) 
-6.552168

>  <HIPPO Pose ID>  (94) 
64247

>  <distance_score>  (94) 
0.69765

>  <HIPPO Compound ID>  (94) 
100553

>  <gnina_score_min>  (94) 
5.081

>  <name>  (94) 
P64247

>  <exports>  (94) 
['/opt/xchem-fragalysis-2/maxwin/BulkDock/OUTPUTS/openbind_d68ev3c_c2_elabs_1LOTQJ3.sdf', '/opt/xchem-fragalysis-2/maxwin/BulkDock/OUTPUTS/openbind_d68ev3c_c2_elabs_1LSYEHW.sdf', '/opt/xchem-fragalysis-2/maxwin/BulkDock/OUTPUTS/openbind_d68ev3c_c2_elabs_1LSYI5W.sdf']

$$$$
P64274
     RDKit          3D

 20 21  0  0  0  0  0  0  0  0999 V2000
    2.5237   -3.3771   34.3679 C   0  0  0  0  0  0  0  0  0  0  0  0
    1.8803   -3.4571   35.7227 C   0  0  0  0  0  0  0  0  0  0  0  0
    2.3711   -2.6626   36.7713 C   0  0  0  0  0  0  0  0  0  0  0  0
    1.8485   -2.7924   38.0559 C   0  0  0  0  0  0  0  0  0  0  0  0
    2.3179   -2.0081   39.0370 F   0  0  0  0  0  0  0  0  0  0  0  0
    0.8482   -3.7169   38.3167 C   0  0  0  0  0  0  0  0  0  0  0  0
    0.3244   -3.8190   39.5466 F   0  0  0  0  0  0  0  0  0  0  0  0
    0.3667   -4.5315   37.3009 C   0  0  0  0  0  0  0  0  0  0  0  0
    0.8704   -4.3910   36.0039 C   0  0  0  0  0  0  0  0  0  0  0  0
    0.3460   -5.1863   34.9946 N   0  0  0  0  0  0  0  0  0  0  0  0
   -0.1889   -6.6311   35.0346 C   0  0  0  0  0  0  0  0  0  0  0  0
   -0.3445   -7.3532   35.9344 O   0  0  0  0  0  0  0  0  0  0  0  0
   -0.6462   -7.1067   33.6823 C   0  0  0  0  0  0  0  0  0  0  0  0
    0.0285   -6.6893   32.5256 C   0  0  0  0  0  0  0  0  0  0  0  0
   -0.4091   -7.1341   31.2889 C   0  0  0  0  0  0  0  0  0  0  0  0
   -1.4442   -7.9741   31.1258 N   0  0  0  0  0  0  0  0  0  0  0  0
   -2.0370   -8.4095   32.2561 C   0  0  0  0  0  0  0  0  0  0  0  0
   -3.0521   -9.2657   32.0696 F   0  0  0  0  0  0  0  0  0  0  0  0
   -1.7076   -8.0067   33.5397 C   0  0  0  0  0  0  0  0  0  0  0  0
   -2.9474   -8.7308   35.0335 I   0  0  0  0  0  0  0  0  0  0  0  0
  1  2  1  0
  2  3  2  0
  3  4  1  0
  4  5  1  0
  4  6  2  0
  6  7  1  0
  6  8  1  0
  8  9  2  0
  9 10  1  0
 10 11  1  0
 11 12  2  0
 11 13  1  0
 13 14  2  0
 14 15  1  0
 15 16  2  0
 16 17  1  0
 17 18  1  0
 17 19  2  0
 19 20  1  0
  9  2  1  0
 19 13  1  0
M  END
>  <ref_mols>  (95) 
7gov-a

>  <gnina_score>  (95) 
5.093

>  <smina_score_min>  (95) 
-5.197

>  <ref_pdb>  (95) 
7gov-a

>  <inspiration_score>  (95) 
None

>  <inchikey>  (95) 
DIJKFWRKLZPUCU-UHFFFAOYSA-N

>  <tags>  (95) 
BulkDock Fragalysis export,openbind_d68ev3c_c2_elabs_scored,openbind_d68ev3c_c2_elabs_scored_4.5plus,openbind_d68ev3c_c2_elabs,openbind_d68ev3c_c2_elabs_scored_5plus,syndirella_product,openbind_d68ev3c_c2_elabs_scored_top80percent,syndirella_placed

>  <smiles>  (95) 
Cc1cc(F)c(F)cc1NC(=O)c1ccnc(F)c1I

>  <subsites>  (95) 
None

>  <rmsd(smina/fragmenstein)>  (95) 
1.838

>  <alias>  (95) 
None

>  <energy_score>  (95) 
-22.828247

>  <HIPPO Pose ID>  (95) 
64274

>  <distance_score>  (95) 
0.569602

>  <HIPPO Compound ID>  (95) 
100588

>  <gnina_score_min>  (95) 
5.251

>  <name>  (95) 
P64274

>  <exports>  (95) 
['/opt/xchem-fragalysis-2/maxwin/BulkDock/OUTPUTS/openbind_d68ev3c_c2_elabs_1LOTQJ3.sdf', '/opt/xchem-fragalysis-2/maxwin/BulkDock/OUTPUTS/openbind_d68ev3c_c2_elabs_1LSYEHW.sdf', '/opt/xchem-fragalysis-2/maxwin/BulkDock/OUTPUTS/openbind_d68ev3c_c2_elabs_1LSYI5W.sdf']

$$$$
P64275
     RDKit          3D

 20 21  0  0  0  0  0  0  0  0999 V2000
    3.0080   -3.3026   34.4628 C   0  0  0  0  0  0  0  0  0  0  0  0
    2.3394   -3.2815   35.8099 C   0  0  0  0  0  0  0  0  0  0  0  0
    2.8744   -2.4837   36.8334 C   0  0  0  0  0  0  0  0  0  0  0  0
    2.3251   -2.5052   38.1151 C   0  0  0  0  0  0  0  0  0  0  0  0
    1.2369   -3.3227   38.3812 C   0  0  0  0  0  0  0  0  0  0  0  0
    0.6915   -3.2930   39.6084 F   0  0  0  0  0  0  0  0  0  0  0  0
    0.6910   -4.1275   37.3861 C   0  0  0  0  0  0  0  0  0  0  0  0
   -0.8938   -5.0513   37.8248 Br  0  0  0  0  0  0  0  0  0  0  0  0
    1.2445   -4.1146   36.0961 C   0  0  0  0  0  0  0  0  0  0  0  0
    0.7178   -4.8811   35.0590 N   0  0  0  0  0  0  0  0  0  0  0  0
    0.3784   -6.3821   34.9969 C   0  0  0  0  0  0  0  0  0  0  0  0
    0.4136   -7.1999   35.8269 O   0  0  0  0  0  0  0  0  0  0  0  0
   -0.1656   -6.7837   33.6771 C   0  0  0  0  0  0  0  0  0  0  0  0
   -1.1599   -7.7538   33.6946 C   0  0  0  0  0  0  0  0  0  0  0  0
   -1.7182   -8.0944   32.4893 C   0  0  0  0  0  0  0  0  0  0  0  0
   -2.9893   -9.2048   32.4362 Cl  0  0  0  0  0  0  0  0  0  0  0  0
   -1.3967   -7.5707   31.2949 N   0  0  0  0  0  0  0  0  0  0  0  0
   -0.4003   -6.6677   31.3249 C   0  0  0  0  0  0  0  0  0  0  0  0
   -0.0508   -5.9341   29.8192 Cl  0  0  0  0  0  0  0  0  0  0  0  0
    0.2495   -6.2408   32.4665 C   0  0  0  0  0  0  0  0  0  0  0  0
  1  2  1  0
  2  3  2  0
  3  4  1  0
  4  5  2  0
  5  6  1  0
  5  7  1  0
  7  8  1  0
  7  9  2  0
  9 10  1  0
 10 11  1  0
 11 12  2  0
 11 13  1  0
 13 14  2  0
 14 15  1  0
 15 16  1  0
 15 17  2  0
 17 18  1  0
 18 19  1  0
 18 20  2  0
  9  2  1  0
 20 13  1  0
M  END
>  <ref_mols>  (96) 
7gov-a

>  <gnina_score>  (96) 
5.239

>  <smina_score_min>  (96) 
-5.491

>  <ref_pdb>  (96) 
7gov-a

>  <inspiration_score>  (96) 
None

>  <inchikey>  (96) 
KRBNOBXULZUSJS-UHFFFAOYSA-N

>  <tags>  (96) 
BulkDock Fragalysis export,openbind_d68ev3c_c2_elabs_scored,openbind_d68ev3c_c2_elabs_scored_4.5plus,openbind_d68ev3c_c2_elabs,openbind_d68ev3c_c2_elabs_scored_5plus,syndirella_product,openbind_d68ev3c_c2_elabs_scored_top80percent,syndirella_placed

>  <smiles>  (96) 
Cc1ccc(F)c(Br)c1NC(=O)c1cc(Cl)nc(Cl)c1

>  <subsites>  (96) 
None

>  <rmsd(smina/fragmenstein)>  (96) 
0.825

>  <alias>  (96) 
None

>  <energy_score>  (96) 
-5.396474

>  <HIPPO Pose ID>  (96) 
64275

>  <distance_score>  (96) 
0.713174

>  <HIPPO Compound ID>  (96) 
100590

>  <gnina_score_min>  (96) 
5.22

>  <name>  (96) 
P64275

>  <exports>  (96) 
['/opt/xchem-fragalysis-2/maxwin/BulkDock/OUTPUTS/openbind_d68ev3c_c2_elabs_1LOTQJ3.sdf', '/opt/xchem-fragalysis-2/maxwin/BulkDock/OUTPUTS/openbind_d68ev3c_c2_elabs_1LSYEHW.sdf', '/opt/xchem-fragalysis-2/maxwin/BulkDock/OUTPUTS/openbind_d68ev3c_c2_elabs_1LSYI5W.sdf']

$$$$
P64279
     RDKit          3D

 20 21  0  0  0  0  0  0  0  0999 V2000
    3.1917   -3.5779   34.9290 C   0  0  0  0  0  0  0  0  0  0  0  0
    2.3877   -3.4733   36.2007 C   0  0  0  0  0  0  0  0  0  0  0  0
    2.7516   -2.6308   37.2676 C   0  0  0  0  0  0  0  0  0  0  0  0
    4.2791   -1.4967   37.2216 Br  0  0  0  0  0  0  0  0  0  0  0  0
    1.9931   -2.5895   38.4421 C   0  0  0  0  0  0  0  0  0  0  0  0
    0.8635   -3.3817   38.5589 C   0  0  0  0  0  0  0  0  0  0  0  0
    0.1406   -3.3465   39.6855 F   0  0  0  0  0  0  0  0  0  0  0  0
    0.4680   -4.2109   37.5275 C   0  0  0  0  0  0  0  0  0  0  0  0
    1.2321   -4.2684   36.3611 C   0  0  0  0  0  0  0  0  0  0  0  0
    0.8336   -5.1102   35.3300 N   0  0  0  0  0  0  0  0  0  0  0  0
   -0.3604   -6.0763   35.2326 C   0  0  0  0  0  0  0  0  0  0  0  0
   -1.1563   -6.3776   36.0302 O   0  0  0  0  0  0  0  0  0  0  0  0
   -0.5266   -6.6166   33.8567 C   0  0  0  0  0  0  0  0  0  0  0  0
   -0.0859   -5.9634   32.7046 C   0  0  0  0  0  0  0  0  0  0  0  0
   -0.4396   -6.5010   31.4824 C   0  0  0  0  0  0  0  0  0  0  0  0
    0.0311   -5.7162   30.0355 Cl  0  0  0  0  0  0  0  0  0  0  0  0
   -1.2308   -7.5717   31.3229 N   0  0  0  0  0  0  0  0  0  0  0  0
   -1.6153   -8.1592   32.4666 C   0  0  0  0  0  0  0  0  0  0  0  0
   -2.6808   -9.4404   32.2504 Cl  0  0  0  0  0  0  0  0  0  0  0  0
   -1.2931   -7.7631   33.7382 C   0  0  0  0  0  0  0  0  0  0  0  0
  1  2  1  0
  2  3  2  0
  3  4  1  0
  3  5  1  0
  5  6  2  0
  6  7  1  0
  6  8  1  0
  8  9  2  0
  9 10  1  0
 10 11  1  0
 11 12  2  0
 11 13  1  0
 13 14  2  0
 14 15  1  0
 15 16  1  0
 15 17  2  0
 17 18  1  0
 18 19  1  0
 18 20  2  0
  9  2  1  0
 20 13  1  0
M  END
>  <ref_mols>  (97) 
7gov-a

>  <gnina_score>  (97) 
5.083

>  <smina_score_min>  (97) 
-5.502

>  <ref_pdb>  (97) 
7gov-a

>  <inspiration_score>  (97) 
None

>  <inchikey>  (97) 
JEGJKPGRQMYAQI-UHFFFAOYSA-N

>  <tags>  (97) 
BulkDock Fragalysis export,openbind_d68ev3c_c2_elabs_scored,openbind_d68ev3c_c2_elabs_scored_4.5plus,openbind_d68ev3c_c2_elabs,openbind_d68ev3c_c2_elabs_scored_5plus,syndirella_product,openbind_d68ev3c_c2_elabs_scored_top80percent,syndirella_placed

>  <smiles>  (97) 
Cc1c(Br)cc(F)cc1NC(=O)c1cc(Cl)nc(Cl)c1

>  <subsites>  (97) 
None

>  <rmsd(smina/fragmenstein)>  (97) 
1.248

>  <alias>  (97) 
None

>  <energy_score>  (97) 
-3.01274

>  <HIPPO Pose ID>  (97) 
64279

>  <distance_score>  (97) 
0.927695

>  <HIPPO Compound ID>  (97) 
100595

>  <gnina_score_min>  (97) 
5.055

>  <name>  (97) 
P64279

>  <exports>  (97) 
['/opt/xchem-fragalysis-2/maxwin/BulkDock/OUTPUTS/openbind_d68ev3c_c2_elabs_1LOTQJ3.sdf', '/opt/xchem-fragalysis-2/maxwin/BulkDock/OUTPUTS/openbind_d68ev3c_c2_elabs_1LSYEHW.sdf', '/opt/xchem-fragalysis-2/maxwin/BulkDock/OUTPUTS/openbind_d68ev3c_c2_elabs_1LSYI5W.sdf']

$$$$
P64280
     RDKit          3D

 20 21  0  0  0  0  0  0  0  0999 V2000
    3.1911   -3.5369   34.9368 C   0  0  0  0  0  0  0  0  0  0  0  0
    2.3604   -3.4785   36.1899 C   0  0  0  0  0  0  0  0  0  0  0  0
    2.7578   -2.6420   37.2438 C   0  0  0  0  0  0  0  0  0  0  0  0
    2.0265   -2.6091   38.4329 C   0  0  0  0  0  0  0  0  0  0  0  0
    2.6078   -1.4990   39.8499 Br  0  0  0  0  0  0  0  0  0  0  0  0
    0.8847   -3.3902   38.5698 C   0  0  0  0  0  0  0  0  0  0  0  0
    0.1652   -3.3724   39.7012 F   0  0  0  0  0  0  0  0  0  0  0  0
    0.4657   -4.2105   37.5344 C   0  0  0  0  0  0  0  0  0  0  0  0
    1.2114   -4.2690   36.3566 C   0  0  0  0  0  0  0  0  0  0  0  0
    0.8128   -5.1048   35.3258 N   0  0  0  0  0  0  0  0  0  0  0  0
   -0.3801   -6.0708   35.2269 C   0  0  0  0  0  0  0  0  0  0  0  0
   -1.1743   -6.3756   36.0245 O   0  0  0  0  0  0  0  0  0  0  0  0
   -0.5420   -6.6107   33.8508 C   0  0  0  0  0  0  0  0  0  0  0  0
   -0.1017   -5.9551   32.6999 C   0  0  0  0  0  0  0  0  0  0  0  0
   -0.4458   -6.4968   31.4769 C   0  0  0  0  0  0  0  0  0  0  0  0
    0.0291   -5.7126   30.0311 Cl  0  0  0  0  0  0  0  0  0  0  0  0
   -1.2286   -7.5731   31.3157 N   0  0  0  0  0  0  0  0  0  0  0  0
   -1.6129   -8.1624   32.4586 C   0  0  0  0  0  0  0  0  0  0  0  0
   -2.6629   -9.4552   32.2394 Cl  0  0  0  0  0  0  0  0  0  0  0  0
   -1.2994   -7.7627   33.7311 C   0  0  0  0  0  0  0  0  0  0  0  0
  1  2  1  0
  2  3  2  0
  3  4  1  0
  4  5  1  0
  4  6  2  0
  6  7  1  0
  6  8  1  0
  8  9  2  0
  9 10  1  0
 10 11  1  0
 11 12  2  0
 11 13  1  0
 13 14  2  0
 14 15  1  0
 15 16  1  0
 15 17  2  0
 17 18  1  0
 18 19  1  0
 18 20  2  0
  9  2  1  0
 20 13  1  0
M  END
>  <ref_mols>  (98) 
7gov-a

>  <gnina_score>  (98) 
5.05

>  <smina_score_min>  (98) 
-5.479

>  <ref_pdb>  (98) 
7gov-a

>  <inspiration_score>  (98) 
None

>  <inchikey>  (98) 
TVPXSYCBDGSTHP-UHFFFAOYSA-N

>  <tags>  (98) 
BulkDock Fragalysis export,openbind_d68ev3c_c2_elabs_scored,openbind_d68ev3c_c2_elabs_scored_4.5plus,openbind_d68ev3c_c2_elabs,openbind_d68ev3c_c2_elabs_scored_5plus,syndirella_product,openbind_d68ev3c_c2_elabs_scored_top80percent,syndirella_placed

>  <smiles>  (98) 
Cc1cc(Br)c(F)cc1NC(=O)c1cc(Cl)nc(Cl)c1

>  <subsites>  (98) 
None

>  <rmsd(smina/fragmenstein)>  (98) 
1.28

>  <alias>  (98) 
None

>  <energy_score>  (98) 
-17.765016

>  <HIPPO Pose ID>  (98) 
64280

>  <distance_score>  (98) 
0.929053

>  <HIPPO Compound ID>  (98) 
100596

>  <gnina_score_min>  (98) 
5.034

>  <name>  (98) 
P64280

>  <exports>  (98) 
['/opt/xchem-fragalysis-2/maxwin/BulkDock/OUTPUTS/openbind_d68ev3c_c2_elabs_1LOTQJ3.sdf', '/opt/xchem-fragalysis-2/maxwin/BulkDock/OUTPUTS/openbind_d68ev3c_c2_elabs_1LSYEHW.sdf', '/opt/xchem-fragalysis-2/maxwin/BulkDock/OUTPUTS/openbind_d68ev3c_c2_elabs_1LSYI5W.sdf']

$$$$
P64287
     RDKit          3D

 20 21  0  0  0  0  0  0  0  0999 V2000
    3.5130   -1.2068   36.8086 C   0  0  0  0  0  0  0  0  0  0  0  0
    2.4748   -2.2922   36.8871 C   0  0  0  0  0  0  0  0  0  0  0  0
    1.8728   -2.5556   38.1307 C   0  0  0  0  0  0  0  0  0  0  0  0
    0.9481   -3.5822   38.2633 C   0  0  0  0  0  0  0  0  0  0  0  0
    0.3696   -3.8043   39.4519 F   0  0  0  0  0  0  0  0  0  0  0  0
    0.6077   -4.3677   37.1783 C   0  0  0  0  0  0  0  0  0  0  0  0
    1.1705   -4.0901   35.9315 C   0  0  0  0  0  0  0  0  0  0  0  0
    0.7719   -4.8663   34.8578 N   0  0  0  0  0  0  0  0  0  0  0  0
    0.5999   -6.3851   34.7358 C   0  0  0  0  0  0  0  0  0  0  0  0
    0.8390   -7.2351   35.4943 O   0  0  0  0  0  0  0  0  0  0  0  0
   -0.0717   -6.7515   33.4587 C   0  0  0  0  0  0  0  0  0  0  0  0
    0.4126   -6.2986   32.2299 C   0  0  0  0  0  0  0  0  0  0  0  0
   -0.2028   -6.7534   31.0738 C   0  0  0  0  0  0  0  0  0  0  0  0
   -1.2341   -7.6197   31.0641 N   0  0  0  0  0  0  0  0  0  0  0  0
   -1.6501   -8.0449   32.2737 C   0  0  0  0  0  0  0  0  0  0  0  0
   -2.8658   -9.2287   32.1596 Cl  0  0  0  0  0  0  0  0  0  0  0  0
   -1.1576   -7.6197   33.4888 C   0  0  0  0  0  0  0  0  0  0  0  0
   -2.1262   -8.1790   35.2154 I   0  0  0  0  0  0  0  0  0  0  0  0
    2.1037   -3.0569   35.7582 C   0  0  0  0  0  0  0  0  0  0  0  0
    2.8014   -2.9118   34.4309 C   0  0  0  0  0  0  0  0  0  0  0  0
  1  2  1  0
  2  3  2  0
  3  4  1  0
  4  5  1  0
  4  6  2  0
  6  7  1  0
  7  8  1  0
  8  9  1  0
  9 10  2  0
  9 11  1  0
 11 12  2  0
 12 13  1  0
 13 14  2  0
 14 15  1  0
 15 16  1  0
 15 17  2  0
 17 18  1  0
  7 19  2  0
 19 20  1  0
 19  2  1  0
 17 11  1  0
M  END
>  <ref_mols>  (99) 
7gov-a

>  <gnina_score>  (99) 
5.072

>  <smina_score_min>  (99) 
-4.651

>  <ref_pdb>  (99) 
7gov-a

>  <inspiration_score>  (99) 
None

>  <inchikey>  (99) 
OTVHNEREDQOPSU-UHFFFAOYSA-N

>  <tags>  (99) 
BulkDock Fragalysis export,openbind_d68ev3c_c2_elabs_scored,openbind_d68ev3c_c2_elabs_scored_4.5plus,openbind_d68ev3c_c2_elabs,openbind_d68ev3c_c2_elabs_scored_5plus,syndirella_product,openbind_d68ev3c_c2_elabs_scored_top80percent,syndirella_placed

>  <smiles>  (99) 
Cc1cc(F)cc(NC(=O)c2ccnc(Cl)c2I)c1C

>  <subsites>  (99) 
None

>  <rmsd(smina/fragmenstein)>  (99) 
2.263

>  <alias>  (99) 
None

>  <energy_score>  (99) 
-4.585688

>  <HIPPO Pose ID>  (99) 
64287

>  <distance_score>  (99) 
0.722313

>  <HIPPO Compound ID>  (99) 
100605

>  <gnina_score_min>  (99) 
5.219

>  <name>  (99) 
P64287

>  <exports>  (99) 
['/opt/xchem-fragalysis-2/maxwin/BulkDock/OUTPUTS/openbind_d68ev3c_c2_elabs_1LOTQJ3.sdf', '/opt/xchem-fragalysis-2/maxwin/BulkDock/OUTPUTS/openbind_d68ev3c_c2_elabs_1LSYEHW.sdf', '/opt/xchem-fragalysis-2/maxwin/BulkDock/OUTPUTS/openbind_d68ev3c_c2_elabs_1LSYI5W.sdf']

$$$$
P64291
     RDKit          3D

 20 21  0  0  0  0  0  0  0  0999 V2000
    3.0671   -3.1400   34.3667 C   0  0  0  0  0  0  0  0  0  0  0  0
    2.3553   -3.1565   35.6900 C   0  0  0  0  0  0  0  0  0  0  0  0
    2.8522   -2.3932   36.7583 C   0  0  0  0  0  0  0  0  0  0  0  0
    2.2728   -2.4749   38.0251 C   0  0  0  0  0  0  0  0  0  0  0  0
    1.1972   -3.3252   38.2343 C   0  0  0  0  0  0  0  0  0  0  0  0
    0.6278   -3.3594   39.4509 F   0  0  0  0  0  0  0  0  0  0  0  0
    0.6966   -4.1026   37.1945 C   0  0  0  0  0  0  0  0  0  0  0  0
   -0.8484   -5.1200   37.5524 Br  0  0  0  0  0  0  0  0  0  0  0  0
    1.2740   -4.0196   35.9175 C   0  0  0  0  0  0  0  0  0  0  0  0
    0.8220   -4.7948   34.8542 N   0  0  0  0  0  0  0  0  0  0  0  0
    0.6655   -6.3199   34.7247 C   0  0  0  0  0  0  0  0  0  0  0  0
    0.9621   -7.1748   35.4591 O   0  0  0  0  0  0  0  0  0  0  0  0
   -0.0453   -6.6843   33.4636 C   0  0  0  0  0  0  0  0  0  0  0  0
    0.4272   -6.2282   32.2303 C   0  0  0  0  0  0  0  0  0  0  0  0
   -0.1877   -6.6898   31.0764 C   0  0  0  0  0  0  0  0  0  0  0  0
   -1.2094   -7.5666   31.0703 N   0  0  0  0  0  0  0  0  0  0  0  0
   -1.6122   -8.0012   32.2812 C   0  0  0  0  0  0  0  0  0  0  0  0
   -2.8074   -9.2092   32.1619 Cl  0  0  0  0  0  0  0  0  0  0  0  0
   -1.1164   -7.5712   33.4961 C   0  0  0  0  0  0  0  0  0  0  0  0
   -2.0533   -8.1609   35.2223 I   0  0  0  0  0  0  0  0  0  0  0  0
  1  2  1  0
  2  3  2  0
  3  4  1  0
  4  5  2  0
  5  6  1  0
  5  7  1  0
  7  8  1  0
  7  9  2  0
  9 10  1  0
 10 11  1  0
 11 12  2  0
 11 13  1  0
 13 14  2  0
 14 15  1  0
 15 16  2  0
 16 17  1  0
 17 18  1  0
 17 19  2  0
 19 20  1  0
  9  2  1  0
 19 13  1  0
M  END
>  <ref_mols>  (100) 
7gov-a

>  <gnina_score>  (100) 
5.238

>  <smina_score_min>  (100) 
-4.062

>  <ref_pdb>  (100) 
7gov-a

>  <inspiration_score>  (100) 
None

>  <inchikey>  (100) 
VZLHYSKOPPOQLP-UHFFFAOYSA-N

>  <tags>  (100) 
BulkDock Fragalysis export,openbind_d68ev3c_c2_elabs_scored,openbind_d68ev3c_c2_elabs_scored_4.5plus,openbind_d68ev3c_c2_elabs,openbind_d68ev3c_c2_elabs_scored_5plus,syndirella_product,openbind_d68ev3c_c2_elabs_scored_top80percent,syndirella_placed

>  <smiles>  (100) 
Cc1ccc(F)c(Br)c1NC(=O)c1ccnc(Cl)c1I

>  <subsites>  (100) 
None

>  <rmsd(smina/fragmenstein)>  (100) 
0.431

>  <alias>  (100) 
None

>  <energy_score>  (100) 
-6.901813

>  <HIPPO Pose ID>  (100) 
64291

>  <distance_score>  (100) 
0.78098

>  <HIPPO Compound ID>  (100) 
100612

>  <gnina_score_min>  (100) 
5.234

>  <name>  (100) 
P64291

>  <exports>  (100) 
['/opt/xchem-fragalysis-2/maxwin/BulkDock/OUTPUTS/openbind_d68ev3c_c2_elabs_1LOTQJ3.sdf', '/opt/xchem-fragalysis-2/maxwin/BulkDock/OUTPUTS/openbind_d68ev3c_c2_elabs_1LSYEHW.sdf', '/opt/xchem-fragalysis-2/maxwin/BulkDock/OUTPUTS/openbind_d68ev3c_c2_elabs_1LSYI5W.sdf']

$$$$
P64292
     RDKit          3D

 20 21  0  0  0  0  0  0  0  0999 V2000
    3.0956   -3.3047   34.7146 C   0  0  0  0  0  0  0  0  0  0  0  0
    2.1451   -3.3918   35.8679 C   0  0  0  0  0  0  0  0  0  0  0  0
    2.5750   -2.8229   37.0849 C   0  0  0  0  0  0  0  0  0  0  0  0
    3.7722   -2.2178   37.1564 F   0  0  0  0  0  0  0  0  0  0  0  0
    1.8028   -2.8497   38.2366 C   0  0  0  0  0  0  0  0  0  0  0  0
    0.5619   -3.4451   38.1804 C   0  0  0  0  0  0  0  0  0  0  0  0
   -0.1967   -3.4996   39.2830 F   0  0  0  0  0  0  0  0  0  0  0  0
    0.0918   -4.0000   36.9959 C   0  0  0  0  0  0  0  0  0  0  0  0
    0.8845   -4.0083   35.8312 C   0  0  0  0  0  0  0  0  0  0  0  0
    0.3099   -4.7151   34.7597 N   0  0  0  0  0  0  0  0  0  0  0  0
    0.9416   -5.2418   33.4488 C   0  0  0  0  0  0  0  0  0  0  0  0
    2.0188   -5.1040   33.0188 O   0  0  0  0  0  0  0  0  0  0  0  0
    0.0190   -6.1328   32.6702 C   0  0  0  0  0  0  0  0  0  0  0  0
    0.1558   -6.0181   31.2797 C   0  0  0  0  0  0  0  0  0  0  0  0
   -0.5689   -6.8504   30.4531 C   0  0  0  0  0  0  0  0  0  0  0  0
   -1.4460   -7.7568   30.9084 N   0  0  0  0  0  0  0  0  0  0  0  0
   -1.5333   -7.8808   32.2515 C   0  0  0  0  0  0  0  0  0  0  0  0
   -2.6425   -9.1219   32.6452 Cl  0  0  0  0  0  0  0  0  0  0  0  0
   -0.8353   -7.1169   33.1862 C   0  0  0  0  0  0  0  0  0  0  0  0
   -1.0443   -7.5355   35.2212 I   0  0  0  0  0  0  0  0  0  0  0  0
  1  2  1  0
  2  3  2  0
  3  4  1  0
  3  5  1  0
  5  6  2  0
  6  7  1  0
  6  8  1  0
  8  9  2  0
  9 10  1  0
 10 11  1  0
 11 12  2  0
 11 13  1  0
 13 14  2  0
 14 15  1  0
 15 16  2  0
 16 17  1  0
 17 18  1  0
 17 19  2  0
 19 20  1  0
  9  2  1  0
 19 13  1  0
M  END
>  <ref_mols>  (101) 
7gov-a

>  <gnina_score>  (101) 
5.229

>  <smina_score_min>  (101) 
-5.21

>  <ref_pdb>  (101) 
7gov-a

>  <inspiration_score>  (101) 
None

>  <inchikey>  (101) 
XYVRDZSSTXFCOL-UHFFFAOYSA-N

>  <tags>  (101) 
BulkDock Fragalysis export,openbind_d68ev3c_c2_elabs_scored,openbind_d68ev3c_c2_elabs_scored_4.5plus,openbind_d68ev3c_c2_elabs,openbind_d68ev3c_c2_elabs_scored_5plus,syndirella_product,openbind_d68ev3c_c2_elabs_scored_top80percent,syndirella_placed

>  <smiles>  (101) 
Cc1c(F)cc(F)cc1NC(=O)c1ccnc(Cl)c1I

>  <subsites>  (101) 
None

>  <rmsd(smina/fragmenstein)>  (101) 
1.392

>  <alias>  (101) 
None

>  <energy_score>  (101) 
-13.972254

>  <HIPPO Pose ID>  (101) 
64292

>  <distance_score>  (101) 
1.233568

>  <HIPPO Compound ID>  (101) 
100614

>  <gnina_score_min>  (101) 
5.255

>  <name>  (101) 
P64292

>  <exports>  (101) 
['/opt/xchem-fragalysis-2/maxwin/BulkDock/OUTPUTS/openbind_d68ev3c_c2_elabs_1LOTQJ3.sdf', '/opt/xchem-fragalysis-2/maxwin/BulkDock/OUTPUTS/openbind_d68ev3c_c2_elabs_1LSYEHW.sdf', '/opt/xchem-fragalysis-2/maxwin/BulkDock/OUTPUTS/openbind_d68ev3c_c2_elabs_1LSYI5W.sdf']

$$$$
P64293
     RDKit          3D

 20 21  0  0  0  0  0  0  0  0999 V2000
    2.8026   -2.8665   34.4332 C   0  0  0  0  0  0  0  0  0  0  0  0
    2.1084   -3.0604   35.7493 C   0  0  0  0  0  0  0  0  0  0  0  0
    2.4714   -2.2877   36.8625 C   0  0  0  0  0  0  0  0  0  0  0  0
    1.9007   -2.5439   38.1058 C   0  0  0  0  0  0  0  0  0  0  0  0
    2.2566   -1.7577   39.1662 O   0  0  0  0  0  0  0  0  0  0  0  0
    0.9853   -3.5779   38.2631 C   0  0  0  0  0  0  0  0  0  0  0  0
    0.4225   -3.7893   39.4628 F   0  0  0  0  0  0  0  0  0  0  0  0
    0.6373   -4.3730   37.1850 C   0  0  0  0  0  0  0  0  0  0  0  0
    1.1867   -4.0970   35.9295 C   0  0  0  0  0  0  0  0  0  0  0  0
    0.7862   -4.8716   34.8574 N   0  0  0  0  0  0  0  0  0  0  0  0
    0.5963   -6.3885   34.7402 C   0  0  0  0  0  0  0  0  0  0  0  0
    0.8199   -7.2382   35.5036 O   0  0  0  0  0  0  0  0  0  0  0  0
   -0.0714   -6.7542   33.4606 C   0  0  0  0  0  0  0  0  0  0  0  0
    0.4145   -6.3009   32.2325 C   0  0  0  0  0  0  0  0  0  0  0  0
   -0.1999   -6.7543   31.0752 C   0  0  0  0  0  0  0  0  0  0  0  0
   -1.2315   -7.6202   31.0634 N   0  0  0  0  0  0  0  0  0  0  0  0
   -1.6490   -8.0465   32.2720 C   0  0  0  0  0  0  0  0  0  0  0  0
   -2.8630   -9.2314   32.1558 Cl  0  0  0  0  0  0  0  0  0  0  0  0
   -1.1584   -7.6219   33.4881 C   0  0  0  0  0  0  0  0  0  0  0  0
   -2.1339   -8.1826   35.2119 I   0  0  0  0  0  0  0  0  0  0  0  0
  1  2  1  0
  2  3  2  0
  3  4  1  0
  4  5  1  0
  4  6  2  0
  6  7  1  0
  6  8  1  0
  8  9  2  0
  9 10  1  0
 10 11  1  0
 11 12  2  0
 11 13  1  0
 13 14  2  0
 14 15  1  0
 15 16  2  0
 16 17  1  0
 17 18  1  0
 17 19  2  0
 19 20  1  0
  9  2  1  0
 19 13  1  0
M  END
>  <ref_mols>  (102) 
7gov-a

>  <gnina_score>  (102) 
4.97

>  <smina_score_min>  (102) 
-4.255

>  <ref_pdb>  (102) 
7gov-a

>  <inspiration_score>  (102) 
None

>  <inchikey>  (102) 
KVDGRTTZCOSJMK-UHFFFAOYSA-N

>  <tags>  (102) 
BulkDock Fragalysis export,openbind_d68ev3c_c2_elabs_scored,openbind_d68ev3c_c2_elabs_scored_4.5plus,openbind_d68ev3c_c2_elabs,openbind_d68ev3c_c2_elabs_scored_5plus,syndirella_product,openbind_d68ev3c_c2_elabs_scored_top80percent,syndirella_placed

>  <smiles>  (102) 
Cc1cc(O)c(F)cc1NC(=O)c1ccnc(Cl)c1I

>  <subsites>  (102) 
None

>  <rmsd(smina/fragmenstein)>  (102) 
1.417

>  <alias>  (102) 
None

>  <energy_score>  (102) 
-18.492939

>  <HIPPO Pose ID>  (102) 
64293

>  <distance_score>  (102) 
0.732422

>  <HIPPO Compound ID>  (102) 
100615

>  <gnina_score_min>  (102) 
5.031

>  <name>  (102) 
P64293

>  <exports>  (102) 
['/opt/xchem-fragalysis-2/maxwin/BulkDock/OUTPUTS/openbind_d68ev3c_c2_elabs_1LOTQJ3.sdf', '/opt/xchem-fragalysis-2/maxwin/BulkDock/OUTPUTS/openbind_d68ev3c_c2_elabs_1LSYEHW.sdf', '/opt/xchem-fragalysis-2/maxwin/BulkDock/OUTPUTS/openbind_d68ev3c_c2_elabs_1LSYI5W.sdf']

$$$$
P64295
     RDKit          3D

 20 21  0  0  0  0  0  0  0  0999 V2000
    2.8887   -2.9208   34.4645 C   0  0  0  0  0  0  0  0  0  0  0  0
    2.1551   -3.0965   35.7663 C   0  0  0  0  0  0  0  0  0  0  0  0
    2.5043   -2.3520   36.9101 C   0  0  0  0  0  0  0  0  0  0  0  0
    3.8217   -0.9793   36.8531 Br  0  0  0  0  0  0  0  0  0  0  0  0
    1.8978   -2.5918   38.1477 C   0  0  0  0  0  0  0  0  0  0  0  0
    0.9567   -3.6014   38.2618 C   0  0  0  0  0  0  0  0  0  0  0  0
    0.3574   -3.8195   39.4404 F   0  0  0  0  0  0  0  0  0  0  0  0
    0.6166   -4.3756   37.1666 C   0  0  0  0  0  0  0  0  0  0  0  0
    1.2002   -4.1077   35.9243 C   0  0  0  0  0  0  0  0  0  0  0  0
    0.7909   -4.8777   34.8509 N   0  0  0  0  0  0  0  0  0  0  0  0
    0.6102   -6.3951   34.7247 C   0  0  0  0  0  0  0  0  0  0  0  0
    0.8498   -7.2489   35.4787 O   0  0  0  0  0  0  0  0  0  0  0  0
   -0.0714   -6.7551   33.4511 C   0  0  0  0  0  0  0  0  0  0  0  0
    0.4100   -6.3051   32.2201 C   0  0  0  0  0  0  0  0  0  0  0  0
   -0.2107   -6.7596   31.0667 C   0  0  0  0  0  0  0  0  0  0  0  0
   -1.2448   -7.6226   31.0619 N   0  0  0  0  0  0  0  0  0  0  0  0
   -1.6583   -8.0449   32.2734 C   0  0  0  0  0  0  0  0  0  0  0  0
   -2.8794   -9.2235   32.1652 Cl  0  0  0  0  0  0  0  0  0  0  0  0
   -1.1599   -7.6198   33.4861 C   0  0  0  0  0  0  0  0  0  0  0  0
   -2.1216   -8.1748   35.2176 I   0  0  0  0  0  0  0  0  0  0  0  0
  1  2  1  0
  2  3  2  0
  3  4  1  0
  3  5  1  0
  5  6  2  0
  6  7  1  0
  6  8  1  0
  8  9  2  0
  9 10  1  0
 10 11  1  0
 11 12  2  0
 11 13  1  0
 13 14  2  0
 14 15  1  0
 15 16  2  0
 16 17  1  0
 17 18  1  0
 17 19  2  0
 19 20  1  0
  9  2  1  0
 19 13  1  0
M  END
>  <ref_mols>  (103) 
7gov-a

>  <gnina_score>  (103) 
5.15

>  <smina_score_min>  (103) 
-4.716

>  <ref_pdb>  (103) 
7gov-a

>  <inspiration_score>  (103) 
None

>  <inchikey>  (103) 
HTLMGRSZMRGPME-UHFFFAOYSA-N

>  <tags>  (103) 
BulkDock Fragalysis export,openbind_d68ev3c_c2_elabs_scored,openbind_d68ev3c_c2_elabs_scored_4.5plus,openbind_d68ev3c_c2_elabs,openbind_d68ev3c_c2_elabs_scored_5plus,syndirella_product,openbind_d68ev3c_c2_elabs_scored_top80percent,syndirella_placed

>  <smiles>  (103) 
Cc1c(Br)cc(F)cc1NC(=O)c1ccnc(Cl)c1I

>  <subsites>  (103) 
None

>  <rmsd(smina/fragmenstein)>  (103) 
1.753

>  <alias>  (103) 
None

>  <energy_score>  (103) 
-7.233393

>  <HIPPO Pose ID>  (103) 
64295

>  <distance_score>  (103) 
0.71277

>  <HIPPO Compound ID>  (103) 
100617

>  <gnina_score_min>  (103) 
5.388

>  <name>  (103) 
P64295

>  <exports>  (103) 
['/opt/xchem-fragalysis-2/maxwin/BulkDock/OUTPUTS/openbind_d68ev3c_c2_elabs_1LOTQJ3.sdf', '/opt/xchem-fragalysis-2/maxwin/BulkDock/OUTPUTS/openbind_d68ev3c_c2_elabs_1LSYEHW.sdf', '/opt/xchem-fragalysis-2/maxwin/BulkDock/OUTPUTS/openbind_d68ev3c_c2_elabs_1LSYI5W.sdf']

$$$$
P64296
     RDKit          3D

 20 21  0  0  0  0  0  0  0  0999 V2000
    3.0852   -3.3311   34.7257 C   0  0  0  0  0  0  0  0  0  0  0  0
    2.1237   -3.4092   35.8736 C   0  0  0  0  0  0  0  0  0  0  0  0
    2.5762   -2.8617   37.0969 C   0  0  0  0  0  0  0  0  0  0  0  0
    1.7900   -2.8970   38.2444 C   0  0  0  0  0  0  0  0  0  0  0  0
    2.4570   -2.1878   39.8642 Br  0  0  0  0  0  0  0  0  0  0  0  0
    0.5279   -3.4587   38.1807 C   0  0  0  0  0  0  0  0  0  0  0  0
   -0.2526   -3.5224   39.2696 F   0  0  0  0  0  0  0  0  0  0  0  0
    0.0528   -3.9869   36.9842 C   0  0  0  0  0  0  0  0  0  0  0  0
    0.8515   -4.0010   35.8242 C   0  0  0  0  0  0  0  0  0  0  0  0
    0.2800   -4.7010   34.7481 N   0  0  0  0  0  0  0  0  0  0  0  0
    0.9181   -5.2331   33.4423 C   0  0  0  0  0  0  0  0  0  0  0  0
    2.0005   -5.1056   33.0219 O   0  0  0  0  0  0  0  0  0  0  0  0
    0.0010   -6.1263   32.6630 C   0  0  0  0  0  0  0  0  0  0  0  0
    0.1407   -6.0137   31.2730 C   0  0  0  0  0  0  0  0  0  0  0  0
   -0.5771   -6.8526   30.4474 C   0  0  0  0  0  0  0  0  0  0  0  0
   -1.4506   -7.7618   30.9039 N   0  0  0  0  0  0  0  0  0  0  0  0
   -1.5396   -7.8836   32.2473 C   0  0  0  0  0  0  0  0  0  0  0  0
   -2.6450   -9.1270   32.6423 Cl  0  0  0  0  0  0  0  0  0  0  0  0
   -0.8464   -7.1150   33.1809 C   0  0  0  0  0  0  0  0  0  0  0  0
   -1.0478   -7.5350   35.2166 I   0  0  0  0  0  0  0  0  0  0  0  0
  1  2  1  0
  2  3  2  0
  3  4  1  0
  4  5  1  0
  4  6  2  0
  6  7  1  0
  6  8  1  0
  8  9  2  0
  9 10  1  0
 10 11  1  0
 11 12  2  0
 11 13  1  0
 13 14  2  0
 14 15  1  0
 15 16  2  0
 16 17  1  0
 17 18  1  0
 17 19  2  0
 19 20  1  0
  9  2  1  0
 19 13  1  0
M  END
>  <ref_mols>  (104) 
7gov-a

>  <gnina_score>  (104) 
5.32

>  <smina_score_min>  (104) 
-5.199

>  <ref_pdb>  (104) 
7gov-a

>  <inspiration_score>  (104) 
None

>  <inchikey>  (104) 
LMOYIILEYXTEON-UHFFFAOYSA-N

>  <tags>  (104) 
BulkDock Fragalysis export,openbind_d68ev3c_c2_elabs_scored,openbind_d68ev3c_c2_elabs_scored_4.5plus,openbind_d68ev3c_c2_elabs,openbind_d68ev3c_c2_elabs_scored_5plus,syndirella_product,openbind_d68ev3c_c2_elabs_scored_top80percent,syndirella_placed

>  <smiles>  (104) 
Cc1cc(Br)c(F)cc1NC(=O)c1ccnc(Cl)c1I

>  <subsites>  (104) 
None

>  <rmsd(smina/fragmenstein)>  (104) 
1.467

>  <alias>  (104) 
None

>  <energy_score>  (104) 
-18.444028

>  <HIPPO Pose ID>  (104) 
64296

>  <distance_score>  (104) 
1.231054

>  <HIPPO Compound ID>  (104) 
100618

>  <gnina_score_min>  (104) 
5.338

>  <name>  (104) 
P64296

>  <exports>  (104) 
['/opt/xchem-fragalysis-2/maxwin/BulkDock/OUTPUTS/openbind_d68ev3c_c2_elabs_1LOTQJ3.sdf', '/opt/xchem-fragalysis-2/maxwin/BulkDock/OUTPUTS/openbind_d68ev3c_c2_elabs_1LSYEHW.sdf', '/opt/xchem-fragalysis-2/maxwin/BulkDock/OUTPUTS/openbind_d68ev3c_c2_elabs_1LSYI5W.sdf']

$$$$
P64297
     RDKit          3D

 20 21  0  0  0  0  0  0  0  0999 V2000
    3.1059   -2.6641   33.9206 C   0  0  0  0  0  0  0  0  0  0  0  0
    3.0927   -3.9304   34.7669 C   0  0  0  0  0  0  0  0  0  0  0  0
    2.1518   -3.8273   35.9477 C   0  0  0  0  0  0  0  0  0  0  0  0
    2.5243   -2.9554   36.9930 C   0  0  0  0  0  0  0  0  0  0  0  0
    1.7578   -2.8472   38.1505 C   0  0  0  0  0  0  0  0  0  0  0  0
    0.6075   -3.6071   38.2711 C   0  0  0  0  0  0  0  0  0  0  0  0
   -0.1223   -3.5223   39.3916 F   0  0  0  0  0  0  0  0  0  0  0  0
    0.2012   -4.4580   37.2512 C   0  0  0  0  0  0  0  0  0  0  0  0
    0.9667   -4.5777   36.0850 C   0  0  0  0  0  0  0  0  0  0  0  0
    0.5290   -5.4297   35.0664 N   0  0  0  0  0  0  0  0  0  0  0  0
   -0.7421   -6.2981   34.9629 C   0  0  0  0  0  0  0  0  0  0  0  0
   -1.5873   -6.4996   35.7440 O   0  0  0  0  0  0  0  0  0  0  0  0
   -0.8952   -6.9843   33.6384 C   0  0  0  0  0  0  0  0  0  0  0  0
   -1.5209   -8.2397   33.7423 C   0  0  0  0  0  0  0  0  0  0  0  0
   -1.8510   -8.9206   32.5956 C   0  0  0  0  0  0  0  0  0  0  0  0
   -1.5606   -8.4768   31.3651 N   0  0  0  0  0  0  0  0  0  0  0  0
   -0.9074   -7.2931   31.2772 C   0  0  0  0  0  0  0  0  0  0  0  0
   -0.6046   -6.9109   29.6221 Cl  0  0  0  0  0  0  0  0  0  0  0  0
   -0.5972   -6.4730   32.3639 C   0  0  0  0  0  0  0  0  0  0  0  0
    0.0604   -4.5078   32.0035 I   0  0  0  0  0  0  0  0  0  0  0  0
  1  2  1  0
  2  3  1  0
  3  4  2  0
  4  5  1  0
  5  6  2  0
  6  7  1  0
  6  8  1  0
  8  9  2  0
  9 10  1  0
 10 11  1  0
 11 12  2  0
 11 13  1  0
 13 14  2  0
 14 15  1  0
 15 16  2  0
 16 17  1  0
 17 18  1  0
 17 19  2  0
 19 20  1  0
  9  3  1  0
 19 13  1  0
M  END
>  <ref_mols>  (105) 
7gov-a

>  <gnina_score>  (105) 
5.237

>  <smina_score_min>  (105) 
-5.419

>  <ref_pdb>  (105) 
7gov-a

>  <inspiration_score>  (105) 
None

>  <inchikey>  (105) 
JYTQFNIIBKTAEM-UHFFFAOYSA-N

>  <tags>  (105) 
BulkDock Fragalysis export,openbind_d68ev3c_c2_elabs_scored,openbind_d68ev3c_c2_elabs_scored_4.5plus,openbind_d68ev3c_c2_elabs,openbind_d68ev3c_c2_elabs_scored_5plus,syndirella_product,openbind_d68ev3c_c2_elabs_scored_top80percent,syndirella_placed

>  <smiles>  (105) 
CCc1ccc(F)cc1NC(=O)c1ccnc(Cl)c1I

>  <subsites>  (105) 
None

>  <rmsd(smina/fragmenstein)>  (105) 
0.218

>  <alias>  (105) 
None

>  <energy_score>  (105) 
-18.45279

>  <HIPPO Pose ID>  (105) 
64297

>  <distance_score>  (105) 
0.773038

>  <HIPPO Compound ID>  (105) 
100619

>  <gnina_score_min>  (105) 
5.121

>  <name>  (105) 
P64297

>  <exports>  (105) 
['/opt/xchem-fragalysis-2/maxwin/BulkDock/OUTPUTS/openbind_d68ev3c_c2_elabs_1LOTQJ3.sdf', '/opt/xchem-fragalysis-2/maxwin/BulkDock/OUTPUTS/openbind_d68ev3c_c2_elabs_1LSYEHW.sdf', '/opt/xchem-fragalysis-2/maxwin/BulkDock/OUTPUTS/openbind_d68ev3c_c2_elabs_1LSYI5W.sdf']

$$$$
P64298
     RDKit          3D

 20 21  0  0  0  0  0  0  0  0999 V2000
    3.7569   -2.9818   33.8373 C   0  0  0  0  0  0  0  0  0  0  0  0
    2.9786   -3.1963   34.7273 C   0  0  0  0  0  0  0  0  0  0  0  0
    2.1048   -3.3675   35.8480 C   0  0  0  0  0  0  0  0  0  0  0  0
    2.5607   -2.8025   37.0552 C   0  0  0  0  0  0  0  0  0  0  0  0
    1.7898   -2.8515   38.2138 C   0  0  0  0  0  0  0  0  0  0  0  0
    0.5437   -3.4469   38.1626 C   0  0  0  0  0  0  0  0  0  0  0  0
   -0.2020   -3.5134   39.2733 F   0  0  0  0  0  0  0  0  0  0  0  0
    0.0607   -3.9912   36.9776 C   0  0  0  0  0  0  0  0  0  0  0  0
    0.8451   -3.9869   35.8082 C   0  0  0  0  0  0  0  0  0  0  0  0
    0.2794   -4.6922   34.7321 N   0  0  0  0  0  0  0  0  0  0  0  0
    0.9274   -5.2443   33.4415 C   0  0  0  0  0  0  0  0  0  0  0  0
    2.0154   -5.1329   33.0338 O   0  0  0  0  0  0  0  0  0  0  0  0
    0.0085   -6.1320   32.6604 C   0  0  0  0  0  0  0  0  0  0  0  0
    0.1486   -6.0182   31.2710 C   0  0  0  0  0  0  0  0  0  0  0  0
   -0.5731   -6.8536   30.4455 C   0  0  0  0  0  0  0  0  0  0  0  0
   -1.4494   -7.7609   30.9017 N   0  0  0  0  0  0  0  0  0  0  0  0
   -1.5376   -7.8836   32.2451 C   0  0  0  0  0  0  0  0  0  0  0  0
   -2.6454   -9.1250   32.6407 Cl  0  0  0  0  0  0  0  0  0  0  0  0
   -0.8421   -7.1175   33.1786 C   0  0  0  0  0  0  0  0  0  0  0  0
   -1.0446   -7.5334   35.2148 I   0  0  0  0  0  0  0  0  0  0  0  0
  1  2  3  0
  2  3  1  0
  3  4  2  0
  4  5  1  0
  5  6  2  0
  6  7  1  0
  6  8  1  0
  8  9  2  0
  9 10  1  0
 10 11  1  0
 11 12  2  0
 11 13  1  0
 13 14  2  0
 14 15  1  0
 15 16  2  0
 16 17  1  0
 17 18  1  0
 17 19  2  0
 19 20  1  0
  9  3  1  0
 19 13  1  0
M  END
>  <ref_mols>  (106) 
7gov-a

>  <gnina_score>  (106) 
5.265

>  <smina_score_min>  (106) 
-5.023

>  <ref_pdb>  (106) 
7gov-a

>  <inspiration_score>  (106) 
None

>  <inchikey>  (106) 
DKAMRRQSHYHVAL-UHFFFAOYSA-N

>  <tags>  (106) 
BulkDock Fragalysis export,openbind_d68ev3c_c2_elabs_scored,openbind_d68ev3c_c2_elabs_scored_4.5plus,openbind_d68ev3c_c2_elabs,openbind_d68ev3c_c2_elabs_scored_5plus,syndirella_product,openbind_d68ev3c_c2_elabs_scored_top80percent,syndirella_placed

>  <smiles>  (106) 
C#Cc1ccc(F)cc1NC(=O)c1ccnc(Cl)c1I

>  <subsites>  (106) 
None

>  <rmsd(smina/fragmenstein)>  (106) 
1.313

>  <alias>  (106) 
None

>  <energy_score>  (106) 
-2.527657

>  <HIPPO Pose ID>  (106) 
64298

>  <distance_score>  (106) 
1.233889

>  <HIPPO Compound ID>  (106) 
100621

>  <gnina_score_min>  (106) 
5.32

>  <name>  (106) 
P64298

>  <exports>  (106) 
['/opt/xchem-fragalysis-2/maxwin/BulkDock/OUTPUTS/openbind_d68ev3c_c2_elabs_1LOTQJ3.sdf', '/opt/xchem-fragalysis-2/maxwin/BulkDock/OUTPUTS/openbind_d68ev3c_c2_elabs_1LSYEHW.sdf', '/opt/xchem-fragalysis-2/maxwin/BulkDock/OUTPUTS/openbind_d68ev3c_c2_elabs_1LSYI5W.sdf']

$$$$
P64300
     RDKit          3D

 20 21  0  0  0  0  0  0  0  0999 V2000
    2.8310   -2.9008   34.4484 C   0  0  0  0  0  0  0  0  0  0  0  0
    2.1302   -3.0889   35.7618 C   0  0  0  0  0  0  0  0  0  0  0  0
    2.5096   -2.3372   36.8827 C   0  0  0  0  0  0  0  0  0  0  0  0
    1.9333   -2.5889   38.1277 C   0  0  0  0  0  0  0  0  0  0  0  0
    2.2946   -1.8387   39.1789 F   0  0  0  0  0  0  0  0  0  0  0  0
    0.9919   -3.5965   38.2785 C   0  0  0  0  0  0  0  0  0  0  0  0
    0.4115   -3.8123   39.4680 F   0  0  0  0  0  0  0  0  0  0  0  0
    0.6296   -4.3754   37.1903 C   0  0  0  0  0  0  0  0  0  0  0  0
    1.1872   -4.1060   35.9360 C   0  0  0  0  0  0  0  0  0  0  0  0
    0.7843   -4.8762   34.8622 N   0  0  0  0  0  0  0  0  0  0  0  0
    0.5970   -6.3928   34.7388 C   0  0  0  0  0  0  0  0  0  0  0  0
    0.8251   -7.2455   35.4974 O   0  0  0  0  0  0  0  0  0  0  0  0
   -0.0748   -6.7545   33.4604 C   0  0  0  0  0  0  0  0  0  0  0  0
    0.4112   -6.3013   32.2323 C   0  0  0  0  0  0  0  0  0  0  0  0
   -0.2035   -6.7547   31.0752 C   0  0  0  0  0  0  0  0  0  0  0  0
   -1.2354   -7.6201   31.0640 N   0  0  0  0  0  0  0  0  0  0  0  0
   -1.6529   -8.0462   32.2726 C   0  0  0  0  0  0  0  0  0  0  0  0
   -2.8674   -9.2306   32.1570 Cl  0  0  0  0  0  0  0  0  0  0  0  0
   -1.1618   -7.6218   33.4885 C   0  0  0  0  0  0  0  0  0  0  0  0
   -2.1346   -8.1830   35.2130 I   0  0  0  0  0  0  0  0  0  0  0  0
  1  2  1  0
  2  3  2  0
  3  4  1  0
  4  5  1  0
  4  6  2  0
  6  7  1  0
  6  8  1  0
  8  9  2  0
  9 10  1  0
 10 11  1  0
 11 12  2  0
 11 13  1  0
 13 14  2  0
 14 15  1  0
 15 16  2  0
 16 17  1  0
 17 18  1  0
 17 19  2  0
 19 20  1  0
  9  2  1  0
 19 13  1  0
M  END
>  <ref_mols>  (107) 
7gov-a

>  <gnina_score>  (107) 
5.074

>  <smina_score_min>  (107) 
-5.008

>  <ref_pdb>  (107) 
7gov-a

>  <inspiration_score>  (107) 
None

>  <inchikey>  (107) 
VVTWRGLOCSOHCM-UHFFFAOYSA-N

>  <tags>  (107) 
BulkDock Fragalysis export,openbind_d68ev3c_c2_elabs_scored,openbind_d68ev3c_c2_elabs_scored_4.5plus,openbind_d68ev3c_c2_elabs,openbind_d68ev3c_c2_elabs_scored_5plus,syndirella_product,openbind_d68ev3c_c2_elabs_scored_top80percent,syndirella_placed

>  <smiles>  (107) 
Cc1cc(F)c(F)cc1NC(=O)c1ccnc(Cl)c1I

>  <subsites>  (107) 
None

>  <rmsd(smina/fragmenstein)>  (107) 
2.755

>  <alias>  (107) 
None

>  <energy_score>  (107) 
-12.339734

>  <HIPPO Pose ID>  (107) 
64300

>  <distance_score>  (107) 
0.719456

>  <HIPPO Compound ID>  (107) 
100623

>  <gnina_score_min>  (107) 
5.019

>  <name>  (107) 
P64300

>  <exports>  (107) 
['/opt/xchem-fragalysis-2/maxwin/BulkDock/OUTPUTS/openbind_d68ev3c_c2_elabs_1LOTQJ3.sdf', '/opt/xchem-fragalysis-2/maxwin/BulkDock/OUTPUTS/openbind_d68ev3c_c2_elabs_1LSYEHW.sdf', '/opt/xchem-fragalysis-2/maxwin/BulkDock/OUTPUTS/openbind_d68ev3c_c2_elabs_1LSYI5W.sdf']

$$$$
P64304
     RDKit          3D

 20 21  0  0  0  0  0  0  0  0999 V2000
    3.3668   -1.6459   36.6526 C   0  0  0  0  0  0  0  0  0  0  0  0
    2.2782   -2.6587   36.8787 C   0  0  0  0  0  0  0  0  0  0  0  0
    1.7038   -2.7480   38.1563 C   0  0  0  0  0  0  0  0  0  0  0  0
    0.7166   -3.6878   38.4196 C   0  0  0  0  0  0  0  0  0  0  0  0
    0.1717   -3.7448   39.6422 F   0  0  0  0  0  0  0  0  0  0  0  0
    0.2739   -4.5534   37.4347 C   0  0  0  0  0  0  0  0  0  0  0  0
    0.8247   -4.4728   36.1572 C   0  0  0  0  0  0  0  0  0  0  0  0
    0.3499   -5.3125   35.1548 N   0  0  0  0  0  0  0  0  0  0  0  0
   -0.4105   -6.6550   35.2464 C   0  0  0  0  0  0  0  0  0  0  0  0
   -0.6891   -7.3031   36.1742 O   0  0  0  0  0  0  0  0  0  0  0  0
   -0.8380   -7.1787   33.8945 C   0  0  0  0  0  0  0  0  0  0  0  0
   -0.2146   -6.7470   32.7149 C   0  0  0  0  0  0  0  0  0  0  0  0
   -0.7201   -7.1600   31.4925 C   0  0  0  0  0  0  0  0  0  0  0  0
   -0.1359   -6.2488   29.9426 Br  0  0  0  0  0  0  0  0  0  0  0  0
   -1.7112   -8.0637   31.3566 N   0  0  0  0  0  0  0  0  0  0  0  0
   -2.2341   -8.5418   32.5065 C   0  0  0  0  0  0  0  0  0  0  0  0
   -1.8801   -8.1091   33.7777 C   0  0  0  0  0  0  0  0  0  0  0  0
   -2.8918   -8.6664   35.0551 Cl  0  0  0  0  0  0  0  0  0  0  0  0
    1.8499   -3.5459   35.8644 C   0  0  0  0  0  0  0  0  0  0  0  0
    2.5013   -3.5491   34.5027 C   0  0  0  0  0  0  0  0  0  0  0  0
  1  2  1  0
  2  3  2  0
  3  4  1  0
  4  5  1  0
  4  6  2  0
  6  7  1  0
  7  8  1  0
  8  9  1  0
  9 10  2  0
  9 11  1  0
 11 12  2  0
 12 13  1  0
 13 14  1  0
 13 15  2  0
 15 16  1  0
 16 17  2  0
 17 18  1  0
  7 19  2  0
 19 20  1  0
 19  2  1  0
 17 11  1  0
M  END
>  <ref_mols>  (108) 
7gov-a

>  <gnina_score>  (108) 
5.126

>  <smina_score_min>  (108) 
-6.139

>  <ref_pdb>  (108) 
7gov-a

>  <inspiration_score>  (108) 
None

>  <inchikey>  (108) 
OHFLVQYPZTVTQU-UHFFFAOYSA-N

>  <tags>  (108) 
BulkDock Fragalysis export,openbind_d68ev3c_c2_elabs_scored,openbind_d68ev3c_c2_elabs_scored_4.5plus,openbind_d68ev3c_c2_elabs,openbind_d68ev3c_c2_elabs_scored_5plus,syndirella_product,openbind_d68ev3c_c2_elabs_scored_top80percent,syndirella_placed

>  <smiles>  (108) 
Cc1cc(F)cc(NC(=O)c2cc(Br)ncc2Cl)c1C

>  <subsites>  (108) 
None

>  <rmsd(smina/fragmenstein)>  (108) 
0.954

>  <alias>  (108) 
None

>  <energy_score>  (108) 
-5.094015

>  <HIPPO Pose ID>  (108) 
64304

>  <distance_score>  (108) 
0.638937

>  <HIPPO Compound ID>  (108) 
100627

>  <gnina_score_min>  (108) 
5.243

>  <name>  (108) 
P64304

>  <exports>  (108) 
['/opt/xchem-fragalysis-2/maxwin/BulkDock/OUTPUTS/openbind_d68ev3c_c2_elabs_1LOTQJ3.sdf', '/opt/xchem-fragalysis-2/maxwin/BulkDock/OUTPUTS/openbind_d68ev3c_c2_elabs_1LSYEHW.sdf', '/opt/xchem-fragalysis-2/maxwin/BulkDock/OUTPUTS/openbind_d68ev3c_c2_elabs_1LSYI5W.sdf']

$$$$
P64307
     RDKit          3D

 20 21  0  0  0  0  0  0  0  0999 V2000
    3.6654   -2.4708   36.8582 C   0  0  0  0  0  0  0  0  0  0  0  0
    2.2866   -3.0599   36.9812 C   0  0  0  0  0  0  0  0  0  0  0  0
    1.5632   -2.8319   38.1602 C   0  0  0  0  0  0  0  0  0  0  0  0
    0.2786   -3.3400   38.3044 C   0  0  0  0  0  0  0  0  0  0  0  0
   -0.3681   -3.1618   39.4633 F   0  0  0  0  0  0  0  0  0  0  0  0
   -0.3368   -4.0467   37.2846 C   0  0  0  0  0  0  0  0  0  0  0  0
    0.3814   -4.3098   36.1245 C   0  0  0  0  0  0  0  0  0  0  0  0
   -0.1988   -5.1448   35.1829 N   0  0  0  0  0  0  0  0  0  0  0  0
    0.1622   -6.5797   34.7624 C   0  0  0  0  0  0  0  0  0  0  0  0
    0.9554   -7.3164   35.1937 O   0  0  0  0  0  0  0  0  0  0  0  0
   -0.5750   -7.0104   33.5697 C   0  0  0  0  0  0  0  0  0  0  0  0
   -0.0962   -6.6360   32.3205 C   0  0  0  0  0  0  0  0  0  0  0  0
    0.8905   -5.7425   32.1791 F   0  0  0  0  0  0  0  0  0  0  0  0
   -0.6668   -7.2087   31.1992 C   0  0  0  0  0  0  0  0  0  0  0  0
   -1.6832   -8.1065   31.2489 N   0  0  0  0  0  0  0  0  0  0  0  0
   -2.1221   -8.4479   32.4861 C   0  0  0  0  0  0  0  0  0  0  0  0
   -1.6154   -7.9231   33.6639 C   0  0  0  0  0  0  0  0  0  0  0  0
   -2.3633   -8.3422   35.1429 Cl  0  0  0  0  0  0  0  0  0  0  0  0
    1.6969   -3.8230   35.9474 C   0  0  0  0  0  0  0  0  0  0  0  0
    2.4744   -4.1502   34.6956 C   0  0  0  0  0  0  0  0  0  0  0  0
  1  2  1  0
  2  3  2  0
  3  4  1  0
  4  5  1  0
  4  6  2  0
  6  7  1  0
  7  8  1  0
  8  9  1  0
  9 10  2  0
  9 11  1  0
 11 12  2  0
 12 13  1  0
 12 14  1  0
 14 15  2  0
 15 16  1  0
 16 17  2  0
 17 18  1  0
  7 19  2  0
 19 20  1  0
 19  2  1  0
 17 11  1  0
M  END
>  <ref_mols>  (109) 
7gov-a

>  <gnina_score>  (109) 
5.066

>  <smina_score_min>  (109) 
-6.079

>  <ref_pdb>  (109) 
7gov-a

>  <inspiration_score>  (109) 
None

>  <inchikey>  (109) 
XVWAJQSGLBBTAA-UHFFFAOYSA-N

>  <tags>  (109) 
BulkDock Fragalysis export,openbind_d68ev3c_c2_elabs_scored,openbind_d68ev3c_c2_elabs_scored_4.5plus,openbind_d68ev3c_c2_elabs,openbind_d68ev3c_c2_elabs_scored_5plus,syndirella_product,openbind_d68ev3c_c2_elabs_scored_top80percent,syndirella_placed

>  <smiles>  (109) 
Cc1cc(F)cc(NC(=O)c2c(F)cncc2Cl)c1C

>  <subsites>  (109) 
None

>  <rmsd(smina/fragmenstein)>  (109) 
0.928

>  <alias>  (109) 
None

>  <energy_score>  (109) 
-3.564829

>  <HIPPO Pose ID>  (109) 
64307

>  <distance_score>  (109) 
0.393846

>  <HIPPO Compound ID>  (109) 
100630

>  <gnina_score_min>  (109) 
5.072

>  <name>  (109) 
P64307

>  <exports>  (109) 
['/opt/xchem-fragalysis-2/maxwin/BulkDock/OUTPUTS/openbind_d68ev3c_c2_elabs_1LOTQJ3.sdf', '/opt/xchem-fragalysis-2/maxwin/BulkDock/OUTPUTS/openbind_d68ev3c_c2_elabs_1LSYEHW.sdf', '/opt/xchem-fragalysis-2/maxwin/BulkDock/OUTPUTS/openbind_d68ev3c_c2_elabs_1LSYI5W.sdf']

$$$$
P64309
     RDKit          3D

 20 21  0  0  0  0  0  0  0  0999 V2000
    3.4499   -3.8787   33.5257 C   0  0  0  0  0  0  0  0  0  0  0  0
    2.8464   -3.8062   34.5614 C   0  0  0  0  0  0  0  0  0  0  0  0
    2.1254   -3.7251   35.8000 C   0  0  0  0  0  0  0  0  0  0  0  0
    2.6198   -2.8872   36.8086 C   0  0  0  0  0  0  0  0  0  0  0  0
    1.9579   -2.7938   38.0339 C   0  0  0  0  0  0  0  0  0  0  0  0
    0.8014   -3.5327   38.2433 C   0  0  0  0  0  0  0  0  0  0  0  0
    0.1687   -3.4488   39.4216 F   0  0  0  0  0  0  0  0  0  0  0  0
    0.2880   -4.3569   37.2500 C   0  0  0  0  0  0  0  0  0  0  0  0
    0.9513   -4.4649   36.0235 C   0  0  0  0  0  0  0  0  0  0  0  0
    0.4272   -5.2877   35.0239 N   0  0  0  0  0  0  0  0  0  0  0  0
   -0.7438   -6.2920   35.0639 C   0  0  0  0  0  0  0  0  0  0  0  0
   -1.5025   -6.5335   35.9149 O   0  0  0  0  0  0  0  0  0  0  0  0
   -0.9531   -7.0219   33.7580 C   0  0  0  0  0  0  0  0  0  0  0  0
   -0.3365   -6.6102   32.5716 C   0  0  0  0  0  0  0  0  0  0  0  0
    0.5183   -5.5786   32.5334 F   0  0  0  0  0  0  0  0  0  0  0  0
   -0.6255   -7.2549   31.3773 C   0  0  0  0  0  0  0  0  0  0  0  0
   -1.5008   -8.2772   31.2679 N   0  0  0  0  0  0  0  0  0  0  0  0
   -2.0705   -8.6838   32.4236 C   0  0  0  0  0  0  0  0  0  0  0  0
   -1.8489   -8.1021   33.6672 C   0  0  0  0  0  0  0  0  0  0  0  0
   -2.8073   -8.7482   34.9477 Cl  0  0  0  0  0  0  0  0  0  0  0  0
  1  2  3  0
  2  3  1  0
  3  4  2  0
  4  5  1  0
  5  6  2  0
  6  7  1  0
  6  8  1  0
  8  9  2  0
  9 10  1  0
 10 11  1  0
 11 12  2  0
 11 13  1  0
 13 14  2  0
 14 15  1  0
 14 16  1  0
 16 17  2  0
 17 18  1  0
 18 19  2  0
 19 20  1  0
  9  3  1  0
 19 13  1  0
M  END
>  <ref_mols>  (110) 
7gov-a

>  <gnina_score>  (110) 
5.168

>  <smina_score_min>  (110) 
-5.789

>  <ref_pdb>  (110) 
7gov-a

>  <inspiration_score>  (110) 
None

>  <inchikey>  (110) 
JOXYNDRBAMPALO-UHFFFAOYSA-N

>  <tags>  (110) 
BulkDock Fragalysis export,openbind_d68ev3c_c2_elabs_scored,openbind_d68ev3c_c2_elabs_scored_4.5plus,openbind_d68ev3c_c2_elabs,openbind_d68ev3c_c2_elabs_scored_5plus,syndirella_product,openbind_d68ev3c_c2_elabs_scored_top80percent,syndirella_placed

>  <smiles>  (110) 
C#Cc1ccc(F)cc1NC(=O)c1c(F)cncc1Cl

>  <subsites>  (110) 
None

>  <rmsd(smina/fragmenstein)>  (110) 
1.174

>  <alias>  (110) 
None

>  <energy_score>  (110) 
-26.761285

>  <HIPPO Pose ID>  (110) 
64309

>  <distance_score>  (110) 
0.773651

>  <HIPPO Compound ID>  (110) 
100632

>  <gnina_score_min>  (110) 
5.103

>  <name>  (110) 
P64309

>  <exports>  (110) 
['/opt/xchem-fragalysis-2/maxwin/BulkDock/OUTPUTS/openbind_d68ev3c_c2_elabs_1LOTQJ3.sdf', '/opt/xchem-fragalysis-2/maxwin/BulkDock/OUTPUTS/openbind_d68ev3c_c2_elabs_1LSYEHW.sdf', '/opt/xchem-fragalysis-2/maxwin/BulkDock/OUTPUTS/openbind_d68ev3c_c2_elabs_1LSYI5W.sdf']

$$$$
P64311
     RDKit          3D

 20 21  0  0  0  0  0  0  0  0999 V2000
    2.9119   -3.8761   34.5093 C   0  0  0  0  0  0  0  0  0  0  0  0
    2.1449   -3.7635   35.7971 C   0  0  0  0  0  0  0  0  0  0  0  0
    2.6454   -2.9386   36.8206 C   0  0  0  0  0  0  0  0  0  0  0  0
    1.9833   -2.8460   38.0459 C   0  0  0  0  0  0  0  0  0  0  0  0
    2.7029   -1.7553   39.4133 Br  0  0  0  0  0  0  0  0  0  0  0  0
    0.8094   -3.5591   38.2521 C   0  0  0  0  0  0  0  0  0  0  0  0
    0.1544   -3.4850   39.4210 F   0  0  0  0  0  0  0  0  0  0  0  0
    0.2898   -4.3657   37.2471 C   0  0  0  0  0  0  0  0  0  0  0  0
    0.9582   -4.4819   36.0238 C   0  0  0  0  0  0  0  0  0  0  0  0
    0.4312   -5.3009   35.0263 N   0  0  0  0  0  0  0  0  0  0  0  0
   -0.7506   -6.2935   35.0644 C   0  0  0  0  0  0  0  0  0  0  0  0
   -1.5153   -6.5247   35.9129 O   0  0  0  0  0  0  0  0  0  0  0  0
   -0.9579   -7.0254   33.7597 C   0  0  0  0  0  0  0  0  0  0  0  0
   -0.3365   -6.6157   32.5747 C   0  0  0  0  0  0  0  0  0  0  0  0
    0.5252   -5.5890   32.5401 F   0  0  0  0  0  0  0  0  0  0  0  0
   -0.6252   -7.2596   31.3801 C   0  0  0  0  0  0  0  0  0  0  0  0
   -1.5030   -8.2796   31.2700 N   0  0  0  0  0  0  0  0  0  0  0  0
   -2.0756   -8.6854   32.4248 C   0  0  0  0  0  0  0  0  0  0  0  0
   -1.8549   -8.1041   33.6686 C   0  0  0  0  0  0  0  0  0  0  0  0
   -2.8130   -8.7489   34.9496 Cl  0  0  0  0  0  0  0  0  0  0  0  0
  1  2  1  0
  2  3  2  0
  3  4  1  0
  4  5  1  0
  4  6  2  0
  6  7  1  0
  6  8  1  0
  8  9  2  0
  9 10  1  0
 10 11  1  0
 11 12  2  0
 11 13  1  0
 13 14  2  0
 14 15  1  0
 14 16  1  0
 16 17  2  0
 17 18  1  0
 18 19  2  0
 19 20  1  0
  9  2  1  0
 19 13  1  0
M  END
>  <ref_mols>  (111) 
7gov-a

>  <gnina_score>  (111) 
5.224

>  <smina_score_min>  (111) 
-5.99

>  <ref_pdb>  (111) 
7gov-a

>  <inspiration_score>  (111) 
None

>  <inchikey>  (111) 
ASNASGATAAHEHH-UHFFFAOYSA-N

>  <tags>  (111) 
BulkDock Fragalysis export,openbind_d68ev3c_c2_elabs_scored,openbind_d68ev3c_c2_elabs_scored_4.5plus,openbind_d68ev3c_c2_elabs,openbind_d68ev3c_c2_elabs_scored_5plus,syndirella_product,openbind_d68ev3c_c2_elabs_scored_top80percent,syndirella_placed

>  <smiles>  (111) 
Cc1cc(Br)c(F)cc1NC(=O)c1c(F)cncc1Cl

>  <subsites>  (111) 
None

>  <rmsd(smina/fragmenstein)>  (111) 
1.197

>  <alias>  (111) 
None

>  <energy_score>  (111) 
-24.185252

>  <HIPPO Pose ID>  (111) 
64311

>  <distance_score>  (111) 
0.773126

>  <HIPPO Compound ID>  (111) 
100635

>  <gnina_score_min>  (111) 
5.148

>  <name>  (111) 
P64311

>  <exports>  (111) 
['/opt/xchem-fragalysis-2/maxwin/BulkDock/OUTPUTS/openbind_d68ev3c_c2_elabs_1LOTQJ3.sdf', '/opt/xchem-fragalysis-2/maxwin/BulkDock/OUTPUTS/openbind_d68ev3c_c2_elabs_1LSYEHW.sdf', '/opt/xchem-fragalysis-2/maxwin/BulkDock/OUTPUTS/openbind_d68ev3c_c2_elabs_1LSYI5W.sdf']

$$$$
P64312
     RDKit          3D

 20 21  0  0  0  0  0  0  0  0999 V2000
    2.9110   -3.9098   34.4994 C   0  0  0  0  0  0  0  0  0  0  0  0
    2.1759   -3.7561   35.8055 C   0  0  0  0  0  0  0  0  0  0  0  0
    2.6287   -2.8992   36.8313 C   0  0  0  0  0  0  0  0  0  0  0  0
    4.1791   -1.8063   36.6614 Br  0  0  0  0  0  0  0  0  0  0  0  0
    1.9426   -2.8014   38.0456 C   0  0  0  0  0  0  0  0  0  0  0  0
    0.7921   -3.5447   38.2414 C   0  0  0  0  0  0  0  0  0  0  0  0
    0.1376   -3.4557   39.4073 F   0  0  0  0  0  0  0  0  0  0  0  0
    0.3005   -4.3699   37.2440 C   0  0  0  0  0  0  0  0  0  0  0  0
    0.9850   -4.4831   36.0293 C   0  0  0  0  0  0  0  0  0  0  0  0
    0.4527   -5.3023   35.0292 N   0  0  0  0  0  0  0  0  0  0  0  0
   -0.7310   -6.2940   35.0691 C   0  0  0  0  0  0  0  0  0  0  0  0
   -1.4940   -6.5253   35.9195 O   0  0  0  0  0  0  0  0  0  0  0  0
   -0.9451   -7.0223   33.7630 C   0  0  0  0  0  0  0  0  0  0  0  0
   -0.3255   -6.6125   32.5772 C   0  0  0  0  0  0  0  0  0  0  0  0
    0.5398   -5.5888   32.5426 F   0  0  0  0  0  0  0  0  0  0  0  0
   -0.6196   -7.2532   31.3818 C   0  0  0  0  0  0  0  0  0  0  0  0
   -1.5012   -8.2700   31.2716 N   0  0  0  0  0  0  0  0  0  0  0  0
   -2.0726   -8.6756   32.4269 C   0  0  0  0  0  0  0  0  0  0  0  0
   -1.8468   -8.0972   33.6714 C   0  0  0  0  0  0  0  0  0  0  0  0
   -2.8050   -8.7412   34.9528 Cl  0  0  0  0  0  0  0  0  0  0  0  0
  1  2  1  0
  2  3  2  0
  3  4  1  0
  3  5  1  0
  5  6  2  0
  6  7  1  0
  6  8  1  0
  8  9  2  0
  9 10  1  0
 10 11  1  0
 11 12  2  0
 11 13  1  0
 13 14  2  0
 14 15  1  0
 14 16  1  0
 16 17  2  0
 17 18  1  0
 18 19  2  0
 19 20  1  0
  9  2  1  0
 19 13  1  0
M  END
>  <ref_mols>  (112) 
7gov-a

>  <gnina_score>  (112) 
5.259

>  <smina_score_min>  (112) 
-5.996

>  <ref_pdb>  (112) 
7gov-a

>  <inspiration_score>  (112) 
None

>  <inchikey>  (112) 
XOPUWDFRWZWNSS-UHFFFAOYSA-N

>  <tags>  (112) 
BulkDock Fragalysis export,openbind_d68ev3c_c2_elabs_scored,openbind_d68ev3c_c2_elabs_scored_4.5plus,openbind_d68ev3c_c2_elabs,openbind_d68ev3c_c2_elabs_scored_5plus,syndirella_product,openbind_d68ev3c_c2_elabs_scored_top80percent,syndirella_placed

>  <smiles>  (112) 
Cc1c(Br)cc(F)cc1NC(=O)c1c(F)cncc1Cl

>  <subsites>  (112) 
None

>  <rmsd(smina/fragmenstein)>  (112) 
1.201

>  <alias>  (112) 
None

>  <energy_score>  (112) 
-26.706416

>  <HIPPO Pose ID>  (112) 
64312

>  <distance_score>  (112) 
0.770401

>  <HIPPO Compound ID>  (112) 
100636

>  <gnina_score_min>  (112) 
5.15

>  <name>  (112) 
P64312

>  <exports>  (112) 
['/opt/xchem-fragalysis-2/maxwin/BulkDock/OUTPUTS/openbind_d68ev3c_c2_elabs_1LOTQJ3.sdf', '/opt/xchem-fragalysis-2/maxwin/BulkDock/OUTPUTS/openbind_d68ev3c_c2_elabs_1LSYEHW.sdf', '/opt/xchem-fragalysis-2/maxwin/BulkDock/OUTPUTS/openbind_d68ev3c_c2_elabs_1LSYI5W.sdf']

$$$$
P64314
     RDKit          3D

 20 21  0  0  0  0  0  0  0  0999 V2000
    2.9470   -3.9106   34.5383 C   0  0  0  0  0  0  0  0  0  0  0  0
    2.1547   -3.7705   35.8077 C   0  0  0  0  0  0  0  0  0  0  0  0
    2.6062   -2.8800   36.7988 C   0  0  0  0  0  0  0  0  0  0  0  0
    1.9157   -2.7614   37.9980 C   0  0  0  0  0  0  0  0  0  0  0  0
    2.3827   -1.8955   38.9470 O   0  0  0  0  0  0  0  0  0  0  0  0
    0.7697   -3.5123   38.2220 C   0  0  0  0  0  0  0  0  0  0  0  0
    0.1197   -3.3939   39.3898 F   0  0  0  0  0  0  0  0  0  0  0  0
    0.2926   -4.3799   37.2515 C   0  0  0  0  0  0  0  0  0  0  0  0
    0.9871   -4.5209   36.0448 C   0  0  0  0  0  0  0  0  0  0  0  0
    0.5118   -5.4053   35.0774 N   0  0  0  0  0  0  0  0  0  0  0  0
   -0.7237   -6.3315   35.0857 C   0  0  0  0  0  0  0  0  0  0  0  0
   -1.4930   -6.5564   35.9319 O   0  0  0  0  0  0  0  0  0  0  0  0
   -0.9481   -7.0400   33.7726 C   0  0  0  0  0  0  0  0  0  0  0  0
   -0.3285   -6.6186   32.5914 C   0  0  0  0  0  0  0  0  0  0  0  0
    0.5374   -5.5953   32.5687 F   0  0  0  0  0  0  0  0  0  0  0  0
   -0.6234   -7.2477   31.3903 C   0  0  0  0  0  0  0  0  0  0  0  0
   -1.5069   -8.2622   31.2708 N   0  0  0  0  0  0  0  0  0  0  0  0
   -2.0815   -8.6755   32.4221 C   0  0  0  0  0  0  0  0  0  0  0  0
   -1.8554   -8.1087   33.6714 C   0  0  0  0  0  0  0  0  0  0  0  0
   -2.8184   -8.7568   34.9470 Cl  0  0  0  0  0  0  0  0  0  0  0  0
  1  2  1  0
  2  3  2  0
  3  4  1  0
  4  5  1  0
  4  6  2  0
  6  7  1  0
  6  8  1  0
  8  9  2  0
  9 10  1  0
 10 11  1  0
 11 12  2  0
 11 13  1  0
 13 14  2  0
 14 15  1  0
 14 16  1  0
 16 17  2  0
 17 18  1  0
 18 19  2  0
 19 20  1  0
  9  2  1  0
 19 13  1  0
M  END
>  <ref_mols>  (113) 
7gov-a

>  <gnina_score>  (113) 
5.02

>  <smina_score_min>  (113) 
-5.921

>  <ref_pdb>  (113) 
7gov-a

>  <inspiration_score>  (113) 
None

>  <inchikey>  (113) 
ZDUWXRVYGBWEON-UHFFFAOYSA-N

>  <tags>  (113) 
BulkDock Fragalysis export,openbind_d68ev3c_c2_elabs_scored,openbind_d68ev3c_c2_elabs_scored_4.5plus,openbind_d68ev3c_c2_elabs,openbind_d68ev3c_c2_elabs_scored_5plus,syndirella_product,openbind_d68ev3c_c2_elabs_scored_top80percent,syndirella_placed

>  <smiles>  (113) 
Cc1cc(O)c(F)cc1NC(=O)c1c(F)cncc1Cl

>  <subsites>  (113) 
None

>  <rmsd(smina/fragmenstein)>  (113) 
1.874

>  <alias>  (113) 
None

>  <energy_score>  (113) 
-34.793098

>  <HIPPO Pose ID>  (113) 
64314

>  <distance_score>  (113) 
0.775119

>  <HIPPO Compound ID>  (113) 
100638

>  <gnina_score_min>  (113) 
5.015

>  <name>  (113) 
P64314

>  <exports>  (113) 
['/opt/xchem-fragalysis-2/maxwin/BulkDock/OUTPUTS/openbind_d68ev3c_c2_elabs_1LOTQJ3.sdf', '/opt/xchem-fragalysis-2/maxwin/BulkDock/OUTPUTS/openbind_d68ev3c_c2_elabs_1LSYEHW.sdf', '/opt/xchem-fragalysis-2/maxwin/BulkDock/OUTPUTS/openbind_d68ev3c_c2_elabs_1LSYI5W.sdf']

$$$$
P64315
     RDKit          3D

 20 21  0  0  0  0  0  0  0  0999 V2000
    2.9286   -3.8651   34.5178 C   0  0  0  0  0  0  0  0  0  0  0  0
    2.1582   -3.7585   35.8011 C   0  0  0  0  0  0  0  0  0  0  0  0
    2.6280   -2.9216   36.8242 C   0  0  0  0  0  0  0  0  0  0  0  0
    3.7417   -2.1961   36.6369 F   0  0  0  0  0  0  0  0  0  0  0  0
    1.9687   -2.8088   38.0423 C   0  0  0  0  0  0  0  0  0  0  0  0
    0.8126   -3.5411   38.2449 C   0  0  0  0  0  0  0  0  0  0  0  0
    0.1674   -3.4492   39.4157 F   0  0  0  0  0  0  0  0  0  0  0  0
    0.3056   -4.3662   37.2493 C   0  0  0  0  0  0  0  0  0  0  0  0
    0.9780   -4.4849   36.0277 C   0  0  0  0  0  0  0  0  0  0  0  0
    0.4508   -5.3059   35.0302 N   0  0  0  0  0  0  0  0  0  0  0  0
   -0.7344   -6.2953   35.0679 C   0  0  0  0  0  0  0  0  0  0  0  0
   -1.5022   -6.5218   35.9151 O   0  0  0  0  0  0  0  0  0  0  0  0
   -0.9457   -7.0252   33.7626 C   0  0  0  0  0  0  0  0  0  0  0  0
   -0.3256   -6.6153   32.5772 C   0  0  0  0  0  0  0  0  0  0  0  0
    0.5395   -5.5913   32.5433 F   0  0  0  0  0  0  0  0  0  0  0  0
   -0.6193   -7.2557   31.3817 C   0  0  0  0  0  0  0  0  0  0  0  0
   -1.5009   -8.2725   31.2711 N   0  0  0  0  0  0  0  0  0  0  0  0
   -2.0726   -8.6784   32.4262 C   0  0  0  0  0  0  0  0  0  0  0  0
   -1.8473   -8.1002   33.6707 C   0  0  0  0  0  0  0  0  0  0  0  0
   -2.8057   -8.7440   34.9520 Cl  0  0  0  0  0  0  0  0  0  0  0  0
  1  2  1  0
  2  3  2  0
  3  4  1  0
  3  5  1  0
  5  6  2  0
  6  7  1  0
  6  8  1  0
  8  9  2  0
  9 10  1  0
 10 11  1  0
 11 12  2  0
 11 13  1  0
 13 14  2  0
 14 15  1  0
 14 16  1  0
 16 17  2  0
 17 18  1  0
 18 19  2  0
 19 20  1  0
  9  2  1  0
 19 13  1  0
M  END
>  <ref_mols>  (114) 
7gov-a

>  <gnina_score>  (114) 
5.168

>  <smina_score_min>  (114) 
-5.997

>  <ref_pdb>  (114) 
7gov-a

>  <inspiration_score>  (114) 
None

>  <inchikey>  (114) 
QLZDBCGYJNHVLH-UHFFFAOYSA-N

>  <tags>  (114) 
BulkDock Fragalysis export,openbind_d68ev3c_c2_elabs_scored,openbind_d68ev3c_c2_elabs_scored_4.5plus,openbind_d68ev3c_c2_elabs,openbind_d68ev3c_c2_elabs_scored_5plus,syndirella_product,openbind_d68ev3c_c2_elabs_scored_top80percent,syndirella_placed

>  <smiles>  (114) 
Cc1c(F)cc(F)cc1NC(=O)c1c(F)cncc1Cl

>  <subsites>  (114) 
None

>  <rmsd(smina/fragmenstein)>  (114) 
1.179

>  <alias>  (114) 
None

>  <energy_score>  (114) 
-2.435803

>  <HIPPO Pose ID>  (114) 
64315

>  <distance_score>  (114) 
0.77286

>  <HIPPO Compound ID>  (114) 
100639

>  <gnina_score_min>  (114) 
5.102

>  <name>  (114) 
P64315

>  <exports>  (114) 
['/opt/xchem-fragalysis-2/maxwin/BulkDock/OUTPUTS/openbind_d68ev3c_c2_elabs_1LOTQJ3.sdf', '/opt/xchem-fragalysis-2/maxwin/BulkDock/OUTPUTS/openbind_d68ev3c_c2_elabs_1LSYEHW.sdf', '/opt/xchem-fragalysis-2/maxwin/BulkDock/OUTPUTS/openbind_d68ev3c_c2_elabs_1LSYI5W.sdf']

$$$$
P64319
     RDKit          3D

 20 21  0  0  0  0  0  0  0  0999 V2000
    3.5649   -4.5830   34.3685 C   0  0  0  0  0  0  0  0  0  0  0  0
    2.5184   -3.4870   34.5082 C   0  0  0  0  0  0  0  0  0  0  0  0
    1.8161   -3.5321   35.8474 C   0  0  0  0  0  0  0  0  0  0  0  0
    2.2757   -2.6900   36.8752 C   0  0  0  0  0  0  0  0  0  0  0  0
    1.7256   -2.7631   38.1545 C   0  0  0  0  0  0  0  0  0  0  0  0
    0.7266   -3.6894   38.4172 C   0  0  0  0  0  0  0  0  0  0  0  0
    0.1916   -3.7511   39.6439 F   0  0  0  0  0  0  0  0  0  0  0  0
    0.2669   -4.5468   37.4281 C   0  0  0  0  0  0  0  0  0  0  0  0
    0.8016   -4.4628   36.1422 C   0  0  0  0  0  0  0  0  0  0  0  0
    0.3266   -5.3058   35.1445 N   0  0  0  0  0  0  0  0  0  0  0  0
   -0.4131   -6.6588   35.2419 C   0  0  0  0  0  0  0  0  0  0  0  0
   -0.6707   -7.3131   36.1712 O   0  0  0  0  0  0  0  0  0  0  0  0
   -0.8421   -7.1844   33.8927 C   0  0  0  0  0  0  0  0  0  0  0  0
   -0.2172   -6.7544   32.7134 C   0  0  0  0  0  0  0  0  0  0  0  0
   -0.7234   -7.1675   31.4918 C   0  0  0  0  0  0  0  0  0  0  0  0
   -0.1401   -6.2575   29.9410 Br  0  0  0  0  0  0  0  0  0  0  0  0
   -1.7158   -8.0702   31.3575 N   0  0  0  0  0  0  0  0  0  0  0  0
   -2.2391   -8.5472   32.5079 C   0  0  0  0  0  0  0  0  0  0  0  0
   -1.8844   -8.1138   33.7784 C   0  0  0  0  0  0  0  0  0  0  0  0
   -2.8945   -8.6660   35.0587 Cl  0  0  0  0  0  0  0  0  0  0  0  0
  1  2  1  0
  2  3  1  0
  3  4  2  0
  4  5  1  0
  5  6  2  0
  6  7  1  0
  6  8  1  0
  8  9  2  0
  9 10  1  0
 10 11  1  0
 11 12  2  0
 11 13  1  0
 13 14  2  0
 14 15  1  0
 15 16  1  0
 15 17  2  0
 17 18  1  0
 18 19  2  0
 19 20  1  0
  9  3  1  0
 19 13  1  0
M  END
>  <ref_mols>  (115) 
7gov-a

>  <gnina_score>  (115) 
5.139

>  <smina_score_min>  (115) 
-5.748

>  <ref_pdb>  (115) 
7gov-a

>  <inspiration_score>  (115) 
None

>  <inchikey>  (115) 
HOIZDGGIOODYGF-UHFFFAOYSA-N

>  <tags>  (115) 
BulkDock Fragalysis export,openbind_d68ev3c_c2_elabs_scored,openbind_d68ev3c_c2_elabs_scored_4.5plus,openbind_d68ev3c_c2_elabs,openbind_d68ev3c_c2_elabs_scored_5plus,syndirella_product,openbind_d68ev3c_c2_elabs_scored_top80percent,syndirella_placed

>  <smiles>  (115) 
CCc1ccc(F)cc1NC(=O)c1cc(Br)ncc1Cl

>  <subsites>  (115) 
None

>  <rmsd(smina/fragmenstein)>  (115) 
1.096

>  <alias>  (115) 
None

>  <energy_score>  (115) 
-9.097159

>  <HIPPO Pose ID>  (115) 
64319

>  <distance_score>  (115) 
0.635837

>  <HIPPO Compound ID>  (115) 
100643

>  <gnina_score_min>  (115) 
5.202

>  <name>  (115) 
P64319

>  <exports>  (115) 
['/opt/xchem-fragalysis-2/maxwin/BulkDock/OUTPUTS/openbind_d68ev3c_c2_elabs_1LOTQJ3.sdf', '/opt/xchem-fragalysis-2/maxwin/BulkDock/OUTPUTS/openbind_d68ev3c_c2_elabs_1LSYEHW.sdf', '/opt/xchem-fragalysis-2/maxwin/BulkDock/OUTPUTS/openbind_d68ev3c_c2_elabs_1LSYI5W.sdf']

$$$$
P64328
     RDKit          3D

 20 21  0  0  0  0  0  0  0  0999 V2000
    3.2499   -3.0898   34.5795 C   0  0  0  0  0  0  0  0  0  0  0  0
    2.4763   -3.1570   35.8656 C   0  0  0  0  0  0  0  0  0  0  0  0
    2.8941   -2.3948   36.9672 C   0  0  0  0  0  0  0  0  0  0  0  0
    2.2410   -2.4988   38.1948 C   0  0  0  0  0  0  0  0  0  0  0  0
    1.1605   -3.3586   38.3267 C   0  0  0  0  0  0  0  0  0  0  0  0
    0.5165   -3.4056   39.5048 F   0  0  0  0  0  0  0  0  0  0  0  0
    0.7270   -4.1260   37.2489 C   0  0  0  0  0  0  0  0  0  0  0  0
   -0.8670   -5.1103   37.4883 Br  0  0  0  0  0  0  0  0  0  0  0  0
    1.3935   -4.0359   36.0153 C   0  0  0  0  0  0  0  0  0  0  0  0
    1.0070   -4.7844   34.9064 N   0  0  0  0  0  0  0  0  0  0  0  0
    0.6644   -6.2784   34.7791 C   0  0  0  0  0  0  0  0  0  0  0  0
    0.7251   -7.1383   35.5659 O   0  0  0  0  0  0  0  0  0  0  0  0
    0.0745   -6.6225   33.4575 C   0  0  0  0  0  0  0  0  0  0  0  0
   -0.9588   -7.5554   33.5435 C   0  0  0  0  0  0  0  0  0  0  0  0
   -1.5776   -7.9512   32.3840 C   0  0  0  0  0  0  0  0  0  0  0  0
   -2.9673   -9.1687   32.5299 Br  0  0  0  0  0  0  0  0  0  0  0  0
   -1.2677   -7.5056   31.1549 N   0  0  0  0  0  0  0  0  0  0  0  0
   -0.2467   -6.6220   31.0969 C   0  0  0  0  0  0  0  0  0  0  0  0
    0.4440   -6.1371   32.2043 C   0  0  0  0  0  0  0  0  0  0  0  0
    1.7059   -5.0027   31.9252 Cl  0  0  0  0  0  0  0  0  0  0  0  0
  1  2  1  0
  2  3  2  0
  3  4  1  0
  4  5  2  0
  5  6  1  0
  5  7  1  0
  7  8  1  0
  7  9  2  0
  9 10  1  0
 10 11  1  0
 11 12  2  0
 11 13  1  0
 13 14  2  0
 14 15  1  0
 15 16  1  0
 15 17  2  0
 17 18  1  0
 18 19  2  0
 19 20  1  0
  9  2  1  0
 19 13  1  0
M  END
>  <ref_mols>  (116) 
7gov-a

>  <gnina_score>  (116) 
5.168

>  <smina_score_min>  (116) 
-4.984

>  <ref_pdb>  (116) 
7gov-a

>  <inspiration_score>  (116) 
None

>  <inchikey>  (116) 
IWLIBVNUOXBCCD-UHFFFAOYSA-N

>  <tags>  (116) 
BulkDock Fragalysis export,openbind_d68ev3c_c2_elabs_scored,openbind_d68ev3c_c2_elabs_scored_4.5plus,openbind_d68ev3c_c2_elabs,openbind_d68ev3c_c2_elabs_scored_5plus,syndirella_product,openbind_d68ev3c_c2_elabs_scored_top80percent,syndirella_placed

>  <smiles>  (116) 
Cc1ccc(F)c(Br)c1NC(=O)c1cc(Br)ncc1Cl

>  <subsites>  (116) 
None

>  <rmsd(smina/fragmenstein)>  (116) 
0.857

>  <alias>  (116) 
None

>  <energy_score>  (116) 
-1.291252

>  <HIPPO Pose ID>  (116) 
64328

>  <distance_score>  (116) 
0.819714

>  <HIPPO Compound ID>  (116) 
100654

>  <gnina_score_min>  (116) 
5.095

>  <name>  (116) 
P64328

>  <exports>  (116) 
['/opt/xchem-fragalysis-2/maxwin/BulkDock/OUTPUTS/openbind_d68ev3c_c2_elabs_1LOTQJ3.sdf', '/opt/xchem-fragalysis-2/maxwin/BulkDock/OUTPUTS/openbind_d68ev3c_c2_elabs_1LSYEHW.sdf', '/opt/xchem-fragalysis-2/maxwin/BulkDock/OUTPUTS/openbind_d68ev3c_c2_elabs_1LSYI5W.sdf']

$$$$
P64331
     RDKit          3D

 20 21  0  0  0  0  0  0  0  0999 V2000
    2.4879   -3.5106   34.4945 C   0  0  0  0  0  0  0  0  0  0  0  0
    1.8349   -3.5425   35.8485 C   0  0  0  0  0  0  0  0  0  0  0  0
    2.3348   -2.7177   36.8701 C   0  0  0  0  0  0  0  0  0  0  0  0
    1.7951   -2.7899   38.1481 C   0  0  0  0  0  0  0  0  0  0  0  0
    2.2896   -1.9655   39.1200 O   0  0  0  0  0  0  0  0  0  0  0  0
    0.7691   -3.6845   38.4282 C   0  0  0  0  0  0  0  0  0  0  0  0
    0.2498   -3.7271   39.6640 F   0  0  0  0  0  0  0  0  0  0  0  0
    0.2664   -4.5166   37.4407 C   0  0  0  0  0  0  0  0  0  0  0  0
    0.7886   -4.4356   36.1483 C   0  0  0  0  0  0  0  0  0  0  0  0
    0.2425   -5.2365   35.1531 N   0  0  0  0  0  0  0  0  0  0  0  0
   -0.4064   -6.6371   35.2351 C   0  0  0  0  0  0  0  0  0  0  0  0
   -0.6524   -7.3023   36.1601 O   0  0  0  0  0  0  0  0  0  0  0  0
   -0.8227   -7.1702   33.8845 C   0  0  0  0  0  0  0  0  0  0  0  0
   -0.2040   -6.7365   32.7041 C   0  0  0  0  0  0  0  0  0  0  0  0
   -0.7111   -7.1540   31.4836 C   0  0  0  0  0  0  0  0  0  0  0  0
   -0.1344   -6.2428   29.9308 Br  0  0  0  0  0  0  0  0  0  0  0  0
   -1.6993   -8.0618   31.3510 N   0  0  0  0  0  0  0  0  0  0  0  0
   -2.2186   -8.5400   32.5023 C   0  0  0  0  0  0  0  0  0  0  0  0
   -1.8626   -8.1041   33.7715 C   0  0  0  0  0  0  0  0  0  0  0  0
   -2.8723   -8.6571   35.0525 Cl  0  0  0  0  0  0  0  0  0  0  0  0
  1  2  1  0
  2  3  2  0
  3  4  1  0
  4  5  1  0
  4  6  2  0
  6  7  1  0
  6  8  1  0
  8  9  2  0
  9 10  1  0
 10 11  1  0
 11 12  2  0
 11 13  1  0
 13 14  2  0
 14 15  1  0
 15 16  1  0
 15 17  2  0
 17 18  1  0
 18 19  2  0
 19 20  1  0
  9  2  1  0
 19 13  1  0
M  END
>  <ref_mols>  (117) 
7gov-a

>  <gnina_score>  (117) 
5.004

>  <smina_score_min>  (117) 
-6.17

>  <ref_pdb>  (117) 
7gov-a

>  <inspiration_score>  (117) 
None

>  <inchikey>  (117) 
IQCDPJWYIOEMPR-UHFFFAOYSA-N

>  <tags>  (117) 
BulkDock Fragalysis export,openbind_d68ev3c_c2_elabs_scored,openbind_d68ev3c_c2_elabs_scored_4.5plus,openbind_d68ev3c_c2_elabs,openbind_d68ev3c_c2_elabs_scored_5plus,syndirella_product,openbind_d68ev3c_c2_elabs_scored_top80percent,syndirella_placed

>  <smiles>  (117) 
Cc1cc(O)c(F)cc1NC(=O)c1cc(Br)ncc1Cl

>  <subsites>  (117) 
None

>  <rmsd(smina/fragmenstein)>  (117) 
0.977

>  <alias>  (117) 
None

>  <energy_score>  (117) 
-18.352234

>  <HIPPO Pose ID>  (117) 
64331

>  <distance_score>  (117) 
0.624675

>  <HIPPO Compound ID>  (117) 
100657

>  <gnina_score_min>  (117) 
5.123

>  <name>  (117) 
P64331

>  <exports>  (117) 
['/opt/xchem-fragalysis-2/maxwin/BulkDock/OUTPUTS/openbind_d68ev3c_c2_elabs_1LOTQJ3.sdf', '/opt/xchem-fragalysis-2/maxwin/BulkDock/OUTPUTS/openbind_d68ev3c_c2_elabs_1LSYEHW.sdf', '/opt/xchem-fragalysis-2/maxwin/BulkDock/OUTPUTS/openbind_d68ev3c_c2_elabs_1LSYI5W.sdf']

$$$$
P64335
     RDKit          3D

 20 21  0  0  0  0  0  0  0  0999 V2000
    2.8046   -3.5322   34.1319 C   0  0  0  0  0  0  0  0  0  0  0  0
    2.1974   -3.4592   35.5051 C   0  0  0  0  0  0  0  0  0  0  0  0
    2.8010   -2.6405   36.4766 C   0  0  0  0  0  0  0  0  0  0  0  0
    2.3196   -2.6066   37.7840 C   0  0  0  0  0  0  0  0  0  0  0  0
    1.2335   -3.3937   38.1293 C   0  0  0  0  0  0  0  0  0  0  0  0
    0.7531   -3.3154   39.3824 F   0  0  0  0  0  0  0  0  0  0  0  0
    0.6232   -4.2199   37.1866 C   0  0  0  0  0  0  0  0  0  0  0  0
   -0.9404   -5.0999   37.7555 Br  0  0  0  0  0  0  0  0  0  0  0  0
    1.0999   -4.2620   35.8646 C   0  0  0  0  0  0  0  0  0  0  0  0
    0.5017   -5.0562   34.8783 N   0  0  0  0  0  0  0  0  0  0  0  0
    0.1048   -6.5478   34.8966 C   0  0  0  0  0  0  0  0  0  0  0  0
    0.1431   -7.3294   35.7611 O   0  0  0  0  0  0  0  0  0  0  0  0
   -0.5115   -7.0030   33.6182 C   0  0  0  0  0  0  0  0  0  0  0  0
   -0.0089   -6.5918   32.3880 C   0  0  0  0  0  0  0  0  0  0  0  0
    0.9644   -5.6741   32.2975 F   0  0  0  0  0  0  0  0  0  0  0  0
   -0.5438   -7.1289   31.2259 C   0  0  0  0  0  0  0  0  0  0  0  0
   -1.5562   -8.0298   31.2032 N   0  0  0  0  0  0  0  0  0  0  0  0
   -2.0370   -8.4042   32.4117 C   0  0  0  0  0  0  0  0  0  0  0  0
   -1.5740   -7.9159   33.6261 C   0  0  0  0  0  0  0  0  0  0  0  0
   -2.4602   -8.3853   35.0239 Cl  0  0  0  0  0  0  0  0  0  0  0  0
  1  2  1  0
  2  3  2  0
  3  4  1  0
  4  5  2  0
  5  6  1  0
  5  7  1  0
  7  8  1  0
  7  9  2  0
  9 10  1  0
 10 11  1  0
 11 12  2  0
 11 13  1  0
 13 14  2  0
 14 15  1  0
 14 16  1  0
 16 17  2  0
 17 18  1  0
 18 19  2  0
 19 20  1  0
  9  2  1  0
 19 13  1  0
M  END
>  <ref_mols>  (118) 
7gov-a

>  <gnina_score>  (118) 
5.222

>  <smina_score_min>  (118) 
-5.131

>  <ref_pdb>  (118) 
7gov-a

>  <inspiration_score>  (118) 
None

>  <inchikey>  (118) 
GLQKJMSLICRMSE-UHFFFAOYSA-N

>  <tags>  (118) 
BulkDock Fragalysis export,openbind_d68ev3c_c2_elabs_scored,openbind_d68ev3c_c2_elabs_scored_4.5plus,openbind_d68ev3c_c2_elabs,openbind_d68ev3c_c2_elabs_scored_5plus,syndirella_product,openbind_d68ev3c_c2_elabs_scored_top80percent,syndirella_placed

>  <smiles>  (118) 
Cc1ccc(F)c(Br)c1NC(=O)c1c(F)cncc1Cl

>  <subsites>  (118) 
None

>  <rmsd(smina/fragmenstein)>  (118) 
0.386

>  <alias>  (118) 
None

>  <energy_score>  (118) 
-13.871314

>  <HIPPO Pose ID>  (118) 
64335

>  <distance_score>  (118) 
0.572534

>  <HIPPO Compound ID>  (118) 
100662

>  <gnina_score_min>  (118) 
5.125

>  <name>  (118) 
P64335

>  <exports>  (118) 
['/opt/xchem-fragalysis-2/maxwin/BulkDock/OUTPUTS/openbind_d68ev3c_c2_elabs_1LOTQJ3.sdf', '/opt/xchem-fragalysis-2/maxwin/BulkDock/OUTPUTS/openbind_d68ev3c_c2_elabs_1LSYEHW.sdf', '/opt/xchem-fragalysis-2/maxwin/BulkDock/OUTPUTS/openbind_d68ev3c_c2_elabs_1LSYI5W.sdf']

$$$$
P64336
     RDKit          3D

 20 21  0  0  0  0  0  0  0  0999 V2000
    3.1678   -3.5424   34.8251 C   0  0  0  0  0  0  0  0  0  0  0  0
    2.1844   -3.5492   35.9573 C   0  0  0  0  0  0  0  0  0  0  0  0
    2.5745   -2.8497   37.1234 C   0  0  0  0  0  0  0  0  0  0  0  0
    1.8014   -2.8789   38.2809 C   0  0  0  0  0  0  0  0  0  0  0  0
    2.3931   -1.9715   39.8294 Br  0  0  0  0  0  0  0  0  0  0  0  0
    0.6159   -3.5913   38.2849 C   0  0  0  0  0  0  0  0  0  0  0  0
   -0.1491   -3.6537   39.3849 F   0  0  0  0  0  0  0  0  0  0  0  0
    0.1946   -4.2575   37.1396 C   0  0  0  0  0  0  0  0  0  0  0  0
    0.9618   -4.2382   35.9591 C   0  0  0  0  0  0  0  0  0  0  0  0
    0.3878   -4.9716   34.9109 N   0  0  0  0  0  0  0  0  0  0  0  0
    0.8293   -5.1304   33.4314 C   0  0  0  0  0  0  0  0  0  0  0  0
    1.6952   -4.6133   32.8391 O   0  0  0  0  0  0  0  0  0  0  0  0
    0.0064   -6.1306   32.6873 C   0  0  0  0  0  0  0  0  0  0  0  0
    0.1088   -6.1543   31.2921 C   0  0  0  0  0  0  0  0  0  0  0  0
   -0.6275   -7.0820   30.5754 C   0  0  0  0  0  0  0  0  0  0  0  0
   -1.4752   -7.9615   31.1438 N   0  0  0  0  0  0  0  0  0  0  0  0
   -1.5166   -7.9331   32.4942 C   0  0  0  0  0  0  0  0  0  0  0  0
   -2.5610   -9.0813   33.1794 Cl  0  0  0  0  0  0  0  0  0  0  0  0
   -0.8112   -7.0640   33.3024 C   0  0  0  0  0  0  0  0  0  0  0  0
   -0.9295   -7.1333   34.6383 F   0  0  0  0  0  0  0  0  0  0  0  0
  1  2  1  0
  2  3  2  0
  3  4  1  0
  4  5  1  0
  4  6  2  0
  6  7  1  0
  6  8  1  0
  8  9  2  0
  9 10  1  0
 10 11  1  0
 11 12  2  0
 11 13  1  0
 13 14  2  0
 14 15  1  0
 15 16  2  0
 16 17  1  0
 17 18  1  0
 17 19  2  0
 19 20  1  0
  9  2  1  0
 19 13  1  0
M  END
>  <ref_mols>  (119) 
7gov-a

>  <gnina_score>  (119) 
5.187

>  <smina_score_min>  (119) 
-5.343

>  <ref_pdb>  (119) 
7gov-a

>  <inspiration_score>  (119) 
None

>  <inchikey>  (119) 
ZIBHQHRUUNLNNU-UHFFFAOYSA-N

>  <tags>  (119) 
BulkDock Fragalysis export,openbind_d68ev3c_c2_elabs_scored,openbind_d68ev3c_c2_elabs_scored_4.5plus,openbind_d68ev3c_c2_elabs,openbind_d68ev3c_c2_elabs_scored_5plus,syndirella_product,openbind_d68ev3c_c2_elabs_scored_top80percent,syndirella_placed

>  <smiles>  (119) 
Cc1cc(Br)c(F)cc1NC(=O)c1ccnc(Cl)c1F

>  <subsites>  (119) 
None

>  <rmsd(smina/fragmenstein)>  (119) 
0.958

>  <alias>  (119) 
None

>  <energy_score>  (119) 
-10.486967

>  <HIPPO Pose ID>  (119) 
64336

>  <distance_score>  (119) 
1.250124

>  <HIPPO Compound ID>  (119) 
100663

>  <gnina_score_min>  (119) 
5.197

>  <name>  (119) 
P64336

>  <exports>  (119) 
['/opt/xchem-fragalysis-2/maxwin/BulkDock/OUTPUTS/openbind_d68ev3c_c2_elabs_1LOTQJ3.sdf', '/opt/xchem-fragalysis-2/maxwin/BulkDock/OUTPUTS/openbind_d68ev3c_c2_elabs_1LSYEHW.sdf', '/opt/xchem-fragalysis-2/maxwin/BulkDock/OUTPUTS/openbind_d68ev3c_c2_elabs_1LSYI5W.sdf']

$$$$
P64338
     RDKit          3D

 20 21  0  0  0  0  0  0  0  0999 V2000
   -0.1398   -6.3295   29.9229 C   0  0  0  0  0  0  0  0  0  0  0  0
   -0.6381   -6.9175   31.2085 C   0  0  0  0  0  0  0  0  0  0  0  0
   -0.0726   -6.4954   32.4025 C   0  0  0  0  0  0  0  0  0  0  0  0
   -0.5767   -7.0049   33.5970 C   0  0  0  0  0  0  0  0  0  0  0  0
    0.1452   -6.6387   34.8275 C   0  0  0  0  0  0  0  0  0  0  0  0
    0.8911   -7.4112   35.2779 O   0  0  0  0  0  0  0  0  0  0  0  0
   -0.1697   -5.1935   35.2495 N   0  0  0  0  0  0  0  0  0  0  0  0
    0.4125   -4.3910   36.2193 C   0  0  0  0  0  0  0  0  0  0  0  0
   -0.3895   -4.0043   37.2905 C   0  0  0  0  0  0  0  0  0  0  0  0
    0.1728   -3.2820   38.3339 C   0  0  0  0  0  0  0  0  0  0  0  0
   -0.5608   -3.0171   39.4209 F   0  0  0  0  0  0  0  0  0  0  0  0
    1.4862   -2.8456   38.2831 C   0  0  0  0  0  0  0  0  0  0  0  0
    2.2713   -3.1865   37.1869 C   0  0  0  0  0  0  0  0  0  0  0  0
    1.7716   -4.0192   36.1657 C   0  0  0  0  0  0  0  0  0  0  0  0
    2.6871   -4.3986   35.0222 C   0  0  0  0  0  0  0  0  0  0  0  0
    4.0590   -4.4221   35.4144 O   0  0  0  0  0  0  0  0  0  0  0  0
   -1.6211   -7.9103   33.5778 C   0  0  0  0  0  0  0  0  0  0  0  0
   -2.5121   -8.5169   35.1060 Br  0  0  0  0  0  0  0  0  0  0  0  0
   -2.1031   -8.2996   32.3437 C   0  0  0  0  0  0  0  0  0  0  0  0
   -1.6590   -7.8107   31.1598 N   0  0  0  0  0  0  0  0  0  0  0  0
  1  2  1  0
  2  3  2  0
  3  4  1  0
  4  5  1  0
  5  6  2  0
  5  7  1  0
  7  8  1  0
  8  9  2  0
  9 10  1  0
 10 11  1  0
 10 12  2  0
 12 13  1  0
 13 14  2  0
 14 15  1  0
 15 16  1  0
  4 17  2  0
 17 18  1  0
 17 19  1  0
 19 20  2  0
 20  2  1  0
 14  8  1  0
M  END
>  <ref_mols>  (120) 
7gov-a

>  <gnina_score>  (120) 
4.962

>  <smina_score_min>  (120) 
-6.019

>  <ref_pdb>  (120) 
7gov-a

>  <inspiration_score>  (120) 
None

>  <inchikey>  (120) 
AXEKYSKRDVRTKJ-UHFFFAOYSA-N

>  <tags>  (120) 
BulkDock Fragalysis export,openbind_d68ev3c_c2_elabs_scored,openbind_d68ev3c_c2_elabs_scored_4.5plus,openbind_d68ev3c_c2_elabs,openbind_d68ev3c_c2_elabs_scored_5plus,syndirella_product,openbind_d68ev3c_c2_elabs_scored_top80percent,syndirella_placed

>  <smiles>  (120) 
Cc1cc(C(=O)Nc2cc(F)ccc2CO)c(Br)cn1

>  <subsites>  (120) 
None

>  <rmsd(smina/fragmenstein)>  (120) 
0.781

>  <alias>  (120) 
None

>  <energy_score>  (120) 
-6.093275

>  <HIPPO Pose ID>  (120) 
64338

>  <distance_score>  (120) 
0.511353

>  <HIPPO Compound ID>  (120) 
100665

>  <gnina_score_min>  (120) 
5.022

>  <name>  (120) 
P64338

>  <exports>  (120) 
['/opt/xchem-fragalysis-2/maxwin/BulkDock/OUTPUTS/openbind_d68ev3c_c2_elabs_1LOTQJ3.sdf', '/opt/xchem-fragalysis-2/maxwin/BulkDock/OUTPUTS/openbind_d68ev3c_c2_elabs_1LSYEHW.sdf', '/opt/xchem-fragalysis-2/maxwin/BulkDock/OUTPUTS/openbind_d68ev3c_c2_elabs_1LSYI5W.sdf']

$$$$
P64339
     RDKit          3D

 20 21  0  0  0  0  0  0  0  0999 V2000
   -0.0954   -6.4464   30.1442 C   0  0  0  0  0  0  0  0  0  0  0  0
   -0.6389   -7.0935   31.3837 C   0  0  0  0  0  0  0  0  0  0  0  0
   -0.1510   -6.6994   32.6271 C   0  0  0  0  0  0  0  0  0  0  0  0
   -0.7761   -7.1432   33.8018 C   0  0  0  0  0  0  0  0  0  0  0  0
   -0.3273   -6.6571   35.1606 C   0  0  0  0  0  0  0  0  0  0  0  0
   -0.5354   -7.3584   36.0679 O   0  0  0  0  0  0  0  0  0  0  0  0
    0.3588   -5.2742   35.1015 N   0  0  0  0  0  0  0  0  0  0  0  0
    0.8284   -4.4559   36.1208 C   0  0  0  0  0  0  0  0  0  0  0  0
    0.2698   -4.5528   37.3959 C   0  0  0  0  0  0  0  0  0  0  0  0
    0.7207   -3.7146   38.4073 C   0  0  0  0  0  0  0  0  0  0  0  0
    0.1535   -3.7948   39.6199 F   0  0  0  0  0  0  0  0  0  0  0  0
    1.7396   -2.7991   38.1658 C   0  0  0  0  0  0  0  0  0  0  0  0
    2.1673   -1.9916   39.1828 O   0  0  0  0  0  0  0  0  0  0  0  0
    2.3142   -2.7099   36.8986 C   0  0  0  0  0  0  0  0  0  0  0  0
    1.8595   -3.5362   35.8573 C   0  0  0  0  0  0  0  0  0  0  0  0
    2.5502   -3.4867   34.5217 C   0  0  0  0  0  0  0  0  0  0  0  0
   -1.8237   -8.0602   33.6677 C   0  0  0  0  0  0  0  0  0  0  0  0
   -2.9347   -8.7152   35.0504 Br  0  0  0  0  0  0  0  0  0  0  0  0
   -2.1858   -8.4610   32.3906 C   0  0  0  0  0  0  0  0  0  0  0  0
   -1.6552   -7.9722   31.2472 N   0  0  0  0  0  0  0  0  0  0  0  0
  1  2  1  0
  2  3  2  0
  3  4  1  0
  4  5  1  0
  5  6  2  0
  5  7  1  0
  7  8  1  0
  8  9  2  0
  9 10  1  0
 10 11  1  0
 10 12  2  0
 12 13  1  0
 12 14  1  0
 14 15  2  0
 15 16  1  0
  4 17  2  0
 17 18  1  0
 17 19  1  0
 19 20  2  0
 20  2  1  0
 15  8  1  0
M  END
>  <ref_mols>  (121) 
7gov-a

>  <gnina_score>  (121) 
4.904

>  <smina_score_min>  (121) 
-5.709

>  <ref_pdb>  (121) 
7gov-a

>  <inspiration_score>  (121) 
None

>  <inchikey>  (121) 
QVXLGBAGCGXABW-UHFFFAOYSA-N

>  <tags>  (121) 
BulkDock Fragalysis export,openbind_d68ev3c_c2_elabs_scored,openbind_d68ev3c_c2_elabs_scored_4.5plus,openbind_d68ev3c_c2_elabs,openbind_d68ev3c_c2_elabs_scored_5plus,syndirella_product,openbind_d68ev3c_c2_elabs_scored_top80percent,syndirella_placed

>  <smiles>  (121) 
Cc1cc(C(=O)Nc2cc(F)c(O)cc2C)c(Br)cn1

>  <subsites>  (121) 
None

>  <rmsd(smina/fragmenstein)>  (121) 
0.912

>  <alias>  (121) 
None

>  <energy_score>  (121) 
-6.01104

>  <HIPPO Pose ID>  (121) 
64339

>  <distance_score>  (121) 
0.591993

>  <HIPPO Compound ID>  (121) 
100666

>  <gnina_score_min>  (121) 
5.023

>  <name>  (121) 
P64339

>  <exports>  (121) 
['/opt/xchem-fragalysis-2/maxwin/BulkDock/OUTPUTS/openbind_d68ev3c_c2_elabs_1LOTQJ3.sdf', '/opt/xchem-fragalysis-2/maxwin/BulkDock/OUTPUTS/openbind_d68ev3c_c2_elabs_1LSYEHW.sdf', '/opt/xchem-fragalysis-2/maxwin/BulkDock/OUTPUTS/openbind_d68ev3c_c2_elabs_1LSYI5W.sdf']

$$$$
P64340
     RDKit          3D

 20 21  0  0  0  0  0  0  0  0999 V2000
   -0.0856   -6.4374   30.1613 C   0  0  0  0  0  0  0  0  0  0  0  0
   -0.6312   -7.0893   31.3974 C   0  0  0  0  0  0  0  0  0  0  0  0
   -0.1541   -6.6909   32.6438 C   0  0  0  0  0  0  0  0  0  0  0  0
   -0.7861   -7.1373   33.8136 C   0  0  0  0  0  0  0  0  0  0  0  0
   -0.3607   -6.6338   35.1732 C   0  0  0  0  0  0  0  0  0  0  0  0
   -0.5761   -7.3255   36.0862 O   0  0  0  0  0  0  0  0  0  0  0  0
    0.2580   -5.2191   35.1132 N   0  0  0  0  0  0  0  0  0  0  0  0
    0.8064   -4.4306   36.1175 C   0  0  0  0  0  0  0  0  0  0  0  0
    0.2846   -4.5260   37.4093 C   0  0  0  0  0  0  0  0  0  0  0  0
    0.7848   -3.7081   38.4134 C   0  0  0  0  0  0  0  0  0  0  0  0
    0.2534   -3.7739   39.6412 F   0  0  0  0  0  0  0  0  0  0  0  0
    1.8107   -2.8126   38.1605 C   0  0  0  0  0  0  0  0  0  0  0  0
    2.3396   -2.7423   36.8774 C   0  0  0  0  0  0  0  0  0  0  0  0
    3.3367   -1.8742   36.6471 F   0  0  0  0  0  0  0  0  0  0  0  0
    1.8515   -3.5383   35.8330 C   0  0  0  0  0  0  0  0  0  0  0  0
    2.5053   -3.4832   34.4831 C   0  0  0  0  0  0  0  0  0  0  0  0
   -1.8253   -8.0631   33.6733 C   0  0  0  0  0  0  0  0  0  0  0  0
   -2.9427   -8.7220   35.0492 Br  0  0  0  0  0  0  0  0  0  0  0  0
   -2.1757   -8.4676   32.3941 C   0  0  0  0  0  0  0  0  0  0  0  0
   -1.6411   -7.9749   31.2544 N   0  0  0  0  0  0  0  0  0  0  0  0
  1  2  1  0
  2  3  2  0
  3  4  1  0
  4  5  1  0
  5  6  2  0
  5  7  1  0
  7  8  1  0
  8  9  2  0
  9 10  1  0
 10 11  1  0
 10 12  2  0
 12 13  1  0
 13 14  1  0
 13 15  2  0
 15 16  1  0
  4 17  2  0
 17 18  1  0
 17 19  1  0
 19 20  2  0
 20  2  1  0
 15  8  1  0
M  END
>  <ref_mols>  (122) 
7gov-a

>  <gnina_score>  (122) 
5.056

>  <smina_score_min>  (122) 
-5.849

>  <ref_pdb>  (122) 
7gov-a

>  <inspiration_score>  (122) 
None

>  <inchikey>  (122) 
KVFDLVDHDATWAB-UHFFFAOYSA-N

>  <tags>  (122) 
BulkDock Fragalysis export,openbind_d68ev3c_c2_elabs_scored,openbind_d68ev3c_c2_elabs_scored_4.5plus,openbind_d68ev3c_c2_elabs,openbind_d68ev3c_c2_elabs_scored_5plus,syndirella_product,openbind_d68ev3c_c2_elabs_scored_top80percent,syndirella_placed

>  <smiles>  (122) 
Cc1cc(C(=O)Nc2cc(F)cc(F)c2C)c(Br)cn1

>  <subsites>  (122) 
None

>  <rmsd(smina/fragmenstein)>  (122) 
0.934

>  <alias>  (122) 
None

>  <energy_score>  (122) 
-5.751832

>  <HIPPO Pose ID>  (122) 
64340

>  <distance_score>  (122) 
0.602414

>  <HIPPO Compound ID>  (122) 
100667

>  <gnina_score_min>  (122) 
5.101

>  <name>  (122) 
P64340

>  <exports>  (122) 
['/opt/xchem-fragalysis-2/maxwin/BulkDock/OUTPUTS/openbind_d68ev3c_c2_elabs_1LOTQJ3.sdf', '/opt/xchem-fragalysis-2/maxwin/BulkDock/OUTPUTS/openbind_d68ev3c_c2_elabs_1LSYEHW.sdf', '/opt/xchem-fragalysis-2/maxwin/BulkDock/OUTPUTS/openbind_d68ev3c_c2_elabs_1LSYI5W.sdf']

$$$$
P64341
     RDKit          3D

 20 21  0  0  0  0  0  0  0  0999 V2000
   -0.0830   -6.4311   30.1438 C   0  0  0  0  0  0  0  0  0  0  0  0
   -0.6257   -7.0829   31.3815 C   0  0  0  0  0  0  0  0  0  0  0  0
   -0.1423   -6.6859   32.6258 C   0  0  0  0  0  0  0  0  0  0  0  0
   -0.7707   -7.1323   33.7975 C   0  0  0  0  0  0  0  0  0  0  0  0
   -0.3401   -6.6304   35.1557 C   0  0  0  0  0  0  0  0  0  0  0  0
   -0.5503   -7.3224   36.0692 O   0  0  0  0  0  0  0  0  0  0  0  0
    0.2753   -5.2152   35.0934 N   0  0  0  0  0  0  0  0  0  0  0  0
    0.8280   -4.4234   36.0986 C   0  0  0  0  0  0  0  0  0  0  0  0
    0.3073   -4.5200   37.3909 C   0  0  0  0  0  0  0  0  0  0  0  0
    0.8087   -3.7017   38.3949 C   0  0  0  0  0  0  0  0  0  0  0  0
    0.2789   -3.7671   39.6231 F   0  0  0  0  0  0  0  0  0  0  0  0
    1.8402   -2.8053   38.1418 C   0  0  0  0  0  0  0  0  0  0  0  0
    2.3809   -2.7213   36.8573 C   0  0  0  0  0  0  0  0  0  0  0  0
    1.8732   -3.5253   35.8273 C   0  0  0  0  0  0  0  0  0  0  0  0
    2.4676   -3.4568   34.5238 C   0  0  0  0  0  0  0  0  0  0  0  0
    2.8889   -3.4012   33.4431 N   0  0  0  0  0  0  0  0  0  0  0  0
   -1.8126   -8.0558   33.6617 C   0  0  0  0  0  0  0  0  0  0  0  0
   -2.9245   -8.7135   35.0427 Br  0  0  0  0  0  0  0  0  0  0  0  0
   -2.1693   -8.4588   32.3842 C   0  0  0  0  0  0  0  0  0  0  0  0
   -1.6388   -7.9664   31.2427 N   0  0  0  0  0  0  0  0  0  0  0  0
  1  2  1  0
  2  3  2  0
  3  4  1  0
  4  5  1  0
  5  6  2  0
  5  7  1  0
  7  8  1  0
  8  9  2  0
  9 10  1  0
 10 11  1  0
 10 12  2  0
 12 13  1  0
 13 14  2  0
 14 15  1  0
 15 16  3  0
  4 17  2  0
 17 18  1  0
 17 19  1  0
 19 20  2  0
 20  2  1  0
 14  8  1  0
M  END
>  <ref_mols>  (123) 
7gov-a

>  <gnina_score>  (123) 
5.074

>  <smina_score_min>  (123) 
-5.606

>  <ref_pdb>  (123) 
7gov-a

>  <inspiration_score>  (123) 
None

>  <inchikey>  (123) 
VEGOYFCKXVULJQ-UHFFFAOYSA-N

>  <tags>  (123) 
BulkDock Fragalysis export,openbind_d68ev3c_c2_elabs_scored,openbind_d68ev3c_c2_elabs_scored_4.5plus,openbind_d68ev3c_c2_elabs,openbind_d68ev3c_c2_elabs_scored_5plus,syndirella_product,openbind_d68ev3c_c2_elabs_scored_top80percent,syndirella_placed

>  <smiles>  (123) 
Cc1cc(C(=O)Nc2cc(F)ccc2C#N)c(Br)cn1

>  <subsites>  (123) 
None

>  <rmsd(smina/fragmenstein)>  (123) 
0.979

>  <alias>  (123) 
None

>  <energy_score>  (123) 
-8.362282

>  <HIPPO Pose ID>  (123) 
64341

>  <distance_score>  (123) 
0.597502

>  <HIPPO Compound ID>  (123) 
100668

>  <gnina_score_min>  (123) 
5.065

>  <name>  (123) 
P64341

>  <exports>  (123) 
['/opt/xchem-fragalysis-2/maxwin/BulkDock/OUTPUTS/openbind_d68ev3c_c2_elabs_1LOTQJ3.sdf', '/opt/xchem-fragalysis-2/maxwin/BulkDock/OUTPUTS/openbind_d68ev3c_c2_elabs_1LSYEHW.sdf', '/opt/xchem-fragalysis-2/maxwin/BulkDock/OUTPUTS/openbind_d68ev3c_c2_elabs_1LSYI5W.sdf']

$$$$
P64343
     RDKit          3D

 20 21  0  0  0  0  0  0  0  0999 V2000
   -0.0861   -6.4389   30.1686 C   0  0  0  0  0  0  0  0  0  0  0  0
   -0.6339   -7.0909   31.4035 C   0  0  0  0  0  0  0  0  0  0  0  0
   -0.1608   -6.6911   32.6510 C   0  0  0  0  0  0  0  0  0  0  0  0
   -0.7954   -7.1380   33.8193 C   0  0  0  0  0  0  0  0  0  0  0  0
   -0.3736   -6.6338   35.1797 C   0  0  0  0  0  0  0  0  0  0  0  0
   -0.5865   -7.3272   36.0919 O   0  0  0  0  0  0  0  0  0  0  0  0
    0.2441   -5.2188   35.1207 N   0  0  0  0  0  0  0  0  0  0  0  0
    0.7940   -4.4323   36.1245 C   0  0  0  0  0  0  0  0  0  0  0  0
    0.2736   -4.5287   37.4176 C   0  0  0  0  0  0  0  0  0  0  0  0
    0.7847   -3.7200   38.4235 C   0  0  0  0  0  0  0  0  0  0  0  0
    0.2530   -3.7848   39.6521 F   0  0  0  0  0  0  0  0  0  0  0  0
    1.8234   -2.8401   38.1562 C   0  0  0  0  0  0  0  0  0  0  0  0
    2.3169   -2.0609   39.1295 F   0  0  0  0  0  0  0  0  0  0  0  0
    2.3598   -2.7512   36.8745 C   0  0  0  0  0  0  0  0  0  0  0  0
    1.8475   -3.5458   35.8367 C   0  0  0  0  0  0  0  0  0  0  0  0
    2.5001   -3.5003   34.4833 C   0  0  0  0  0  0  0  0  0  0  0  0
   -1.8322   -8.0659   33.6769 C   0  0  0  0  0  0  0  0  0  0  0  0
   -2.9513   -8.7259   35.0509 Br  0  0  0  0  0  0  0  0  0  0  0  0
   -2.1785   -8.4715   32.3969 C   0  0  0  0  0  0  0  0  0  0  0  0
   -1.6420   -7.9782   31.2583 N   0  0  0  0  0  0  0  0  0  0  0  0
  1  2  1  0
  2  3  2  0
  3  4  1  0
  4  5  1  0
  5  6  2  0
  5  7  1  0
  7  8  1  0
  8  9  2  0
  9 10  1  0
 10 11  1  0
 10 12  2  0
 12 13  1  0
 12 14  1  0
 14 15  2  0
 15 16  1  0
  4 17  2  0
 17 18  1  0
 17 19  1  0
 19 20  2  0
 20  2  1  0
 15  8  1  0
M  END
>  <ref_mols>  (124) 
7gov-a

>  <gnina_score>  (124) 
5.017

>  <smina_score_min>  (124) 
-5.831

>  <ref_pdb>  (124) 
7gov-a

>  <inspiration_score>  (124) 
None

>  <inchikey>  (124) 
QTSGMMSNLKOLFZ-UHFFFAOYSA-N

>  <tags>  (124) 
BulkDock Fragalysis export,openbind_d68ev3c_c2_elabs_scored,openbind_d68ev3c_c2_elabs_scored_4.5plus,openbind_d68ev3c_c2_elabs,openbind_d68ev3c_c2_elabs_scored_5plus,syndirella_product,openbind_d68ev3c_c2_elabs_scored_top80percent,syndirella_placed

>  <smiles>  (124) 
Cc1cc(C(=O)Nc2cc(F)c(F)cc2C)c(Br)cn1

>  <subsites>  (124) 
None

>  <rmsd(smina/fragmenstein)>  (124) 
0.937

>  <alias>  (124) 
None

>  <energy_score>  (124) 
-26.902923

>  <HIPPO Pose ID>  (124) 
64343

>  <distance_score>  (124) 
0.603899

>  <HIPPO Compound ID>  (124) 
100671

>  <gnina_score_min>  (124) 
5.09

>  <name>  (124) 
P64343

>  <exports>  (124) 
['/opt/xchem-fragalysis-2/maxwin/BulkDock/OUTPUTS/openbind_d68ev3c_c2_elabs_1LOTQJ3.sdf', '/opt/xchem-fragalysis-2/maxwin/BulkDock/OUTPUTS/openbind_d68ev3c_c2_elabs_1LSYEHW.sdf', '/opt/xchem-fragalysis-2/maxwin/BulkDock/OUTPUTS/openbind_d68ev3c_c2_elabs_1LSYI5W.sdf']

$$$$
P64346
     RDKit          3D

 20 21  0  0  0  0  0  0  0  0999 V2000
    3.5778   -4.5472   34.3554 C   0  0  0  0  0  0  0  0  0  0  0  0
    2.5270   -3.4556   34.4994 C   0  0  0  0  0  0  0  0  0  0  0  0
    1.8192   -3.5138   35.8349 C   0  0  0  0  0  0  0  0  0  0  0  0
    2.2732   -2.6822   36.8735 C   0  0  0  0  0  0  0  0  0  0  0  0
    1.7196   -2.7721   38.1504 C   0  0  0  0  0  0  0  0  0  0  0  0
    0.7237   -3.7056   38.3998 C   0  0  0  0  0  0  0  0  0  0  0  0
    0.1858   -3.7828   39.6244 F   0  0  0  0  0  0  0  0  0  0  0  0
    0.2703   -4.5535   37.3995 C   0  0  0  0  0  0  0  0  0  0  0  0
    0.8070   -4.4509   36.1158 C   0  0  0  0  0  0  0  0  0  0  0  0
    0.3368   -5.2826   35.1067 N   0  0  0  0  0  0  0  0  0  0  0  0
   -0.3735   -6.6518   35.1848 C   0  0  0  0  0  0  0  0  0  0  0  0
   -0.6057   -7.3305   36.1032 O   0  0  0  0  0  0  0  0  0  0  0  0
   -0.8077   -7.1504   33.8259 C   0  0  0  0  0  0  0  0  0  0  0  0
   -0.1693   -6.7068   32.6577 C   0  0  0  0  0  0  0  0  0  0  0  0
   -0.6429   -7.1020   31.4096 C   0  0  0  0  0  0  0  0  0  0  0  0
   -0.0915   -6.4503   30.1762 C   0  0  0  0  0  0  0  0  0  0  0  0
   -1.6550   -7.9843   31.2634 N   0  0  0  0  0  0  0  0  0  0  0  0
   -2.1942   -8.4763   32.4019 C   0  0  0  0  0  0  0  0  0  0  0  0
   -1.8476   -8.0734   33.6828 C   0  0  0  0  0  0  0  0  0  0  0  0
   -2.9670   -8.7327   35.0562 Br  0  0  0  0  0  0  0  0  0  0  0  0
  1  2  1  0
  2  3  1  0
  3  4  2  0
  4  5  1  0
  5  6  2  0
  6  7  1  0
  6  8  1  0
  8  9  2  0
  9 10  1  0
 10 11  1  0
 11 12  2  0
 11 13  1  0
 13 14  2  0
 14 15  1  0
 15 16  1  0
 15 17  2  0
 17 18  1  0
 18 19  2  0
 19 20  1  0
  9  3  1  0
 19 13  1  0
M  END
>  <ref_mols>  (125) 
7gov-a

>  <gnina_score>  (125) 
5.08

>  <smina_score_min>  (125) 
-5.326

>  <ref_pdb>  (125) 
7gov-a

>  <inspiration_score>  (125) 
None

>  <inchikey>  (125) 
BHUNOEIJOLIYEI-UHFFFAOYSA-N

>  <tags>  (125) 
BulkDock Fragalysis export,openbind_d68ev3c_c2_elabs_scored,openbind_d68ev3c_c2_elabs_scored_4.5plus,openbind_d68ev3c_c2_elabs,openbind_d68ev3c_c2_elabs_scored_5plus,syndirella_product,openbind_d68ev3c_c2_elabs_scored_top80percent,syndirella_placed

>  <smiles>  (125) 
CCc1ccc(F)cc1NC(=O)c1cc(C)ncc1Br

>  <subsites>  (125) 
None

>  <rmsd(smina/fragmenstein)>  (125) 
1.214

>  <alias>  (125) 
None

>  <energy_score>  (125) 
-4.395003

>  <HIPPO Pose ID>  (125) 
64346

>  <distance_score>  (125) 
0.618423

>  <HIPPO Compound ID>  (125) 
100676

>  <gnina_score_min>  (125) 
5.134

>  <name>  (125) 
P64346

>  <exports>  (125) 
['/opt/xchem-fragalysis-2/maxwin/BulkDock/OUTPUTS/openbind_d68ev3c_c2_elabs_1LOTQJ3.sdf', '/opt/xchem-fragalysis-2/maxwin/BulkDock/OUTPUTS/openbind_d68ev3c_c2_elabs_1LSYEHW.sdf', '/opt/xchem-fragalysis-2/maxwin/BulkDock/OUTPUTS/openbind_d68ev3c_c2_elabs_1LSYI5W.sdf']

$$$$
P64348
     RDKit          3D

 20 21  0  0  0  0  0  0  0  0999 V2000
   -0.0874   -6.4324   30.1496 C   0  0  0  0  0  0  0  0  0  0  0  0
   -0.6323   -7.0820   31.3870 C   0  0  0  0  0  0  0  0  0  0  0  0
   -0.1515   -6.6846   32.6320 C   0  0  0  0  0  0  0  0  0  0  0  0
   -0.7791   -7.1346   33.8021 C   0  0  0  0  0  0  0  0  0  0  0  0
   -0.3389   -6.6437   35.1590 C   0  0  0  0  0  0  0  0  0  0  0  0
   -0.5217   -7.3541   36.0647 O   0  0  0  0  0  0  0  0  0  0  0  0
    0.2583   -5.2195   35.1086 N   0  0  0  0  0  0  0  0  0  0  0  0
    0.8210   -4.4401   36.1136 C   0  0  0  0  0  0  0  0  0  0  0  0
    0.2815   -4.5406   37.3979 C   0  0  0  0  0  0  0  0  0  0  0  0
    0.7584   -3.7205   38.4069 C   0  0  0  0  0  0  0  0  0  0  0  0
    0.2112   -3.7898   39.6275 F   0  0  0  0  0  0  0  0  0  0  0  0
    1.7718   -2.8077   38.1648 C   0  0  0  0  0  0  0  0  0  0  0  0
    2.3309   -2.7240   36.8873 C   0  0  0  0  0  0  0  0  0  0  0  0
    3.6999   -1.4241   36.6421 Br  0  0  0  0  0  0  0  0  0  0  0  0
    1.8805   -3.5524   35.8390 C   0  0  0  0  0  0  0  0  0  0  0  0
    2.5362   -3.5190   34.4828 C   0  0  0  0  0  0  0  0  0  0  0  0
   -1.8200   -8.0581   33.6657 C   0  0  0  0  0  0  0  0  0  0  0  0
   -2.9302   -8.7148   35.0478 Br  0  0  0  0  0  0  0  0  0  0  0  0
   -2.1758   -8.4600   32.3878 C   0  0  0  0  0  0  0  0  0  0  0  0
   -1.6438   -7.9667   31.2468 N   0  0  0  0  0  0  0  0  0  0  0  0
  1  2  1  0
  2  3  2  0
  3  4  1  0
  4  5  1  0
  5  6  2  0
  5  7  1  0
  7  8  1  0
  8  9  2  0
  9 10  1  0
 10 11  1  0
 10 12  2  0
 12 13  1  0
 13 14  1  0
 13 15  2  0
 15 16  1  0
  4 17  2  0
 17 18  1  0
 17 19  1  0
 19 20  2  0
 20  2  1  0
 15  8  1  0
M  END
>  <ref_mols>  (126) 
7gov-a

>  <gnina_score>  (126) 
5.145

>  <smina_score_min>  (126) 
-5.764

>  <ref_pdb>  (126) 
7gov-a

>  <inspiration_score>  (126) 
None

>  <inchikey>  (126) 
LNGXPCWYQTVDDP-UHFFFAOYSA-N

>  <tags>  (126) 
BulkDock Fragalysis export,openbind_d68ev3c_c2_elabs_scored,openbind_d68ev3c_c2_elabs_scored_4.5plus,openbind_d68ev3c_c2_elabs,openbind_d68ev3c_c2_elabs_scored_5plus,syndirella_product,openbind_d68ev3c_c2_elabs_scored_top80percent,syndirella_placed

>  <smiles>  (126) 
Cc1cc(C(=O)Nc2cc(F)cc(Br)c2C)c(Br)cn1

>  <subsites>  (126) 
None

>  <rmsd(smina/fragmenstein)>  (126) 
0.915

>  <alias>  (126) 
None

>  <energy_score>  (126) 
-6.375513

>  <HIPPO Pose ID>  (126) 
64348

>  <distance_score>  (126) 
0.586934

>  <HIPPO Compound ID>  (126) 
100678

>  <gnina_score_min>  (126) 
5.188

>  <name>  (126) 
P64348

>  <exports>  (126) 
['/opt/xchem-fragalysis-2/maxwin/BulkDock/OUTPUTS/openbind_d68ev3c_c2_elabs_1LOTQJ3.sdf', '/opt/xchem-fragalysis-2/maxwin/BulkDock/OUTPUTS/openbind_d68ev3c_c2_elabs_1LSYEHW.sdf', '/opt/xchem-fragalysis-2/maxwin/BulkDock/OUTPUTS/openbind_d68ev3c_c2_elabs_1LSYI5W.sdf']

$$$$
P64349
     RDKit          3D

 20 21  0  0  0  0  0  0  0  0999 V2000
    2.9421   -3.2797   34.6084 C   0  0  0  0  0  0  0  0  0  0  0  0
    2.2221   -3.3189   35.9305 C   0  0  0  0  0  0  0  0  0  0  0  0
    2.5773   -2.4752   37.0004 C   0  0  0  0  0  0  0  0  0  0  0  0
    3.9233   -1.1389   36.8417 Br  0  0  0  0  0  0  0  0  0  0  0  0
    1.9364   -2.5694   38.2401 C   0  0  0  0  0  0  0  0  0  0  0  0
    0.9303   -3.5036   38.4210 C   0  0  0  0  0  0  0  0  0  0  0  0
    0.3042   -3.5857   39.6025 F   0  0  0  0  0  0  0  0  0  0  0  0
    0.5440   -4.3360   37.3870 C   0  0  0  0  0  0  0  0  0  0  0  0
    1.1747   -4.2319   36.1441 C   0  0  0  0  0  0  0  0  0  0  0  0
    0.7277   -5.0440   35.1119 N   0  0  0  0  0  0  0  0  0  0  0  0
   -0.0029   -6.3965   35.1497 C   0  0  0  0  0  0  0  0  0  0  0  0
   -0.2776   -7.0813   36.0511 O   0  0  0  0  0  0  0  0  0  0  0  0
   -0.4444   -6.8463   33.8011 C   0  0  0  0  0  0  0  0  0  0  0  0
    0.1820   -6.5111   32.5945 C   0  0  0  0  0  0  0  0  0  0  0  0
   -0.3282   -7.0269   31.4085 C   0  0  0  0  0  0  0  0  0  0  0  0
   -1.3923   -7.8483   31.3484 N   0  0  0  0  0  0  0  0  0  0  0  0
   -1.9390   -8.1662   32.5404 C   0  0  0  0  0  0  0  0  0  0  0  0
   -3.2703   -9.1980   32.4336 Cl  0  0  0  0  0  0  0  0  0  0  0  0
   -1.5403   -7.6913   33.7663 C   0  0  0  0  0  0  0  0  0  0  0  0
   -2.2488   -7.9976   34.8649 F   0  0  0  0  0  0  0  0  0  0  0  0
  1  2  1  0
  2  3  2  0
  3  4  1  0
  3  5  1  0
  5  6  2  0
  6  7  1  0
  6  8  1  0
  8  9  2  0
  9 10  1  0
 10 11  1  0
 11 12  2  0
 11 13  1  0
 13 14  2  0
 14 15  1  0
 15 16  2  0
 16 17  1  0
 17 18  1  0
 17 19  2  0
 19 20  1  0
  9  2  1  0
 19 13  1  0
M  END
>  <ref_mols>  (127) 
7gov-a

>  <gnina_score>  (127) 
5.091

>  <smina_score_min>  (127) 
-5.929

>  <ref_pdb>  (127) 
7gov-a

>  <inspiration_score>  (127) 
None

>  <inchikey>  (127) 
FASWALMDMCVXNJ-UHFFFAOYSA-N

>  <tags>  (127) 
BulkDock Fragalysis export,openbind_d68ev3c_c2_elabs_scored,openbind_d68ev3c_c2_elabs_scored_4.5plus,openbind_d68ev3c_c2_elabs,openbind_d68ev3c_c2_elabs_scored_5plus,syndirella_product,openbind_d68ev3c_c2_elabs_scored_top80percent,syndirella_placed

>  <smiles>  (127) 
Cc1c(Br)cc(F)cc1NC(=O)c1ccnc(Cl)c1F

>  <subsites>  (127) 
None

>  <rmsd(smina/fragmenstein)>  (127) 
1.158

>  <alias>  (127) 
None

>  <energy_score>  (127) 
-13.812956

>  <HIPPO Pose ID>  (127) 
64349

>  <distance_score>  (127) 
0.672693

>  <HIPPO Compound ID>  (127) 
100679

>  <gnina_score_min>  (127) 
5.026

>  <name>  (127) 
P64349

>  <exports>  (127) 
['/opt/xchem-fragalysis-2/maxwin/BulkDock/OUTPUTS/openbind_d68ev3c_c2_elabs_1LOTQJ3.sdf', '/opt/xchem-fragalysis-2/maxwin/BulkDock/OUTPUTS/openbind_d68ev3c_c2_elabs_1LSYEHW.sdf', '/opt/xchem-fragalysis-2/maxwin/BulkDock/OUTPUTS/openbind_d68ev3c_c2_elabs_1LSYI5W.sdf']

$$$$
P64435
     RDKit          3D

 20 21  0  0  0  0  0  0  0  0999 V2000
    2.8864   -0.2697   36.1796 C   0  0  0  0  0  0  0  0  0  0  0  0
    3.4214   -1.6289   36.6058 C   0  0  0  0  0  0  0  0  0  0  0  0
    2.3157   -2.6507   36.7537 C   0  0  0  0  0  0  0  0  0  0  0  0
    1.7271   -2.7918   38.0229 C   0  0  0  0  0  0  0  0  0  0  0  0
    0.7459   -3.7465   38.2410 C   0  0  0  0  0  0  0  0  0  0  0  0
    0.1957   -3.8604   39.4577 F   0  0  0  0  0  0  0  0  0  0  0  0
    0.3256   -4.5779   37.2175 C   0  0  0  0  0  0  0  0  0  0  0  0
    0.8700   -4.4298   35.9400 C   0  0  0  0  0  0  0  0  0  0  0  0
    0.4114   -5.2638   34.9239 N   0  0  0  0  0  0  0  0  0  0  0  0
   -0.1698   -6.6903   34.9851 C   0  0  0  0  0  0  0  0  0  0  0  0
   -0.2847   -7.4204   35.8853 O   0  0  0  0  0  0  0  0  0  0  0  0
   -0.6734   -7.1601   33.6482 C   0  0  0  0  0  0  0  0  0  0  0  0
   -0.0240   -6.7656   32.4702 C   0  0  0  0  0  0  0  0  0  0  0  0
   -0.4951   -7.2285   31.2517 C   0  0  0  0  0  0  0  0  0  0  0  0
   -1.5427   -8.0653   31.1252 N   0  0  0  0  0  0  0  0  0  0  0  0
   -2.1184   -8.4731   32.2756 C   0  0  0  0  0  0  0  0  0  0  0  0
   -1.7479   -8.0481   33.5403 C   0  0  0  0  0  0  0  0  0  0  0  0
   -2.9730   -8.7423   35.0500 I   0  0  0  0  0  0  0  0  0  0  0  0
    1.8617   -3.4596   35.6812 C   0  0  0  0  0  0  0  0  0  0  0  0
    2.5515   -3.4174   34.3401 C   0  0  0  0  0  0  0  0  0  0  0  0
  1  2  1  0
  2  3  1  0
  3  4  2  0
  4  5  1  0
  5  6  1  0
  5  7  2  0
  7  8  1  0
  8  9  1  0
  9 10  1  0
 10 11  2  0
 10 12  1  0
 12 13  2  0
 13 14  1  0
 14 15  2  0
 15 16  1  0
 16 17  2  0
 17 18  1  0
  8 19  2  0
 19 20  1  0
 19  3  1  0
 17 12  1  0
M  END
>  <ref_mols>  (128) 
7gov-a

>  <gnina_score>  (128) 
5.161

>  <smina_score_min>  (128) 
-4.795

>  <ref_pdb>  (128) 
7gov-a

>  <inspiration_score>  (128) 
None

>  <inchikey>  (128) 
GSRTXRCWMSJULO-UHFFFAOYSA-N

>  <tags>  (128) 
BulkDock Fragalysis export,openbind_d68ev3c_c2_elabs_scored,openbind_d68ev3c_c2_elabs_scored_4.5plus,openbind_d68ev3c_c2_elabs,openbind_d68ev3c_c2_elabs_scored_5plus,syndirella_product,openbind_d68ev3c_c2_elabs_scored_top80percent,syndirella_placed

>  <smiles>  (128) 
CCc1cc(F)cc(NC(=O)c2ccncc2I)c1C

>  <subsites>  (128) 
None

>  <rmsd(smina/fragmenstein)>  (128) 
1.34

>  <alias>  (128) 
None

>  <energy_score>  (128) 
-8.420741

>  <HIPPO Pose ID>  (128) 
64435

>  <distance_score>  (128) 
0.536863

>  <HIPPO Compound ID>  (128) 
100826

>  <gnina_score_min>  (128) 
5.012

>  <name>  (128) 
P64435

>  <exports>  (128) 
['/opt/xchem-fragalysis-2/maxwin/BulkDock/OUTPUTS/openbind_d68ev3c_c2_elabs_1LOTQJ3.sdf', '/opt/xchem-fragalysis-2/maxwin/BulkDock/OUTPUTS/openbind_d68ev3c_c2_elabs_1LSYEHW.sdf', '/opt/xchem-fragalysis-2/maxwin/BulkDock/OUTPUTS/openbind_d68ev3c_c2_elabs_1LSYI5W.sdf']

$$$$
P64437
     RDKit          3D

 20 21  0  0  0  0  0  0  0  0999 V2000
    2.8915   -3.3370   33.2770 N   0  0  0  0  0  0  0  0  0  0  0  0
    2.4667   -3.4207   34.3545 C   0  0  0  0  0  0  0  0  0  0  0  0
    1.8840   -3.5090   35.6617 C   0  0  0  0  0  0  0  0  0  0  0  0
    2.3932   -2.7090   36.6974 C   0  0  0  0  0  0  0  0  0  0  0  0
    1.8761   -2.8148   37.9913 C   0  0  0  0  0  0  0  0  0  0  0  0
    0.8630   -3.7299   38.2513 C   0  0  0  0  0  0  0  0  0  0  0  0
    0.3449   -3.8017   39.4855 F   0  0  0  0  0  0  0  0  0  0  0  0
    0.3698   -4.5438   37.2384 C   0  0  0  0  0  0  0  0  0  0  0  0
   -0.6433   -5.3787   37.5167 F   0  0  0  0  0  0  0  0  0  0  0  0
    0.8642   -4.4313   35.9318 C   0  0  0  0  0  0  0  0  0  0  0  0
    0.3258   -5.2256   34.9178 N   0  0  0  0  0  0  0  0  0  0  0  0
   -0.0854   -6.7088   34.9217 C   0  0  0  0  0  0  0  0  0  0  0  0
   -0.1118   -7.4817   35.7910 O   0  0  0  0  0  0  0  0  0  0  0  0
   -0.6180   -7.1481   33.5938 C   0  0  0  0  0  0  0  0  0  0  0  0
    0.0095   -6.7289   32.4145 C   0  0  0  0  0  0  0  0  0  0  0  0
   -0.4831   -7.1807   31.2010 C   0  0  0  0  0  0  0  0  0  0  0  0
   -1.5338   -8.0180   31.0850 N   0  0  0  0  0  0  0  0  0  0  0  0
   -2.0932   -8.4369   32.2399 C   0  0  0  0  0  0  0  0  0  0  0  0
   -1.6990   -8.0278   33.4999 C   0  0  0  0  0  0  0  0  0  0  0  0
   -2.8988   -8.7139   35.0303 I   0  0  0  0  0  0  0  0  0  0  0  0
  1  2  3  0
  2  3  1  0
  3  4  2  0
  4  5  1  0
  5  6  2  0
  6  7  1  0
  6  8  1  0
  8  9  1  0
  8 10  2  0
 10 11  1  0
 11 12  1  0
 12 13  2  0
 12 14  1  0
 14 15  2  0
 15 16  1  0
 16 17  2  0
 17 18  1  0
 18 19  2  0
 19 20  1  0
 10  3  1  0
 19 14  1  0
M  END
>  <ref_mols>  (129) 
7gov-a

>  <gnina_score>  (129) 
5.208

>  <smina_score_min>  (129) 
-4.68

>  <ref_pdb>  (129) 
7gov-a

>  <inspiration_score>  (129) 
None

>  <inchikey>  (129) 
USOWWYPEIJEBGR-UHFFFAOYSA-N

>  <tags>  (129) 
BulkDock Fragalysis export,openbind_d68ev3c_c2_elabs_scored,openbind_d68ev3c_c2_elabs_scored_4.5plus,openbind_d68ev3c_c2_elabs,openbind_d68ev3c_c2_elabs_scored_5plus,syndirella_product,openbind_d68ev3c_c2_elabs_scored_top80percent,syndirella_placed

>  <smiles>  (129) 
N#Cc1ccc(F)c(F)c1NC(=O)c1ccncc1I

>  <subsites>  (129) 
None

>  <rmsd(smina/fragmenstein)>  (129) 
1.635

>  <alias>  (129) 
None

>  <energy_score>  (129) 
-2.592106

>  <HIPPO Pose ID>  (129) 
64437

>  <distance_score>  (129) 
0.507183

>  <HIPPO Compound ID>  (129) 
100830

>  <gnina_score_min>  (129) 
5.215

>  <name>  (129) 
P64437

>  <exports>  (129) 
['/opt/xchem-fragalysis-2/maxwin/BulkDock/OUTPUTS/openbind_d68ev3c_c2_elabs_1LOTQJ3.sdf', '/opt/xchem-fragalysis-2/maxwin/BulkDock/OUTPUTS/openbind_d68ev3c_c2_elabs_1LSYEHW.sdf', '/opt/xchem-fragalysis-2/maxwin/BulkDock/OUTPUTS/openbind_d68ev3c_c2_elabs_1LSYI5W.sdf']

$$$$
P64466
     RDKit          3D

 20 21  0  0  0  0  0  0  0  0999 V2000
    1.9061   -2.4743   33.5142 C   0  0  0  0  0  0  0  0  0  0  0  0
    2.5198   -3.5661   34.3927 C   0  0  0  0  0  0  0  0  0  0  0  0
    4.0427   -3.4006   34.4723 C   0  0  0  0  0  0  0  0  0  0  0  0
    1.8312   -3.5950   35.7529 C   0  0  0  0  0  0  0  0  0  0  0  0
    2.2376   -2.7131   36.7733 C   0  0  0  0  0  0  0  0  0  0  0  0
    1.6776   -2.7817   38.0497 C   0  0  0  0  0  0  0  0  0  0  0  0
    0.7050   -3.7314   38.3190 C   0  0  0  0  0  0  0  0  0  0  0  0
    0.1620   -3.7899   39.5426 F   0  0  0  0  0  0  0  0  0  0  0  0
    0.2730   -4.6079   37.3348 C   0  0  0  0  0  0  0  0  0  0  0  0
    0.8183   -4.5310   36.0504 C   0  0  0  0  0  0  0  0  0  0  0  0
    0.3360   -5.3824   35.0603 N   0  0  0  0  0  0  0  0  0  0  0  0
   -0.3776   -6.7476   35.1715 C   0  0  0  0  0  0  0  0  0  0  0  0
   -0.6040   -7.4079   36.1056 O   0  0  0  0  0  0  0  0  0  0  0  0
   -0.8310   -7.2711   33.8312 C   0  0  0  0  0  0  0  0  0  0  0  0
   -0.1510   -6.9198   32.6539 C   0  0  0  0  0  0  0  0  0  0  0  0
   -0.6007   -7.4088   31.4387 C   0  0  0  0  0  0  0  0  0  0  0  0
   -1.6546   -8.2355   31.3149 N   0  0  0  0  0  0  0  0  0  0  0  0
   -2.2602   -8.6059   32.4667 C   0  0  0  0  0  0  0  0  0  0  0  0
   -1.9120   -8.1623   33.7382 C   0  0  0  0  0  0  0  0  0  0  0  0
   -2.9751   -8.7135   35.0563 S   0  0  0  0  0  0  0  0  0  0  0  0
  1  2  1  0
  2  3  1  0
  2  4  1  0
  4  5  2  0
  5  6  1  0
  6  7  2  0
  7  8  1  0
  7  9  1  0
  9 10  2  0
 10 11  1  0
 11 12  1  0
 12 13  2  0
 12 14  1  0
 14 15  2  0
 15 16  1  0
 16 17  2  0
 17 18  1  0
 18 19  2  0
 19 20  1  0
 10  4  1  0
 19 14  1  0
M  END
>  <ref_mols>  (130) 
7gov-a

>  <gnina_score>  (130) 
5.122

>  <smina_score_min>  (130) 
-5.282

>  <ref_pdb>  (130) 
7gov-a

>  <inspiration_score>  (130) 
None

>  <inchikey>  (130) 
CQIQBYHHEVLURM-UHFFFAOYSA-N

>  <tags>  (130) 
BulkDock Fragalysis export,openbind_d68ev3c_c2_elabs_scored,openbind_d68ev3c_c2_elabs_scored_4.5plus,openbind_d68ev3c_c2_elabs,openbind_d68ev3c_c2_elabs_scored_5plus,syndirella_product,openbind_d68ev3c_c2_elabs_scored_top80percent,syndirella_placed

>  <smiles>  (130) 
CC(C)c1ccc(F)cc1NC(=O)c1ccncc1S

>  <subsites>  (130) 
None

>  <rmsd(smina/fragmenstein)>  (130) 
0.925

>  <alias>  (130) 
None

>  <energy_score>  (130) 
-29.765173

>  <HIPPO Pose ID>  (130) 
64466

>  <distance_score>  (130) 
0.604047

>  <HIPPO Compound ID>  (130) 
100881

>  <gnina_score_min>  (130) 
5.108

>  <name>  (130) 
P64466

>  <exports>  (130) 
['/opt/xchem-fragalysis-2/maxwin/BulkDock/OUTPUTS/openbind_d68ev3c_c2_elabs_1LOTQJ3.sdf', '/opt/xchem-fragalysis-2/maxwin/BulkDock/OUTPUTS/openbind_d68ev3c_c2_elabs_1LSYEHW.sdf', '/opt/xchem-fragalysis-2/maxwin/BulkDock/OUTPUTS/openbind_d68ev3c_c2_elabs_1LSYI5W.sdf']

$$$$
P64468
     RDKit          3D

 20 21  0  0  0  0  0  0  0  0999 V2000
    2.5436   -3.6427   34.4172 C   0  0  0  0  0  0  0  0  0  0  0  0
    1.8728   -3.6276   35.7692 C   0  0  0  0  0  0  0  0  0  0  0  0
    2.3580   -2.8193   36.8228 C   0  0  0  0  0  0  0  0  0  0  0  0
    3.4644   -1.9208   36.6464 C   0  0  0  0  0  0  0  0  0  0  0  0
    4.3460   -1.1778   36.5074 N   0  0  0  0  0  0  0  0  0  0  0  0
    1.7721   -2.8815   38.0936 C   0  0  0  0  0  0  0  0  0  0  0  0
    0.7338   -3.7678   38.3300 C   0  0  0  0  0  0  0  0  0  0  0  0
    0.1747   -3.8162   39.5460 F   0  0  0  0  0  0  0  0  0  0  0  0
    0.2678   -4.6031   37.3277 C   0  0  0  0  0  0  0  0  0  0  0  0
    0.8278   -4.5313   36.0501 C   0  0  0  0  0  0  0  0  0  0  0  0
    0.3489   -5.3829   35.0582 N   0  0  0  0  0  0  0  0  0  0  0  0
   -0.3637   -6.7490   35.1670 C   0  0  0  0  0  0  0  0  0  0  0  0
   -0.5919   -7.4096   36.1000 O   0  0  0  0  0  0  0  0  0  0  0  0
   -0.8208   -7.2706   33.8270 C   0  0  0  0  0  0  0  0  0  0  0  0
   -0.1429   -6.9192   32.6486 C   0  0  0  0  0  0  0  0  0  0  0  0
   -0.5967   -7.4063   31.4339 C   0  0  0  0  0  0  0  0  0  0  0  0
   -1.6528   -8.2300   31.3116 N   0  0  0  0  0  0  0  0  0  0  0  0
   -2.2569   -8.6005   32.4646 C   0  0  0  0  0  0  0  0  0  0  0  0
   -1.9044   -8.1590   33.7357 C   0  0  0  0  0  0  0  0  0  0  0  0
   -2.9688   -8.7060   35.0531 S   0  0  0  0  0  0  0  0  0  0  0  0
  1  2  1  0
  2  3  2  0
  3  4  1  0
  4  5  3  0
  3  6  1  0
  6  7  2  0
  7  8  1  0
  7  9  1  0
  9 10  2  0
 10 11  1  0
 11 12  1  0
 12 13  2  0
 12 14  1  0
 14 15  2  0
 15 16  1  0
 16 17  2  0
 17 18  1  0
 18 19  2  0
 19 20  1  0
 10  2  1  0
 19 14  1  0
M  END
>  <ref_mols>  (131) 
7gov-a

>  <gnina_score>  (131) 
5.026

>  <smina_score_min>  (131) 
-5.317

>  <ref_pdb>  (131) 
7gov-a

>  <inspiration_score>  (131) 
None

>  <inchikey>  (131) 
QYIWPUKGTNTWKG-UHFFFAOYSA-N

>  <tags>  (131) 
BulkDock Fragalysis export,openbind_d68ev3c_c2_elabs_scored,openbind_d68ev3c_c2_elabs_scored_4.5plus,openbind_d68ev3c_c2_elabs,openbind_d68ev3c_c2_elabs_scored_5plus,syndirella_product,openbind_d68ev3c_c2_elabs_scored_top80percent,syndirella_placed

>  <smiles>  (131) 
Cc1c(C#N)cc(F)cc1NC(=O)c1ccncc1S

>  <subsites>  (131) 
None

>  <rmsd(smina/fragmenstein)>  (131) 
1.05

>  <alias>  (131) 
None

>  <energy_score>  (131) 
-13.287284

>  <HIPPO Pose ID>  (131) 
64468

>  <distance_score>  (131) 
0.581501

>  <HIPPO Compound ID>  (131) 
100886

>  <gnina_score_min>  (131) 
5.03

>  <name>  (131) 
P64468

>  <exports>  (131) 
['/opt/xchem-fragalysis-2/maxwin/BulkDock/OUTPUTS/openbind_d68ev3c_c2_elabs_1LOTQJ3.sdf', '/opt/xchem-fragalysis-2/maxwin/BulkDock/OUTPUTS/openbind_d68ev3c_c2_elabs_1LSYEHW.sdf', '/opt/xchem-fragalysis-2/maxwin/BulkDock/OUTPUTS/openbind_d68ev3c_c2_elabs_1LSYI5W.sdf']

$$$$
P64470
     RDKit          3D

 20 21  0  0  0  0  0  0  0  0999 V2000
    3.0592   -3.6062   33.0360 N   0  0  0  0  0  0  0  0  0  0  0  0
    2.6771   -3.5900   34.1327 C   0  0  0  0  0  0  0  0  0  0  0  0
    2.1512   -3.5411   35.4661 C   0  0  0  0  0  0  0  0  0  0  0  0
    2.7807   -2.7124   36.4104 C   0  0  0  0  0  0  0  0  0  0  0  0
    2.3218   -2.6641   37.7256 C   0  0  0  0  0  0  0  0  0  0  0  0
    1.2388   -3.4462   38.0954 C   0  0  0  0  0  0  0  0  0  0  0  0
    0.7763   -3.3518   39.3535 F   0  0  0  0  0  0  0  0  0  0  0  0
    0.6123   -4.2850   37.1706 C   0  0  0  0  0  0  0  0  0  0  0  0
   -0.9368   -5.1607   37.7776 Br  0  0  0  0  0  0  0  0  0  0  0  0
    1.0610   -4.3442   35.8400 C   0  0  0  0  0  0  0  0  0  0  0  0
    0.4421   -5.1516   34.8712 N   0  0  0  0  0  0  0  0  0  0  0  0
    0.0638   -6.6495   34.9060 C   0  0  0  0  0  0  0  0  0  0  0  0
    0.1370   -7.4274   35.7716 O   0  0  0  0  0  0  0  0  0  0  0  0
   -0.5615   -7.1067   33.6274 C   0  0  0  0  0  0  0  0  0  0  0  0
    0.0087   -6.7321   32.4054 C   0  0  0  0  0  0  0  0  0  0  0  0
   -0.5451   -7.2275   31.2373 C   0  0  0  0  0  0  0  0  0  0  0  0
   -1.6091   -8.0566   31.2056 N   0  0  0  0  0  0  0  0  0  0  0  0
   -2.1219   -8.4205   32.4043 C   0  0  0  0  0  0  0  0  0  0  0  0
   -1.6602   -7.9779   33.6370 C   0  0  0  0  0  0  0  0  0  0  0  0
   -2.6046   -8.4837   35.0524 S   0  0  0  0  0  0  0  0  0  0  0  0
  1  2  3  0
  2  3  1  0
  3  4  2  0
  4  5  1  0
  5  6  2  0
  6  7  1  0
  6  8  1  0
  8  9  1  0
  8 10  2  0
 10 11  1  0
 11 12  1  0
 12 13  2  0
 12 14  1  0
 14 15  2  0
 15 16  1  0
 16 17  2  0
 17 18  1  0
 18 19  2  0
 19 20  1  0
 10  3  1  0
 19 14  1  0
M  END
>  <ref_mols>  (132) 
7gov-a

>  <gnina_score>  (132) 
5.253

>  <smina_score_min>  (132) 
-4.532

>  <ref_pdb>  (132) 
7gov-a

>  <inspiration_score>  (132) 
None

>  <inchikey>  (132) 
YFFUAWQDGOQESD-UHFFFAOYSA-N

>  <tags>  (132) 
BulkDock Fragalysis export,openbind_d68ev3c_c2_elabs_scored,openbind_d68ev3c_c2_elabs_scored_4.5plus,openbind_d68ev3c_c2_elabs,openbind_d68ev3c_c2_elabs_scored_5plus,syndirella_product,openbind_d68ev3c_c2_elabs_scored_top80percent,syndirella_placed

>  <smiles>  (132) 
N#Cc1ccc(F)c(Br)c1NC(=O)c1ccncc1S

>  <subsites>  (132) 
None

>  <rmsd(smina/fragmenstein)>  (132) 
0.441

>  <alias>  (132) 
None

>  <energy_score>  (132) 
-4.701024

>  <HIPPO Pose ID>  (132) 
64470

>  <distance_score>  (132) 
0.556325

>  <HIPPO Compound ID>  (132) 
100889

>  <gnina_score_min>  (132) 
5.07

>  <name>  (132) 
P64470

>  <exports>  (132) 
['/opt/xchem-fragalysis-2/maxwin/BulkDock/OUTPUTS/openbind_d68ev3c_c2_elabs_1LOTQJ3.sdf', '/opt/xchem-fragalysis-2/maxwin/BulkDock/OUTPUTS/openbind_d68ev3c_c2_elabs_1LSYEHW.sdf', '/opt/xchem-fragalysis-2/maxwin/BulkDock/OUTPUTS/openbind_d68ev3c_c2_elabs_1LSYI5W.sdf']

$$$$
P64471
     RDKit          3D

 20 21  0  0  0  0  0  0  0  0999 V2000
   -0.6772   -7.3425   36.1018 O   0  0  0  0  0  0  0  0  0  0  0  0
   -0.3965   -6.7084   35.1638 C   0  0  0  0  0  0  0  0  0  0  0  0
    0.2904   -5.3277   35.0574 N   0  0  0  0  0  0  0  0  0  0  0  0
    0.8389   -4.5148   36.0411 C   0  0  0  0  0  0  0  0  0  0  0  0
    0.3098   -4.5790   37.3358 C   0  0  0  0  0  0  0  0  0  0  0  0
    0.8118   -3.7498   38.3295 C   0  0  0  0  0  0  0  0  0  0  0  0
    0.2735   -3.7907   39.5565 F   0  0  0  0  0  0  0  0  0  0  0  0
    1.8465   -2.8723   38.0481 C   0  0  0  0  0  0  0  0  0  0  0  0
    2.3296   -2.0651   39.0035 F   0  0  0  0  0  0  0  0  0  0  0  0
    2.3842   -2.8066   36.7653 C   0  0  0  0  0  0  0  0  0  0  0  0
    1.8915   -3.6325   35.7365 C   0  0  0  0  0  0  0  0  0  0  0  0
    2.5193   -3.5014   34.3700 C   0  0  0  0  0  0  0  0  0  0  0  0
    2.4295   -4.6834   33.5839 O   0  0  0  0  0  0  0  0  0  0  0  0
   -0.8247   -7.2590   33.8202 C   0  0  0  0  0  0  0  0  0  0  0  0
   -0.1545   -6.9127   32.6364 C   0  0  0  0  0  0  0  0  0  0  0  0
   -0.6023   -7.4150   31.4251 C   0  0  0  0  0  0  0  0  0  0  0  0
   -1.6467   -8.2534   31.3076 N   0  0  0  0  0  0  0  0  0  0  0  0
   -2.2473   -8.6181   32.4627 C   0  0  0  0  0  0  0  0  0  0  0  0
   -1.9003   -8.1613   33.7307 C   0  0  0  0  0  0  0  0  0  0  0  0
   -2.9692   -8.7165   35.0448 S   0  0  0  0  0  0  0  0  0  0  0  0
  1  2  2  0
  2  3  1  0
  3  4  1  0
  4  5  2  0
  5  6  1  0
  6  7  1  0
  6  8  2  0
  8  9  1  0
  8 10  1  0
 10 11  2  0
 11 12  1  0
 12 13  1  0
  2 14  1  0
 14 15  2  0
 15 16  1  0
 16 17  2  0
 17 18  1  0
 18 19  2  0
 19 20  1  0
 11  4  1  0
 19 14  1  0
M  END
>  <ref_mols>  (133) 
7gov-a

>  <gnina_score>  (133) 
4.964

>  <smina_score_min>  (133) 
-5.575

>  <ref_pdb>  (133) 
7gov-a

>  <inspiration_score>  (133) 
None

>  <inchikey>  (133) 
NVIHVCJXTGPZHH-UHFFFAOYSA-N

>  <tags>  (133) 
BulkDock Fragalysis export,openbind_d68ev3c_c2_elabs_scored,openbind_d68ev3c_c2_elabs_scored_4.5plus,openbind_d68ev3c_c2_elabs,openbind_d68ev3c_c2_elabs_scored_5plus,syndirella_product,openbind_d68ev3c_c2_elabs_scored_top80percent,syndirella_placed

>  <smiles>  (133) 
O=C(Nc1cc(F)c(F)cc1CO)c1ccncc1S

>  <subsites>  (133) 
None

>  <rmsd(smina/fragmenstein)>  (133) 
0.997

>  <alias>  (133) 
None

>  <energy_score>  (133) 
-23.830453

>  <HIPPO Pose ID>  (133) 
64471

>  <distance_score>  (133) 
0.604504

>  <HIPPO Compound ID>  (133) 
100890

>  <gnina_score_min>  (133) 
5.01

>  <name>  (133) 
P64471

>  <exports>  (133) 
['/opt/xchem-fragalysis-2/maxwin/BulkDock/OUTPUTS/openbind_d68ev3c_c2_elabs_1LOTQJ3.sdf', '/opt/xchem-fragalysis-2/maxwin/BulkDock/OUTPUTS/openbind_d68ev3c_c2_elabs_1LSYEHW.sdf', '/opt/xchem-fragalysis-2/maxwin/BulkDock/OUTPUTS/openbind_d68ev3c_c2_elabs_1LSYI5W.sdf']

$$$$
P64486
     RDKit          3D

 20 21  0  0  0  0  0  0  0  0999 V2000
    2.9704   -0.4728   35.9584 C   0  0  0  0  0  0  0  0  0  0  0  0
    3.4463   -1.7775   36.5805 C   0  0  0  0  0  0  0  0  0  0  0  0
    2.3130   -2.7584   36.7815 C   0  0  0  0  0  0  0  0  0  0  0  0
    1.7478   -2.8385   38.0674 C   0  0  0  0  0  0  0  0  0  0  0  0
    0.7267   -3.7379   38.3365 C   0  0  0  0  0  0  0  0  0  0  0  0
    0.2013   -3.7902   39.5680 F   0  0  0  0  0  0  0  0  0  0  0  0
    0.2362   -4.5712   37.3477 C   0  0  0  0  0  0  0  0  0  0  0  0
    0.7590   -4.4876   36.0568 C   0  0  0  0  0  0  0  0  0  0  0  0
    0.2090   -5.3058   35.0727 N   0  0  0  0  0  0  0  0  0  0  0  0
   -0.3896   -6.7269   35.1685 C   0  0  0  0  0  0  0  0  0  0  0  0
   -0.5856   -7.4032   36.0983 O   0  0  0  0  0  0  0  0  0  0  0  0
   -0.8242   -7.2618   33.8281 C   0  0  0  0  0  0  0  0  0  0  0  0
   -0.1431   -6.9074   32.6533 C   0  0  0  0  0  0  0  0  0  0  0  0
   -0.5889   -7.4004   31.4379 C   0  0  0  0  0  0  0  0  0  0  0  0
   -1.6386   -8.2329   31.3122 N   0  0  0  0  0  0  0  0  0  0  0  0
   -2.2445   -8.6058   32.4629 C   0  0  0  0  0  0  0  0  0  0  0  0
   -1.9006   -8.1591   33.7342 C   0  0  0  0  0  0  0  0  0  0  0  0
   -2.9648   -8.7101   35.0518 S   0  0  0  0  0  0  0  0  0  0  0  0
    1.8036   -3.5853   35.7499 C   0  0  0  0  0  0  0  0  0  0  0  0
    2.4109   -3.6032   34.3693 C   0  0  0  0  0  0  0  0  0  0  0  0
  1  2  1  0
  2  3  1  0
  3  4  2  0
  4  5  1  0
  5  6  1  0
  5  7  2  0
  7  8  1  0
  8  9  1  0
  9 10  1  0
 10 11  2  0
 10 12  1  0
 12 13  2  0
 13 14  1  0
 14 15  2  0
 15 16  1  0
 16 17  2  0
 17 18  1  0
  8 19  2  0
 19 20  1  0
 19  3  1  0
 17 12  1  0
M  END
>  <ref_mols>  (134) 
7gov-a

>  <gnina_score>  (134) 
5.111

>  <smina_score_min>  (134) 
-5.312

>  <ref_pdb>  (134) 
7gov-a

>  <inspiration_score>  (134) 
None

>  <inchikey>  (134) 
ZUXCXJWSTPGHJP-UHFFFAOYSA-N

>  <tags>  (134) 
BulkDock Fragalysis export,openbind_d68ev3c_c2_elabs_scored,openbind_d68ev3c_c2_elabs_scored_4.5plus,openbind_d68ev3c_c2_elabs,openbind_d68ev3c_c2_elabs_scored_5plus,syndirella_product,openbind_d68ev3c_c2_elabs_scored_top80percent,syndirella_placed

>  <smiles>  (134) 
CCc1cc(F)cc(NC(=O)c2ccncc2S)c1C

>  <subsites>  (134) 
None

>  <rmsd(smina/fragmenstein)>  (134) 
1.004

>  <alias>  (134) 
None

>  <energy_score>  (134) 
-24.325091

>  <HIPPO Pose ID>  (134) 
64486

>  <distance_score>  (134) 
0.592914

>  <HIPPO Compound ID>  (134) 
100922

>  <gnina_score_min>  (134) 
5.113

>  <name>  (134) 
P64486

>  <exports>  (134) 
['/opt/xchem-fragalysis-2/maxwin/BulkDock/OUTPUTS/openbind_d68ev3c_c2_elabs_1LOTQJ3.sdf', '/opt/xchem-fragalysis-2/maxwin/BulkDock/OUTPUTS/openbind_d68ev3c_c2_elabs_1LSYEHW.sdf', '/opt/xchem-fragalysis-2/maxwin/BulkDock/OUTPUTS/openbind_d68ev3c_c2_elabs_1LSYI5W.sdf']

$$$$
P64488
     RDKit          3D

 20 21  0  0  0  0  0  0  0  0999 V2000
    3.0346   -2.6434   33.9089 O   0  0  0  0  0  0  0  0  0  0  0  0
    2.5768   -3.6439   34.4446 C   0  0  0  0  0  0  0  0  0  0  0  0
    1.9009   -3.6171   35.7522 C   0  0  0  0  0  0  0  0  0  0  0  0
    2.3746   -2.7683   36.7554 C   0  0  0  0  0  0  0  0  0  0  0  0
    3.3841   -1.9167   36.5239 F   0  0  0  0  0  0  0  0  0  0  0  0
    1.8269   -2.8011   38.0334 C   0  0  0  0  0  0  0  0  0  0  0  0
    0.8114   -3.7047   38.3080 C   0  0  0  0  0  0  0  0  0  0  0  0
    0.2698   -3.7370   39.5325 F   0  0  0  0  0  0  0  0  0  0  0  0
    0.3330   -4.5678   37.3275 C   0  0  0  0  0  0  0  0  0  0  0  0
    0.8649   -4.5177   36.0349 C   0  0  0  0  0  0  0  0  0  0  0  0
    0.2974   -5.3315   35.0535 N   0  0  0  0  0  0  0  0  0  0  0  0
   -0.3618   -6.7247   35.1630 C   0  0  0  0  0  0  0  0  0  0  0  0
   -0.6019   -7.3750   36.1004 O   0  0  0  0  0  0  0  0  0  0  0  0
   -0.8109   -7.2583   33.8238 C   0  0  0  0  0  0  0  0  0  0  0  0
   -0.1360   -6.9052   32.6444 C   0  0  0  0  0  0  0  0  0  0  0  0
   -0.5886   -7.3973   31.4308 C   0  0  0  0  0  0  0  0  0  0  0  0
   -1.6398   -8.2281   31.3113 N   0  0  0  0  0  0  0  0  0  0  0  0
   -2.2417   -8.5993   32.4641 C   0  0  0  0  0  0  0  0  0  0  0  0
   -1.8912   -8.1526   33.7340 C   0  0  0  0  0  0  0  0  0  0  0  0
   -2.9552   -8.7023   35.0524 S   0  0  0  0  0  0  0  0  0  0  0  0
  1  2  2  0
  2  3  1  0
  3  4  2  0
  4  5  1  0
  4  6  1  0
  6  7  2  0
  7  8  1  0
  7  9  1  0
  9 10  2  0
 10 11  1  0
 11 12  1  0
 12 13  2  0
 12 14  1  0
 14 15  2  0
 15 16  1  0
 16 17  2  0
 17 18  1  0
 18 19  2  0
 19 20  1  0
 10  3  1  0
 19 14  1  0
M  END
>  <ref_mols>  (135) 
7gov-a

>  <gnina_score>  (135) 
5.032

>  <smina_score_min>  (135) 
-5.37

>  <ref_pdb>  (135) 
7gov-a

>  <inspiration_score>  (135) 
None

>  <inchikey>  (135) 
DTQZVDRBFGENQR-UHFFFAOYSA-N

>  <tags>  (135) 
BulkDock Fragalysis export,openbind_d68ev3c_c2_elabs_scored,openbind_d68ev3c_c2_elabs_scored_4.5plus,openbind_d68ev3c_c2_elabs,openbind_d68ev3c_c2_elabs_scored_5plus,syndirella_product,openbind_d68ev3c_c2_elabs_scored_top80percent,syndirella_placed

>  <smiles>  (135) 
O=Cc1c(F)cc(F)cc1NC(=O)c1ccncc1S

>  <subsites>  (135) 
None

>  <rmsd(smina/fragmenstein)>  (135) 
1.007

>  <alias>  (135) 
None

>  <energy_score>  (135) 
-30.910222

>  <HIPPO Pose ID>  (135) 
64488

>  <distance_score>  (135) 
0.585419

>  <HIPPO Compound ID>  (135) 
100924

>  <gnina_score_min>  (135) 
5.024

>  <name>  (135) 
P64488

>  <exports>  (135) 
['/opt/xchem-fragalysis-2/maxwin/BulkDock/OUTPUTS/openbind_d68ev3c_c2_elabs_1LOTQJ3.sdf', '/opt/xchem-fragalysis-2/maxwin/BulkDock/OUTPUTS/openbind_d68ev3c_c2_elabs_1LSYEHW.sdf', '/opt/xchem-fragalysis-2/maxwin/BulkDock/OUTPUTS/openbind_d68ev3c_c2_elabs_1LSYI5W.sdf']

$$$$
P64512
     RDKit          3D

 20 21  0  0  0  0  0  0  0  0999 V2000
    2.9426   -3.4628   33.3540 C   0  0  0  0  0  0  0  0  0  0  0  0
    2.4420   -3.5193   34.4442 C   0  0  0  0  0  0  0  0  0  0  0  0
    1.8457   -3.5847   35.7486 C   0  0  0  0  0  0  0  0  0  0  0  0
    2.3254   -2.7343   36.7500 C   0  0  0  0  0  0  0  0  0  0  0  0
    1.7954   -2.8152   38.0336 C   0  0  0  0  0  0  0  0  0  0  0  0
    2.2491   -1.9848   38.9836 F   0  0  0  0  0  0  0  0  0  0  0  0
    0.7975   -3.7353   38.3284 C   0  0  0  0  0  0  0  0  0  0  0  0
    0.2705   -3.7871   39.5598 F   0  0  0  0  0  0  0  0  0  0  0  0
    0.3248   -4.6006   37.3486 C   0  0  0  0  0  0  0  0  0  0  0  0
    0.8446   -4.5256   36.0535 C   0  0  0  0  0  0  0  0  0  0  0  0
    0.3677   -5.3846   35.0653 N   0  0  0  0  0  0  0  0  0  0  0  0
   -0.3881   -6.7264   35.1818 C   0  0  0  0  0  0  0  0  0  0  0  0
   -0.6619   -7.3601   36.1215 O   0  0  0  0  0  0  0  0  0  0  0  0
   -0.8286   -7.2633   33.8385 C   0  0  0  0  0  0  0  0  0  0  0  0
   -0.1458   -6.9175   32.6608 C   0  0  0  0  0  0  0  0  0  0  0  0
   -0.5929   -7.4091   31.4450 C   0  0  0  0  0  0  0  0  0  0  0  0
   -1.6460   -8.2361   31.3192 N   0  0  0  0  0  0  0  0  0  0  0  0
   -2.2532   -8.6046   32.4702 C   0  0  0  0  0  0  0  0  0  0  0  0
   -1.9087   -8.1574   33.7423 C   0  0  0  0  0  0  0  0  0  0  0  0
   -2.9782   -8.7140   35.0542 S   0  0  0  0  0  0  0  0  0  0  0  0
  1  2  3  0
  2  3  1  0
  3  4  2  0
  4  5  1  0
  5  6  1  0
  5  7  2  0
  7  8  1  0
  7  9  1  0
  9 10  2  0
 10 11  1  0
 11 12  1  0
 12 13  2  0
 12 14  1  0
 14 15  2  0
 15 16  1  0
 16 17  2  0
 17 18  1  0
 18 19  2  0
 19 20  1  0
 10  3  1  0
 19 14  1  0
M  END
>  <ref_mols>  (136) 
7gov-a

>  <gnina_score>  (136) 
5.146

>  <smina_score_min>  (136) 
-5.372

>  <ref_pdb>  (136) 
7gov-a

>  <inspiration_score>  (136) 
None

>  <inchikey>  (136) 
UMMLFLCDIYHEDU-UHFFFAOYSA-N

>  <tags>  (136) 
BulkDock Fragalysis export,openbind_d68ev3c_c2_elabs_scored,openbind_d68ev3c_c2_elabs_scored_4.5plus,openbind_d68ev3c_c2_elabs,openbind_d68ev3c_c2_elabs_scored_5plus,syndirella_product,openbind_d68ev3c_c2_elabs_scored_top80percent,syndirella_placed

>  <smiles>  (136) 
C#Cc1cc(F)c(F)cc1NC(=O)c1ccncc1S

>  <subsites>  (136) 
None

>  <rmsd(smina/fragmenstein)>  (136) 
1.094

>  <alias>  (136) 
None

>  <energy_score>  (136) 
-14.159705

>  <HIPPO Pose ID>  (136) 
64512

>  <distance_score>  (136) 
0.618802

>  <HIPPO Compound ID>  (136) 
100967

>  <gnina_score_min>  (136) 
5.113

>  <name>  (136) 
P64512

>  <exports>  (136) 
['/opt/xchem-fragalysis-2/maxwin/BulkDock/OUTPUTS/openbind_d68ev3c_c2_elabs_1LOTQJ3.sdf', '/opt/xchem-fragalysis-2/maxwin/BulkDock/OUTPUTS/openbind_d68ev3c_c2_elabs_1LSYEHW.sdf', '/opt/xchem-fragalysis-2/maxwin/BulkDock/OUTPUTS/openbind_d68ev3c_c2_elabs_1LSYI5W.sdf']

$$$$
P64515
     RDKit          3D

 20 21  0  0  0  0  0  0  0  0999 V2000
    0.9484   -7.4399   35.2272 O   0  0  0  0  0  0  0  0  0  0  0  0
    0.2052   -6.6771   34.7561 C   0  0  0  0  0  0  0  0  0  0  0  0
   -0.0542   -5.1993   35.0936 N   0  0  0  0  0  0  0  0  0  0  0  0
    0.4592   -4.4030   36.1065 C   0  0  0  0  0  0  0  0  0  0  0  0
   -0.3796   -4.0630   37.1647 C   0  0  0  0  0  0  0  0  0  0  0  0
    0.1418   -3.3674   38.2510 C   0  0  0  0  0  0  0  0  0  0  0  0
   -0.6449   -3.1508   39.3137 F   0  0  0  0  0  0  0  0  0  0  0  0
    1.4574   -2.9212   38.2498 C   0  0  0  0  0  0  0  0  0  0  0  0
    2.1470   -1.9387   39.7104 Br  0  0  0  0  0  0  0  0  0  0  0  0
    2.2800   -3.2135   37.1675 C   0  0  0  0  0  0  0  0  0  0  0  0
    1.8158   -4.0184   36.1086 C   0  0  0  0  0  0  0  0  0  0  0  0
    2.7652   -4.3747   34.9853 C   0  0  0  0  0  0  0  0  0  0  0  0
    4.1247   -4.3981   35.4173 O   0  0  0  0  0  0  0  0  0  0  0  0
   -0.5731   -7.1118   33.5789 C   0  0  0  0  0  0  0  0  0  0  0  0
   -0.0591   -6.7529   32.3293 C   0  0  0  0  0  0  0  0  0  0  0  0
   -0.6558   -7.2830   31.2041 C   0  0  0  0  0  0  0  0  0  0  0  0
   -1.7137   -8.1199   31.2513 N   0  0  0  0  0  0  0  0  0  0  0  0
   -2.1747   -8.4519   32.4834 C   0  0  0  0  0  0  0  0  0  0  0  0
   -1.6592   -7.9731   33.6789 C   0  0  0  0  0  0  0  0  0  0  0  0
   -2.4752   -8.3938   35.1809 S   0  0  0  0  0  0  0  0  0  0  0  0
  1  2  2  0
  2  3  1  0
  3  4  1  0
  4  5  2  0
  5  6  1  0
  6  7  1  0
  6  8  2  0
  8  9  1  0
  8 10  1  0
 10 11  2  0
 11 12  1  0
 12 13  1  0
  2 14  1  0
 14 15  2  0
 15 16  1  0
 16 17  2  0
 17 18  1  0
 18 19  2  0
 19 20  1  0
 11  4  1  0
 19 14  1  0
M  END
>  <ref_mols>  (137) 
7gov-a

>  <gnina_score>  (137) 
4.97

>  <smina_score_min>  (137) 
-5.735

>  <ref_pdb>  (137) 
7gov-a

>  <inspiration_score>  (137) 
None

>  <inchikey>  (137) 
XBXNGIYBNYTRKE-UHFFFAOYSA-N

>  <tags>  (137) 
BulkDock Fragalysis export,openbind_d68ev3c_c2_elabs_scored,openbind_d68ev3c_c2_elabs_scored_4.5plus,openbind_d68ev3c_c2_elabs,openbind_d68ev3c_c2_elabs_scored_5plus,syndirella_product,openbind_d68ev3c_c2_elabs_scored_top80percent,syndirella_placed

>  <smiles>  (137) 
O=C(Nc1cc(F)c(Br)cc1CO)c1ccncc1S

>  <subsites>  (137) 
None

>  <rmsd(smina/fragmenstein)>  (137) 
0.804

>  <alias>  (137) 
None

>  <energy_score>  (137) 
-3.42027

>  <HIPPO Pose ID>  (137) 
64515

>  <distance_score>  (137) 
0.428236

>  <HIPPO Compound ID>  (137) 
100970

>  <gnina_score_min>  (137) 
5.045

>  <name>  (137) 
P64515

>  <exports>  (137) 
['/opt/xchem-fragalysis-2/maxwin/BulkDock/OUTPUTS/openbind_d68ev3c_c2_elabs_1LOTQJ3.sdf', '/opt/xchem-fragalysis-2/maxwin/BulkDock/OUTPUTS/openbind_d68ev3c_c2_elabs_1LSYEHW.sdf', '/opt/xchem-fragalysis-2/maxwin/BulkDock/OUTPUTS/openbind_d68ev3c_c2_elabs_1LSYI5W.sdf']

$$$$
P64517
     RDKit          3D

 20 21  0  0  0  0  0  0  0  0999 V2000
    1.9369   -4.0372   33.4494 O   0  0  0  0  0  0  0  0  0  0  0  0
    2.4680   -3.5499   34.4424 C   0  0  0  0  0  0  0  0  0  0  0  0
    1.8572   -3.6229   35.7897 C   0  0  0  0  0  0  0  0  0  0  0  0
    2.4071   -2.8278   36.8031 C   0  0  0  0  0  0  0  0  0  0  0  0
    1.8771   -2.8956   38.0929 C   0  0  0  0  0  0  0  0  0  0  0  0
    2.6182   -1.8148   39.4570 Br  0  0  0  0  0  0  0  0  0  0  0  0
    0.8142   -3.7530   38.3683 C   0  0  0  0  0  0  0  0  0  0  0  0
    0.2765   -3.8073   39.5957 F   0  0  0  0  0  0  0  0  0  0  0  0
    0.2830   -4.5647   37.3720 C   0  0  0  0  0  0  0  0  0  0  0  0
    0.8004   -4.5009   36.0767 C   0  0  0  0  0  0  0  0  0  0  0  0
    0.2578   -5.3133   35.0886 N   0  0  0  0  0  0  0  0  0  0  0  0
   -0.4213   -6.6967   35.1884 C   0  0  0  0  0  0  0  0  0  0  0  0
   -0.7002   -7.3358   36.1233 O   0  0  0  0  0  0  0  0  0  0  0  0
   -0.8315   -7.2478   33.8401 C   0  0  0  0  0  0  0  0  0  0  0  0
   -0.1479   -6.8966   32.6653 C   0  0  0  0  0  0  0  0  0  0  0  0
   -0.5841   -7.3955   31.4478 C   0  0  0  0  0  0  0  0  0  0  0  0
   -1.6264   -8.2366   31.3163 N   0  0  0  0  0  0  0  0  0  0  0  0
   -2.2350   -8.6089   32.4646 C   0  0  0  0  0  0  0  0  0  0  0  0
   -1.9019   -8.1548   33.7375 C   0  0  0  0  0  0  0  0  0  0  0  0
   -2.9780   -8.7197   35.0425 S   0  0  0  0  0  0  0  0  0  0  0  0
  1  2  2  0
  2  3  1  0
  3  4  2  0
  4  5  1  0
  5  6  1  0
  5  7  2  0
  7  8  1  0
  7  9  1  0
  9 10  2  0
 10 11  1  0
 11 12  1  0
 12 13  2  0
 12 14  1  0
 14 15  2  0
 15 16  1  0
 16 17  2  0
 17 18  1  0
 18 19  2  0
 19 20  1  0
 10  3  1  0
 19 14  1  0
M  END
>  <ref_mols>  (138) 
7gov-a

>  <gnina_score>  (138) 
5.102

>  <smina_score_min>  (138) 
-5.391

>  <ref_pdb>  (138) 
7gov-a

>  <inspiration_score>  (138) 
None

>  <inchikey>  (138) 
GHUVQZZRFLKLEF-UHFFFAOYSA-N

>  <tags>  (138) 
BulkDock Fragalysis export,openbind_d68ev3c_c2_elabs_scored,openbind_d68ev3c_c2_elabs_scored_4.5plus,openbind_d68ev3c_c2_elabs,openbind_d68ev3c_c2_elabs_scored_5plus,syndirella_product,openbind_d68ev3c_c2_elabs_scored_top80percent,syndirella_placed

>  <smiles>  (138) 
O=Cc1cc(Br)c(F)cc1NC(=O)c1ccncc1S

>  <subsites>  (138) 
None

>  <rmsd(smina/fragmenstein)>  (138) 
1.051

>  <alias>  (138) 
None

>  <energy_score>  (138) 
-24.157542

>  <HIPPO Pose ID>  (138) 
64517

>  <distance_score>  (138) 
0.612366

>  <HIPPO Compound ID>  (138) 
100972

>  <gnina_score_min>  (138) 
5.04

>  <name>  (138) 
P64517

>  <exports>  (138) 
['/opt/xchem-fragalysis-2/maxwin/BulkDock/OUTPUTS/openbind_d68ev3c_c2_elabs_1LOTQJ3.sdf', '/opt/xchem-fragalysis-2/maxwin/BulkDock/OUTPUTS/openbind_d68ev3c_c2_elabs_1LSYEHW.sdf', '/opt/xchem-fragalysis-2/maxwin/BulkDock/OUTPUTS/openbind_d68ev3c_c2_elabs_1LSYI5W.sdf']

$$$$
P64564
     RDKit          3D

 20 21  0  0  0  0  0  0  0  0999 V2000
    3.9936   -3.1278   34.2760 C   0  0  0  0  0  0  0  0  0  0  0  0
    2.5390   -3.5051   34.3814 C   0  0  0  0  0  0  0  0  0  0  0  0
    1.8731   -3.7712   33.3796 O   0  0  0  0  0  0  0  0  0  0  0  0
    1.9060   -3.5349   35.7326 C   0  0  0  0  0  0  0  0  0  0  0  0
    2.3964   -2.7239   36.7674 C   0  0  0  0  0  0  0  0  0  0  0  0
    1.8400   -2.8074   38.0463 C   0  0  0  0  0  0  0  0  0  0  0  0
    0.8108   -3.7081   38.2922 C   0  0  0  0  0  0  0  0  0  0  0  0
    0.2724   -3.7745   39.5170 F   0  0  0  0  0  0  0  0  0  0  0  0
    0.3230   -4.5283   37.2841 C   0  0  0  0  0  0  0  0  0  0  0  0
    0.8574   -4.4313   35.9967 C   0  0  0  0  0  0  0  0  0  0  0  0
    0.3278   -5.2303   34.9908 N   0  0  0  0  0  0  0  0  0  0  0  0
   -0.2560   -6.6548   35.0474 C   0  0  0  0  0  0  0  0  0  0  0  0
   -0.4553   -7.3531   35.9580 O   0  0  0  0  0  0  0  0  0  0  0  0
   -0.7018   -7.1548   33.6938 C   0  0  0  0  0  0  0  0  0  0  0  0
   -0.0378   -6.7629   32.5226 C   0  0  0  0  0  0  0  0  0  0  0  0
   -0.4842   -7.2354   31.2967 C   0  0  0  0  0  0  0  0  0  0  0  0
   -1.5174   -8.0876   31.1522 N   0  0  0  0  0  0  0  0  0  0  0  0
   -2.1060   -8.4967   32.2944 C   0  0  0  0  0  0  0  0  0  0  0  0
   -1.7640   -8.0590   33.5649 C   0  0  0  0  0  0  0  0  0  0  0  0
   -3.0224   -8.7664   35.0490 I   0  0  0  0  0  0  0  0  0  0  0  0
  1  2  1  0
  2  3  2  0
  2  4  1  0
  4  5  2  0
  5  6  1  0
  6  7  2  0
  7  8  1  0
  7  9  1  0
  9 10  2  0
 10 11  1  0
 11 12  1  0
 12 13  2  0
 12 14  1  0
 14 15  2  0
 15 16  1  0
 16 17  2  0
 17 18  1  0
 18 19  2  0
 19 20  1  0
 10  4  1  0
 19 14  1  0
M  END
>  <ref_mols>  (139) 
7gov-a

>  <gnina_score>  (139) 
5.049

>  <smina_score_min>  (139) 
-4.931

>  <ref_pdb>  (139) 
7gov-a

>  <inspiration_score>  (139) 
None

>  <inchikey>  (139) 
FKBRWRQWZYTJLF-UHFFFAOYSA-N

>  <tags>  (139) 
BulkDock Fragalysis export,openbind_d68ev3c_c2_elabs_scored,openbind_d68ev3c_c2_elabs_scored_4.5plus,openbind_d68ev3c_c2_elabs,openbind_d68ev3c_c2_elabs_scored_5plus,syndirella_product,openbind_d68ev3c_c2_elabs_scored_top80percent,syndirella_placed

>  <smiles>  (139) 
CC(=O)c1ccc(F)cc1NC(=O)c1ccncc1I

>  <subsites>  (139) 
None

>  <rmsd(smina/fragmenstein)>  (139) 
1.83

>  <alias>  (139) 
None

>  <energy_score>  (139) 
-0.006834

>  <HIPPO Pose ID>  (139) 
64564

>  <distance_score>  (139) 
0.553398

>  <HIPPO Compound ID>  (139) 
101052

>  <gnina_score_min>  (139) 
5.086

>  <name>  (139) 
P64564

>  <exports>  (139) 
['/opt/xchem-fragalysis-2/maxwin/BulkDock/OUTPUTS/openbind_d68ev3c_c2_elabs_1LOTQJ3.sdf', '/opt/xchem-fragalysis-2/maxwin/BulkDock/OUTPUTS/openbind_d68ev3c_c2_elabs_1LSYEHW.sdf', '/opt/xchem-fragalysis-2/maxwin/BulkDock/OUTPUTS/openbind_d68ev3c_c2_elabs_1LSYI5W.sdf']

$$$$
P64578
     RDKit          3D

 20 21  0  0  0  0  0  0  0  0999 V2000
    3.1470   -3.5178   33.0426 N   0  0  0  0  0  0  0  0  0  0  0  0
    2.7492   -3.5153   34.1338 C   0  0  0  0  0  0  0  0  0  0  0  0
    2.1970   -3.4895   35.4564 C   0  0  0  0  0  0  0  0  0  0  0  0
    2.8024   -2.6775   36.4301 C   0  0  0  0  0  0  0  0  0  0  0  0
    2.3160   -2.6578   37.7371 C   0  0  0  0  0  0  0  0  0  0  0  0
    1.2305   -3.4534   38.0708 C   0  0  0  0  0  0  0  0  0  0  0  0
    0.7434   -3.3879   39.3214 F   0  0  0  0  0  0  0  0  0  0  0  0
    0.6293   -4.2762   37.1163 C   0  0  0  0  0  0  0  0  0  0  0  0
   -0.9214   -5.1898   37.6643 Br  0  0  0  0  0  0  0  0  0  0  0  0
    1.1040   -4.3023   35.7931 C   0  0  0  0  0  0  0  0  0  0  0  0
    0.4989   -5.0991   34.8075 N   0  0  0  0  0  0  0  0  0  0  0  0
    0.1911   -6.6116   34.7910 C   0  0  0  0  0  0  0  0  0  0  0  0
    0.3215   -7.4180   35.6223 O   0  0  0  0  0  0  0  0  0  0  0  0
   -0.4602   -7.0399   33.5174 C   0  0  0  0  0  0  0  0  0  0  0  0
    0.0831   -6.6605   32.2872 C   0  0  0  0  0  0  0  0  0  0  0  0
   -0.5031   -7.1472   31.1290 C   0  0  0  0  0  0  0  0  0  0  0  0
   -1.5744   -7.9707   31.1141 N   0  0  0  0  0  0  0  0  0  0  0  0
   -2.0614   -8.3395   32.3193 C   0  0  0  0  0  0  0  0  0  0  0  0
   -1.5628   -7.8975   33.5312 C   0  0  0  0  0  0  0  0  0  0  0  0
   -2.5170   -8.4345   35.0613 Br  0  0  0  0  0  0  0  0  0  0  0  0
  1  2  3  0
  2  3  1  0
  3  4  2  0
  4  5  1  0
  5  6  2  0
  6  7  1  0
  6  8  1  0
  8  9  1  0
  8 10  2  0
 10 11  1  0
 11 12  1  0
 12 13  2  0
 12 14  1  0
 14 15  2  0
 15 16  1  0
 16 17  2  0
 17 18  1  0
 18 19  2  0
 19 20  1  0
 10  3  1  0
 19 14  1  0
M  END
>  <ref_mols>  (140) 
7gov-a

>  <gnina_score>  (140) 
5.216

>  <smina_score_min>  (140) 
-4.452

>  <ref_pdb>  (140) 
7gov-a

>  <inspiration_score>  (140) 
None

>  <inchikey>  (140) 
METCBRFYJJLUGH-UHFFFAOYSA-N

>  <tags>  (140) 
BulkDock Fragalysis export,openbind_d68ev3c_c2_elabs_scored,openbind_d68ev3c_c2_elabs_scored_4.5plus,openbind_d68ev3c_c2_elabs,openbind_d68ev3c_c2_elabs_scored_5plus,syndirella_product,openbind_d68ev3c_c2_elabs_scored_top80percent,syndirella_placed

>  <smiles>  (140) 
N#Cc1ccc(F)c(Br)c1NC(=O)c1ccncc1Br

>  <subsites>  (140) 
None

>  <rmsd(smina/fragmenstein)>  (140) 
0.384

>  <alias>  (140) 
None

>  <energy_score>  (140) 
-0.004009

>  <HIPPO Pose ID>  (140) 
64578

>  <distance_score>  (140) 
0.561824

>  <HIPPO Compound ID>  (140) 
101083

>  <gnina_score_min>  (140) 
5.035

>  <name>  (140) 
P64578

>  <exports>  (140) 
['/opt/xchem-fragalysis-2/maxwin/BulkDock/OUTPUTS/openbind_d68ev3c_c2_elabs_1LOTQJ3.sdf', '/opt/xchem-fragalysis-2/maxwin/BulkDock/OUTPUTS/openbind_d68ev3c_c2_elabs_1LSYEHW.sdf', '/opt/xchem-fragalysis-2/maxwin/BulkDock/OUTPUTS/openbind_d68ev3c_c2_elabs_1LSYI5W.sdf']

$$$$
P64604
     RDKit          3D

 20 21  0  0  0  0  0  0  0  0999 V2000
   -0.0800   -7.5083   35.7684 O   0  0  0  0  0  0  0  0  0  0  0  0
   -0.0596   -6.7223   34.9102 C   0  0  0  0  0  0  0  0  0  0  0  0
    0.4210   -5.2605   34.9079 N   0  0  0  0  0  0  0  0  0  0  0  0
    0.8741   -4.4566   35.9489 C   0  0  0  0  0  0  0  0  0  0  0  0
    1.8682   -3.4994   35.6798 C   0  0  0  0  0  0  0  0  0  0  0  0
    2.5328   -3.4301   34.3296 C   0  0  0  0  0  0  0  0  0  0  0  0
    1.5572   -3.2014   33.3121 O   0  0  0  0  0  0  0  0  0  0  0  0
    2.3230   -2.6811   36.7283 C   0  0  0  0  0  0  0  0  0  0  0  0
    1.7800   -2.7985   38.0100 C   0  0  0  0  0  0  0  0  0  0  0  0
    0.7913   -3.7439   38.2547 C   0  0  0  0  0  0  0  0  0  0  0  0
    0.2543   -3.8254   39.4808 F   0  0  0  0  0  0  0  0  0  0  0  0
    0.3453   -4.5789   37.2390 C   0  0  0  0  0  0  0  0  0  0  0  0
   -0.6461   -5.4446   37.4995 F   0  0  0  0  0  0  0  0  0  0  0  0
   -0.6070   -7.1466   33.5820 C   0  0  0  0  0  0  0  0  0  0  0  0
    0.0124   -6.7327   32.3963 C   0  0  0  0  0  0  0  0  0  0  0  0
   -0.4918   -7.1815   31.1865 C   0  0  0  0  0  0  0  0  0  0  0  0
   -1.5464   -8.0139   31.0774 N   0  0  0  0  0  0  0  0  0  0  0  0
   -2.1007   -8.4265   32.2371 C   0  0  0  0  0  0  0  0  0  0  0  0
   -1.6947   -8.0194   33.4945 C   0  0  0  0  0  0  0  0  0  0  0  0
   -2.8866   -8.7056   35.0311 I   0  0  0  0  0  0  0  0  0  0  0  0
  1  2  2  0
  2  3  1  0
  3  4  1  0
  4  5  2  0
  5  6  1  0
  6  7  1  0
  5  8  1  0
  8  9  2  0
  9 10  1  0
 10 11  1  0
 10 12  2  0
 12 13  1  0
  2 14  1  0
 14 15  2  0
 15 16  1  0
 16 17  2  0
 17 18  1  0
 18 19  2  0
 19 20  1  0
 12  4  1  0
 19 14  1  0
M  END
>  <ref_mols>  (141) 
7gov-a

>  <gnina_score>  (141) 
5.048

>  <smina_score_min>  (141) 
-4.61

>  <ref_pdb>  (141) 
7gov-a

>  <inspiration_score>  (141) 
None

>  <inchikey>  (141) 
QVPFEPRIUOHRAY-UHFFFAOYSA-N

>  <tags>  (141) 
BulkDock Fragalysis export,openbind_d68ev3c_c2_elabs_scored,openbind_d68ev3c_c2_elabs_scored_4.5plus,openbind_d68ev3c_c2_elabs,openbind_d68ev3c_c2_elabs_scored_5plus,syndirella_product,openbind_d68ev3c_c2_elabs_scored_top80percent,syndirella_placed

>  <smiles>  (141) 
O=C(Nc1c(CO)ccc(F)c1F)c1ccncc1I

>  <subsites>  (141) 
None

>  <rmsd(smina/fragmenstein)>  (141) 
0.482

>  <alias>  (141) 
None

>  <energy_score>  (141) 
-4.607859

>  <HIPPO Pose ID>  (141) 
64604

>  <distance_score>  (141) 
0.501687

>  <HIPPO Compound ID>  (141) 
101129

>  <gnina_score_min>  (141) 
5.029

>  <name>  (141) 
P64604

>  <exports>  (141) 
['/opt/xchem-fragalysis-2/maxwin/BulkDock/OUTPUTS/openbind_d68ev3c_c2_elabs_1LOTQJ3.sdf', '/opt/xchem-fragalysis-2/maxwin/BulkDock/OUTPUTS/openbind_d68ev3c_c2_elabs_1LSYEHW.sdf', '/opt/xchem-fragalysis-2/maxwin/BulkDock/OUTPUTS/openbind_d68ev3c_c2_elabs_1LSYI5W.sdf']

$$$$
P64616
     RDKit          3D

 20 21  0  0  0  0  0  0  0  0999 V2000
   -1.6644   -6.4169   35.8405 O   0  0  0  0  0  0  0  0  0  0  0  0
   -0.8254   -6.3209   35.0386 C   0  0  0  0  0  0  0  0  0  0  0  0
    0.4956   -5.5275   35.0655 N   0  0  0  0  0  0  0  0  0  0  0  0
    0.9975   -4.6439   36.0106 C   0  0  0  0  0  0  0  0  0  0  0  0
    0.2703   -4.3731   37.1749 C   0  0  0  0  0  0  0  0  0  0  0  0
    0.7756   -3.4856   38.1151 C   0  0  0  0  0  0  0  0  0  0  0  0
    0.0955   -3.2696   39.2494 F   0  0  0  0  0  0  0  0  0  0  0  0
    1.9725   -2.8259   37.8978 C   0  0  0  0  0  0  0  0  0  0  0  0
    2.6828   -3.0934   36.7322 C   0  0  0  0  0  0  0  0  0  0  0  0
    3.8488   -2.4570   36.5362 F   0  0  0  0  0  0  0  0  0  0  0  0
    2.2306   -4.0157   35.7747 C   0  0  0  0  0  0  0  0  0  0  0  0
    3.1473   -4.3111   34.6119 C   0  0  0  0  0  0  0  0  0  0  0  0
    2.5609   -5.1414   33.6043 O   0  0  0  0  0  0  0  0  0  0  0  0
   -1.0342   -7.0432   33.7279 C   0  0  0  0  0  0  0  0  0  0  0  0
   -0.4494   -6.5716   32.5399 C   0  0  0  0  0  0  0  0  0  0  0  0
   -0.6972   -7.2351   31.3486 C   0  0  0  0  0  0  0  0  0  0  0  0
   -1.5107   -8.3033   31.2470 N   0  0  0  0  0  0  0  0  0  0  0  0
   -2.0771   -8.7333   32.3957 C   0  0  0  0  0  0  0  0  0  0  0  0
   -1.8932   -8.1454   33.6376 C   0  0  0  0  0  0  0  0  0  0  0  0
   -2.9626   -8.8520   35.0277 Br  0  0  0  0  0  0  0  0  0  0  0  0
  1  2  2  0
  2  3  1  0
  3  4  1  0
  4  5  2  0
  5  6  1  0
  6  7  1  0
  6  8  2  0
  8  9  1  0
  9 10  1  0
  9 11  2  0
 11 12  1  0
 12 13  1  0
  2 14  1  0
 14 15  2  0
 15 16  1  0
 16 17  2  0
 17 18  1  0
 18 19  2  0
 19 20  1  0
 11  4  1  0
 19 14  1  0
M  END
>  <ref_mols>  (142) 
7gov-a

>  <gnina_score>  (142) 
4.948

>  <smina_score_min>  (142) 
-5.847

>  <ref_pdb>  (142) 
7gov-a

>  <inspiration_score>  (142) 
None

>  <inchikey>  (142) 
MZKGNSFVIHKRSC-UHFFFAOYSA-N

>  <tags>  (142) 
BulkDock Fragalysis export,openbind_d68ev3c_c2_elabs_scored,openbind_d68ev3c_c2_elabs_scored_4.5plus,openbind_d68ev3c_c2_elabs,openbind_d68ev3c_c2_elabs_scored_5plus,syndirella_product,openbind_d68ev3c_c2_elabs_scored_top80percent,syndirella_placed

>  <smiles>  (142) 
O=C(Nc1cc(F)cc(F)c1CO)c1ccncc1Br

>  <subsites>  (142) 
None

>  <rmsd(smina/fragmenstein)>  (142) 
1.158

>  <alias>  (142) 
None

>  <energy_score>  (142) 
-28.676783

>  <HIPPO Pose ID>  (142) 
64616

>  <distance_score>  (142) 
0.833306

>  <HIPPO Compound ID>  (142) 
101143

>  <gnina_score_min>  (142) 
5.038

>  <name>  (142) 
P64616

>  <exports>  (142) 
['/opt/xchem-fragalysis-2/maxwin/BulkDock/OUTPUTS/openbind_d68ev3c_c2_elabs_1LOTQJ3.sdf', '/opt/xchem-fragalysis-2/maxwin/BulkDock/OUTPUTS/openbind_d68ev3c_c2_elabs_1LSYEHW.sdf', '/opt/xchem-fragalysis-2/maxwin/BulkDock/OUTPUTS/openbind_d68ev3c_c2_elabs_1LSYI5W.sdf']

$$$$
P64630
     RDKit          3D

 20 21  0  0  0  0  0  0  0  0999 V2000
    3.0497   -2.0837   33.9088 C   0  0  0  0  0  0  0  0  0  0  0  0
    2.5215   -3.4635   34.3220 C   0  0  0  0  0  0  0  0  0  0  0  0
    3.6499   -4.4978   34.2746 C   0  0  0  0  0  0  0  0  0  0  0  0
    1.8364   -3.4934   35.6842 C   0  0  0  0  0  0  0  0  0  0  0  0
    2.3190   -2.7009   36.7449 C   0  0  0  0  0  0  0  0  0  0  0  0
    1.7815   -2.8046   38.0299 C   0  0  0  0  0  0  0  0  0  0  0  0
    0.7752   -3.7235   38.2778 C   0  0  0  0  0  0  0  0  0  0  0  0
    0.2524   -3.8161   39.5081 F   0  0  0  0  0  0  0  0  0  0  0  0
    0.2978   -4.5417   37.2662 C   0  0  0  0  0  0  0  0  0  0  0  0
    0.8115   -4.4182   35.9711 C   0  0  0  0  0  0  0  0  0  0  0  0
    0.2749   -5.2296   34.9776 N   0  0  0  0  0  0  0  0  0  0  0  0
   -0.2650   -6.6721   35.0459 C   0  0  0  0  0  0  0  0  0  0  0  0
   -0.4159   -7.3789   35.9591 O   0  0  0  0  0  0  0  0  0  0  0  0
   -0.7211   -7.1708   33.7003 C   0  0  0  0  0  0  0  0  0  0  0  0
   -0.0484   -6.7780   32.5346 C   0  0  0  0  0  0  0  0  0  0  0  0
   -0.4902   -7.2485   31.3074 C   0  0  0  0  0  0  0  0  0  0  0  0
   -1.5277   -8.0947   31.1608 N   0  0  0  0  0  0  0  0  0  0  0  0
   -2.1216   -8.5060   32.3007 C   0  0  0  0  0  0  0  0  0  0  0  0
   -1.7824   -8.0723   33.5721 C   0  0  0  0  0  0  0  0  0  0  0  0
   -3.0344   -8.7706   35.0597 I   0  0  0  0  0  0  0  0  0  0  0  0
  1  2  1  0
  2  3  1  0
  2  4  1  0
  4  5  2  0
  5  6  1  0
  6  7  2  0
  7  8  1  0
  7  9  1  0
  9 10  2  0
 10 11  1  0
 11 12  1  0
 12 13  2  0
 12 14  1  0
 14 15  2  0
 15 16  1  0
 16 17  2  0
 17 18  1  0
 18 19  2  0
 19 20  1  0
 10  4  1  0
 19 14  1  0
M  END
>  <ref_mols>  (143) 
7gov-a

>  <gnina_score>  (143) 
5.14

>  <smina_score_min>  (143) 
-4.854

>  <ref_pdb>  (143) 
7gov-a

>  <inspiration_score>  (143) 
None

>  <inchikey>  (143) 
SUNKMNVONYQFQR-UHFFFAOYSA-N

>  <tags>  (143) 
BulkDock Fragalysis export,openbind_d68ev3c_c2_elabs_scored,openbind_d68ev3c_c2_elabs_scored_4.5plus,openbind_d68ev3c_c2_elabs,openbind_d68ev3c_c2_elabs_scored_5plus,syndirella_product,openbind_d68ev3c_c2_elabs_scored_top80percent,syndirella_placed

>  <smiles>  (143) 
CC(C)c1ccc(F)cc1NC(=O)c1ccncc1I

>  <subsites>  (143) 
None

>  <rmsd(smina/fragmenstein)>  (143) 
1.7

>  <alias>  (143) 
None

>  <energy_score>  (143) 
-27.815392

>  <HIPPO Pose ID>  (143) 
64630

>  <distance_score>  (143) 
0.556601

>  <HIPPO Compound ID>  (143) 
101165

>  <gnina_score_min>  (143) 
5.192

>  <name>  (143) 
P64630

>  <exports>  (143) 
['/opt/xchem-fragalysis-2/maxwin/BulkDock/OUTPUTS/openbind_d68ev3c_c2_elabs_1LOTQJ3.sdf', '/opt/xchem-fragalysis-2/maxwin/BulkDock/OUTPUTS/openbind_d68ev3c_c2_elabs_1LSYEHW.sdf', '/opt/xchem-fragalysis-2/maxwin/BulkDock/OUTPUTS/openbind_d68ev3c_c2_elabs_1LSYI5W.sdf']

$$$$
P64647
     RDKit          3D

 20 21  0  0  0  0  0  0  0  0999 V2000
    3.0215   -3.4307   33.3562 C   0  0  0  0  0  0  0  0  0  0  0  0
    2.5054   -3.4914   34.4389 C   0  0  0  0  0  0  0  0  0  0  0  0
    1.8917   -3.5607   35.7349 C   0  0  0  0  0  0  0  0  0  0  0  0
    2.3712   -2.7280   36.7512 C   0  0  0  0  0  0  0  0  0  0  0  0
    1.8238   -2.8134   38.0275 C   0  0  0  0  0  0  0  0  0  0  0  0
    2.2790   -2.0000   38.9914 F   0  0  0  0  0  0  0  0  0  0  0  0
    0.8084   -3.7207   38.3008 C   0  0  0  0  0  0  0  0  0  0  0  0
    0.2668   -3.7782   39.5257 F   0  0  0  0  0  0  0  0  0  0  0  0
    0.3340   -4.5671   37.3056 C   0  0  0  0  0  0  0  0  0  0  0  0
    0.8714   -4.4869   36.0172 C   0  0  0  0  0  0  0  0  0  0  0  0
    0.3904   -5.3309   35.0193 N   0  0  0  0  0  0  0  0  0  0  0  0
   -0.3409   -6.6866   35.1192 C   0  0  0  0  0  0  0  0  0  0  0  0
   -0.5864   -7.3451   36.0487 O   0  0  0  0  0  0  0  0  0  0  0  0
   -0.7871   -7.2141   33.7745 C   0  0  0  0  0  0  0  0  0  0  0  0
   -0.1139   -6.8690   32.5921 C   0  0  0  0  0  0  0  0  0  0  0  0
   -0.5663   -7.3664   31.3786 C   0  0  0  0  0  0  0  0  0  0  0  0
   -1.6146   -8.2018   31.2581 N   0  0  0  0  0  0  0  0  0  0  0  0
   -2.2116   -8.5731   32.4108 C   0  0  0  0  0  0  0  0  0  0  0  0
   -1.8605   -8.1095   33.6701 C   0  0  0  0  0  0  0  0  0  0  0  0
   -2.9897   -8.6972   35.0692 Br  0  0  0  0  0  0  0  0  0  0  0  0
  1  2  3  0
  2  3  1  0
  3  4  2  0
  4  5  1  0
  5  6  1  0
  5  7  2  0
  7  8  1  0
  7  9  1  0
  9 10  2  0
 10 11  1  0
 11 12  1  0
 12 13  2  0
 12 14  1  0
 14 15  2  0
 15 16  1  0
 16 17  2  0
 17 18  1  0
 18 19  2  0
 19 20  1  0
 10  3  1  0
 19 14  1  0
M  END
>  <ref_mols>  (144) 
7gov-a

>  <gnina_score>  (144) 
5.092

>  <smina_score_min>  (144) 
-5.437

>  <ref_pdb>  (144) 
7gov-a

>  <inspiration_score>  (144) 
None

>  <inchikey>  (144) 
IAXCOBIXDCWFMF-UHFFFAOYSA-N

>  <tags>  (144) 
BulkDock Fragalysis export,openbind_d68ev3c_c2_elabs_scored,openbind_d68ev3c_c2_elabs_scored_4.5plus,openbind_d68ev3c_c2_elabs,openbind_d68ev3c_c2_elabs_scored_5plus,syndirella_product,openbind_d68ev3c_c2_elabs_scored_top80percent,syndirella_placed

>  <smiles>  (144) 
C#Cc1cc(F)c(F)cc1NC(=O)c1ccncc1Br

>  <subsites>  (144) 
None

>  <rmsd(smina/fragmenstein)>  (144) 
1.107

>  <alias>  (144) 
None

>  <energy_score>  (144) 
-7.619639

>  <HIPPO Pose ID>  (144) 
64647

>  <distance_score>  (144) 
0.586594

>  <HIPPO Compound ID>  (144) 
101194

>  <gnina_score_min>  (144) 
5.055

>  <name>  (144) 
P64647

>  <exports>  (144) 
['/opt/xchem-fragalysis-2/maxwin/BulkDock/OUTPUTS/openbind_d68ev3c_c2_elabs_1LOTQJ3.sdf', '/opt/xchem-fragalysis-2/maxwin/BulkDock/OUTPUTS/openbind_d68ev3c_c2_elabs_1LSYEHW.sdf', '/opt/xchem-fragalysis-2/maxwin/BulkDock/OUTPUTS/openbind_d68ev3c_c2_elabs_1LSYI5W.sdf']

$$$$
P64652
     RDKit          3D

 20 21  0  0  0  0  0  0  0  0999 V2000
    3.0350   -3.2540   33.3073 C   0  0  0  0  0  0  0  0  0  0  0  0
    2.5215   -3.3583   34.3879 C   0  0  0  0  0  0  0  0  0  0  0  0
    1.9109   -3.4775   35.6811 C   0  0  0  0  0  0  0  0  0  0  0  0
    2.3677   -2.6622   36.7217 C   0  0  0  0  0  0  0  0  0  0  0  0
    1.8240   -2.8002   37.9954 C   0  0  0  0  0  0  0  0  0  0  0  0
    2.2538   -1.9993   38.9813 F   0  0  0  0  0  0  0  0  0  0  0  0
    0.8371   -3.7455   38.2432 C   0  0  0  0  0  0  0  0  0  0  0  0
    0.2943   -3.8498   39.4646 F   0  0  0  0  0  0  0  0  0  0  0  0
    0.3911   -4.5792   37.2243 C   0  0  0  0  0  0  0  0  0  0  0  0
    0.9216   -4.4413   35.9376 C   0  0  0  0  0  0  0  0  0  0  0  0
    0.4560   -5.2654   34.9174 N   0  0  0  0  0  0  0  0  0  0  0  0
   -0.1446   -6.6837   34.9716 C   0  0  0  0  0  0  0  0  0  0  0  0
   -0.2732   -7.4148   35.8690 O   0  0  0  0  0  0  0  0  0  0  0  0
   -0.6497   -7.1529   33.6324 C   0  0  0  0  0  0  0  0  0  0  0  0
   -0.0065   -6.7658   32.4483 C   0  0  0  0  0  0  0  0  0  0  0  0
   -0.4899   -7.2268   31.2333 C   0  0  0  0  0  0  0  0  0  0  0  0
   -1.5427   -8.0573   31.1140 N   0  0  0  0  0  0  0  0  0  0  0  0
   -2.1125   -8.4604   32.2683 C   0  0  0  0  0  0  0  0  0  0  0  0
   -1.7309   -8.0358   33.5301 C   0  0  0  0  0  0  0  0  0  0  0  0
   -2.9527   -8.7311   35.0442 I   0  0  0  0  0  0  0  0  0  0  0  0
  1  2  3  0
  2  3  1  0
  3  4  2  0
  4  5  1  0
  5  6  1  0
  5  7  2  0
  7  8  1  0
  7  9  1  0
  9 10  2  0
 10 11  1  0
 11 12  1  0
 12 13  2  0
 12 14  1  0
 14 15  2  0
 15 16  1  0
 16 17  2  0
 17 18  1  0
 18 19  2  0
 19 20  1  0
 10  3  1  0
 19 14  1  0
M  END
>  <ref_mols>  (145) 
7gov-a

>  <gnina_score>  (145) 
5.181

>  <smina_score_min>  (145) 
-4.807

>  <ref_pdb>  (145) 
7gov-a

>  <inspiration_score>  (145) 
None

>  <inchikey>  (145) 
ZZGROZFMQLLYGS-UHFFFAOYSA-N

>  <tags>  (145) 
BulkDock Fragalysis export,openbind_d68ev3c_c2_elabs_scored,openbind_d68ev3c_c2_elabs_scored_4.5plus,openbind_d68ev3c_c2_elabs,openbind_d68ev3c_c2_elabs_scored_5plus,syndirella_product,openbind_d68ev3c_c2_elabs_scored_top80percent,syndirella_placed

>  <smiles>  (145) 
C#Cc1cc(F)c(F)cc1NC(=O)c1ccncc1I

>  <subsites>  (145) 
None

>  <rmsd(smina/fragmenstein)>  (145) 
1.179

>  <alias>  (145) 
None

>  <energy_score>  (145) 
-12.386405

>  <HIPPO Pose ID>  (145) 
64652

>  <distance_score>  (145) 
0.541505

>  <HIPPO Compound ID>  (145) 
101206

>  <gnina_score_min>  (145) 
5.086

>  <name>  (145) 
P64652

>  <exports>  (145) 
['/opt/xchem-fragalysis-2/maxwin/BulkDock/OUTPUTS/openbind_d68ev3c_c2_elabs_1LOTQJ3.sdf', '/opt/xchem-fragalysis-2/maxwin/BulkDock/OUTPUTS/openbind_d68ev3c_c2_elabs_1LSYEHW.sdf', '/opt/xchem-fragalysis-2/maxwin/BulkDock/OUTPUTS/openbind_d68ev3c_c2_elabs_1LSYI5W.sdf']

$$$$
P64654
     RDKit          3D

 20 21  0  0  0  0  0  0  0  0999 V2000
    1.8674   -2.5834   33.4408 C   0  0  0  0  0  0  0  0  0  0  0  0
    2.5781   -3.5251   34.4014 C   0  0  0  0  0  0  0  0  0  0  0  0
    1.8864   -3.5893   35.7431 C   0  0  0  0  0  0  0  0  0  0  0  0
    2.3465   -2.7548   36.7788 C   0  0  0  0  0  0  0  0  0  0  0  0
    1.7877   -2.8332   38.0555 C   0  0  0  0  0  0  0  0  0  0  0  0
    2.4382   -1.7053   39.4271 Br  0  0  0  0  0  0  0  0  0  0  0  0
    0.7644   -3.7387   38.3082 C   0  0  0  0  0  0  0  0  0  0  0  0
    0.1996   -3.8159   39.5228 F   0  0  0  0  0  0  0  0  0  0  0  0
    0.2985   -4.5750   37.3008 C   0  0  0  0  0  0  0  0  0  0  0  0
    0.8492   -4.4972   36.0187 C   0  0  0  0  0  0  0  0  0  0  0  0
    0.3647   -5.3355   35.0213 N   0  0  0  0  0  0  0  0  0  0  0  0
   -0.3450   -6.7031   35.1180 C   0  0  0  0  0  0  0  0  0  0  0  0
   -0.5653   -7.3754   36.0439 O   0  0  0  0  0  0  0  0  0  0  0  0
   -0.7958   -7.2238   33.7745 C   0  0  0  0  0  0  0  0  0  0  0  0
   -0.1214   -6.8768   32.5935 C   0  0  0  0  0  0  0  0  0  0  0  0
   -0.5733   -7.3726   31.3797 C   0  0  0  0  0  0  0  0  0  0  0  0
   -1.6223   -8.2070   31.2588 N   0  0  0  0  0  0  0  0  0  0  0  0
   -2.2207   -8.5791   32.4110 C   0  0  0  0  0  0  0  0  0  0  0  0
   -1.8696   -8.1174   33.6705 C   0  0  0  0  0  0  0  0  0  0  0  0
   -2.9978   -8.7008   35.0716 Br  0  0  0  0  0  0  0  0  0  0  0  0
  1  2  1  0
  2  3  1  0
  3  4  2  0
  4  5  1  0
  5  6  1  0
  5  7  2  0
  7  8  1  0
  7  9  1  0
  9 10  2  0
 10 11  1  0
 11 12  1  0
 12 13  2  0
 12 14  1  0
 14 15  2  0
 15 16  1  0
 16 17  2  0
 17 18  1  0
 18 19  2  0
 19 20  1  0
 10  3  1  0
 19 14  1  0
M  END
>  <ref_mols>  (146) 
7gov-a

>  <gnina_score>  (146) 
5.162

>  <smina_score_min>  (146) 
-5.414

>  <ref_pdb>  (146) 
7gov-a

>  <inspiration_score>  (146) 
None

>  <inchikey>  (146) 
AZSQOGWTZJSLNO-UHFFFAOYSA-N

>  <tags>  (146) 
BulkDock Fragalysis export,openbind_d68ev3c_c2_elabs_scored,openbind_d68ev3c_c2_elabs_scored_4.5plus,openbind_d68ev3c_c2_elabs,openbind_d68ev3c_c2_elabs_scored_5plus,syndirella_product,openbind_d68ev3c_c2_elabs_scored_top80percent,syndirella_placed

>  <smiles>  (146) 
CCc1cc(Br)c(F)cc1NC(=O)c1ccncc1Br

>  <subsites>  (146) 
None

>  <rmsd(smina/fragmenstein)>  (146) 
1.02

>  <alias>  (146) 
None

>  <energy_score>  (146) 
-17.410619

>  <HIPPO Pose ID>  (146) 
64654

>  <distance_score>  (146) 
0.574949

>  <HIPPO Compound ID>  (146) 
101209

>  <gnina_score_min>  (146) 
5.112

>  <name>  (146) 
P64654

>  <exports>  (146) 
['/opt/xchem-fragalysis-2/maxwin/BulkDock/OUTPUTS/openbind_d68ev3c_c2_elabs_1LOTQJ3.sdf', '/opt/xchem-fragalysis-2/maxwin/BulkDock/OUTPUTS/openbind_d68ev3c_c2_elabs_1LSYEHW.sdf', '/opt/xchem-fragalysis-2/maxwin/BulkDock/OUTPUTS/openbind_d68ev3c_c2_elabs_1LSYI5W.sdf']

$$$$
P64680
     RDKit          3D

 21 22  0  0  0  0  0  0  0  0999 V2000
    2.9505   -3.3286   33.2662 C   0  0  0  0  0  0  0  0  0  0  0  0
    2.4663   -3.4196   34.3615 C   0  0  0  0  0  0  0  0  0  0  0  0
    1.8910   -3.5236   35.6715 C   0  0  0  0  0  0  0  0  0  0  0  0
    2.4401   -2.7653   36.7131 C   0  0  0  0  0  0  0  0  0  0  0  0
    1.9445   -2.8935   38.0175 C   0  0  0  0  0  0  0  0  0  0  0  0
    2.5274   -2.1442   39.0857 C   0  0  0  0  0  0  0  0  0  0  0  0
    3.0256   -1.5194   39.9285 N   0  0  0  0  0  0  0  0  0  0  0  0
    0.8948   -3.7716   38.2691 C   0  0  0  0  0  0  0  0  0  0  0  0
    0.3747   -3.8783   39.5009 F   0  0  0  0  0  0  0  0  0  0  0  0
    0.3616   -4.5521   37.2497 C   0  0  0  0  0  0  0  0  0  0  0  0
    0.8569   -4.4281   35.9489 C   0  0  0  0  0  0  0  0  0  0  0  0
    0.3085   -5.2259   34.9509 N   0  0  0  0  0  0  0  0  0  0  0  0
   -0.2259   -6.6702   35.0049 C   0  0  0  0  0  0  0  0  0  0  0  0
   -0.3614   -7.3912   35.9091 O   0  0  0  0  0  0  0  0  0  0  0  0
   -0.6948   -7.1617   33.6619 C   0  0  0  0  0  0  0  0  0  0  0  0
   -0.0344   -6.7735   32.4881 C   0  0  0  0  0  0  0  0  0  0  0  0
   -0.4928   -7.2447   31.2675 C   0  0  0  0  0  0  0  0  0  0  0  0
   -1.5347   -8.0875   31.1351 N   0  0  0  0  0  0  0  0  0  0  0  0
   -2.1179   -8.4941   32.2817 C   0  0  0  0  0  0  0  0  0  0  0  0
   -1.7624   -8.0591   33.5474 C   0  0  0  0  0  0  0  0  0  0  0  0
   -3.0010   -8.7546   35.0490 I   0  0  0  0  0  0  0  0  0  0  0  0
  1  2  3  0
  2  3  1  0
  3  4  2  0
  4  5  1  0
  5  6  1  0
  6  7  3  0
  5  8  2  0
  8  9  1  0
  8 10  1  0
 10 11  2  0
 11 12  1  0
 12 13  1  0
 13 14  2  0
 13 15  1  0
 15 16  2  0
 16 17  1  0
 17 18  2  0
 18 19  1  0
 19 20  2  0
 20 21  1  0
 11  3  1  0
 20 15  1  0
M  END
>  <ref_mols>  (147) 
7gov-a

>  <gnina_score>  (147) 
5.156

>  <smina_score_min>  (147) 
-4.897

>  <ref_pdb>  (147) 
7gov-a

>  <inspiration_score>  (147) 
None

>  <inchikey>  (147) 
NTJSPHWIQPRICF-UHFFFAOYSA-N

>  <tags>  (147) 
BulkDock Fragalysis export,openbind_d68ev3c_c2_elabs_scored,openbind_d68ev3c_c2_elabs_scored_4.5plus,openbind_d68ev3c_c2_elabs,openbind_d68ev3c_c2_elabs_scored_5plus,syndirella_product,openbind_d68ev3c_c2_elabs_scored_top80percent,syndirella_placed

>  <smiles>  (147) 
C#Cc1cc(C#N)c(F)cc1NC(=O)c1ccncc1I

>  <subsites>  (147) 
None

>  <rmsd(smina/fragmenstein)>  (147) 
1.719

>  <alias>  (147) 
None

>  <energy_score>  (147) 
-5.66907

>  <HIPPO Pose ID>  (147) 
64680

>  <distance_score>  (147) 
0.545153

>  <HIPPO Compound ID>  (147) 
101254

>  <gnina_score_min>  (147) 
5.045

>  <name>  (147) 
P64680

>  <exports>  (147) 
['/opt/xchem-fragalysis-2/maxwin/BulkDock/OUTPUTS/openbind_d68ev3c_c2_elabs_1LOTQJ3.sdf', '/opt/xchem-fragalysis-2/maxwin/BulkDock/OUTPUTS/openbind_d68ev3c_c2_elabs_1LSYEHW.sdf', '/opt/xchem-fragalysis-2/maxwin/BulkDock/OUTPUTS/openbind_d68ev3c_c2_elabs_1LSYI5W.sdf']

$$$$
P64681
     RDKit          3D

 21 22  0  0  0  0  0  0  0  0999 V2000
    4.0287   -3.1779   34.2732 C   0  0  0  0  0  0  0  0  0  0  0  0
    2.5683   -3.5302   34.3850 C   0  0  0  0  0  0  0  0  0  0  0  0
    1.8908   -3.7773   33.3864 O   0  0  0  0  0  0  0  0  0  0  0  0
    1.9412   -3.5602   35.7386 C   0  0  0  0  0  0  0  0  0  0  0  0
    2.4528   -2.7691   36.7774 C   0  0  0  0  0  0  0  0  0  0  0  0
    1.8986   -2.8593   38.0570 C   0  0  0  0  0  0  0  0  0  0  0  0
    2.5998   -1.7843   39.4471 Br  0  0  0  0  0  0  0  0  0  0  0  0
    0.8444   -3.7342   38.3040 C   0  0  0  0  0  0  0  0  0  0  0  0
    0.2871   -3.8132   39.5215 F   0  0  0  0  0  0  0  0  0  0  0  0
    0.3400   -4.5336   37.2858 C   0  0  0  0  0  0  0  0  0  0  0  0
    0.8771   -4.4393   35.9989 C   0  0  0  0  0  0  0  0  0  0  0  0
    0.3394   -5.2321   34.9930 N   0  0  0  0  0  0  0  0  0  0  0  0
   -0.2575   -6.6514   35.0486 C   0  0  0  0  0  0  0  0  0  0  0  0
   -0.4623   -7.3487   35.9587 O   0  0  0  0  0  0  0  0  0  0  0  0
   -0.7034   -7.1507   33.6943 C   0  0  0  0  0  0  0  0  0  0  0  0
   -0.0391   -6.7596   32.5229 C   0  0  0  0  0  0  0  0  0  0  0  0
   -0.4847   -7.2331   31.2970 C   0  0  0  0  0  0  0  0  0  0  0  0
   -1.5175   -8.0857   31.1526 N   0  0  0  0  0  0  0  0  0  0  0  0
   -2.1062   -8.4947   32.2946 C   0  0  0  0  0  0  0  0  0  0  0  0
   -1.7648   -8.0562   33.5650 C   0  0  0  0  0  0  0  0  0  0  0  0
   -3.0229   -8.7662   35.0486 I   0  0  0  0  0  0  0  0  0  0  0  0
  1  2  1  0
  2  3  2  0
  2  4  1  0
  4  5  2  0
  5  6  1  0
  6  7  1  0
  6  8  2  0
  8  9  1  0
  8 10  1  0
 10 11  2  0
 11 12  1  0
 12 13  1  0
 13 14  2  0
 13 15  1  0
 15 16  2  0
 16 17  1  0
 17 18  2  0
 18 19  1  0
 19 20  2  0
 20 21  1  0
 11  4  1  0
 20 15  1  0
M  END
>  <ref_mols>  (148) 
7gov-a

>  <gnina_score>  (148) 
5.277

>  <smina_score_min>  (148) 
-4.861

>  <ref_pdb>  (148) 
7gov-a

>  <inspiration_score>  (148) 
None

>  <inchikey>  (148) 
QWENMRNPCFXZMG-UHFFFAOYSA-N

>  <tags>  (148) 
BulkDock Fragalysis export,openbind_d68ev3c_c2_elabs_scored,openbind_d68ev3c_c2_elabs_scored_4.5plus,openbind_d68ev3c_c2_elabs,openbind_d68ev3c_c2_elabs_scored_5plus,syndirella_product,openbind_d68ev3c_c2_elabs_scored_top80percent,syndirella_placed

>  <smiles>  (148) 
CC(=O)c1cc(Br)c(F)cc1NC(=O)c1ccncc1I

>  <subsites>  (148) 
None

>  <rmsd(smina/fragmenstein)>  (148) 
1.433

>  <alias>  (148) 
None

>  <energy_score>  (148) 
-29.277777

>  <HIPPO Pose ID>  (148) 
64681

>  <distance_score>  (148) 
0.548852

>  <HIPPO Compound ID>  (148) 
101255

>  <gnina_score_min>  (148) 
5.16

>  <name>  (148) 
P64681

>  <exports>  (148) 
['/opt/xchem-fragalysis-2/maxwin/BulkDock/OUTPUTS/openbind_d68ev3c_c2_elabs_1LOTQJ3.sdf', '/opt/xchem-fragalysis-2/maxwin/BulkDock/OUTPUTS/openbind_d68ev3c_c2_elabs_1LSYEHW.sdf', '/opt/xchem-fragalysis-2/maxwin/BulkDock/OUTPUTS/openbind_d68ev3c_c2_elabs_1LSYI5W.sdf']

$$$$
P64714
     RDKit          3D

 21 22  0  0  0  0  0  0  0  0999 V2000
    3.9658   -3.2613   34.2420 C   0  0  0  0  0  0  0  0  0  0  0  0
    2.4852   -3.5093   34.3638 C   0  0  0  0  0  0  0  0  0  0  0  0
    1.7718   -3.6587   33.3716 O   0  0  0  0  0  0  0  0  0  0  0  0
    1.8823   -3.5499   35.7253 C   0  0  0  0  0  0  0  0  0  0  0  0
    2.3976   -2.7380   36.7487 C   0  0  0  0  0  0  0  0  0  0  0  0
    1.8702   -2.8182   38.0398 C   0  0  0  0  0  0  0  0  0  0  0  0
    0.8424   -3.7149   38.3074 C   0  0  0  0  0  0  0  0  0  0  0  0
    0.3207   -3.7622   39.5414 F   0  0  0  0  0  0  0  0  0  0  0  0
    0.3390   -4.5357   37.3055 C   0  0  0  0  0  0  0  0  0  0  0  0
   -0.6884   -5.3475   37.5972 F   0  0  0  0  0  0  0  0  0  0  0  0
    0.8441   -4.4533   36.0029 C   0  0  0  0  0  0  0  0  0  0  0  0
    0.3179   -5.2490   34.9885 N   0  0  0  0  0  0  0  0  0  0  0  0
   -0.2021   -6.6975   35.0218 C   0  0  0  0  0  0  0  0  0  0  0  0
   -0.3437   -7.4276   35.9171 O   0  0  0  0  0  0  0  0  0  0  0  0
   -0.6807   -7.1635   33.6744 C   0  0  0  0  0  0  0  0  0  0  0  0
   -0.0274   -6.7501   32.5058 C   0  0  0  0  0  0  0  0  0  0  0  0
   -0.4837   -7.2094   31.2796 C   0  0  0  0  0  0  0  0  0  0  0  0
   -1.5197   -8.0601   31.1358 N   0  0  0  0  0  0  0  0  0  0  0  0
   -2.1030   -8.4791   32.2782 C   0  0  0  0  0  0  0  0  0  0  0  0
   -1.7488   -8.0581   33.5491 C   0  0  0  0  0  0  0  0  0  0  0  0
   -2.9955   -8.7581   35.0427 I   0  0  0  0  0  0  0  0  0  0  0  0
  1  2  1  0
  2  3  2  0
  2  4  1  0
  4  5  2  0
  5  6  1  0
  6  7  2  0
  7  8  1  0
  7  9  1  0
  9 10  1  0
  9 11  2  0
 11 12  1  0
 12 13  1  0
 13 14  2  0
 13 15  1  0
 15 16  2  0
 16 17  1  0
 17 18  2  0
 18 19  1  0
 19 20  2  0
 20 21  1  0
 11  4  1  0
 20 15  1  0
M  END
>  <ref_mols>  (149) 
7gov-a

>  <gnina_score>  (149) 
5.291

>  <smina_score_min>  (149) 
-4.719

>  <ref_pdb>  (149) 
7gov-a

>  <inspiration_score>  (149) 
None

>  <inchikey>  (149) 
AMIVZALHQFJLIZ-UHFFFAOYSA-N

>  <tags>  (149) 
BulkDock Fragalysis export,openbind_d68ev3c_c2_elabs_scored,openbind_d68ev3c_c2_elabs_scored_4.5plus,openbind_d68ev3c_c2_elabs,openbind_d68ev3c_c2_elabs_scored_5plus,syndirella_product,openbind_d68ev3c_c2_elabs_scored_top80percent,syndirella_placed

>  <smiles>  (149) 
CC(=O)c1ccc(F)c(F)c1NC(=O)c1ccncc1I

>  <subsites>  (149) 
None

>  <rmsd(smina/fragmenstein)>  (149) 
0.549

>  <alias>  (149) 
None

>  <energy_score>  (149) 
-12.787939

>  <HIPPO Pose ID>  (149) 
64714

>  <distance_score>  (149) 
0.536254

>  <HIPPO Compound ID>  (149) 
101318

>  <gnina_score_min>  (149) 
5.28

>  <name>  (149) 
P64714

>  <exports>  (149) 
['/opt/xchem-fragalysis-2/maxwin/BulkDock/OUTPUTS/openbind_d68ev3c_c2_elabs_1LOTQJ3.sdf', '/opt/xchem-fragalysis-2/maxwin/BulkDock/OUTPUTS/openbind_d68ev3c_c2_elabs_1LSYEHW.sdf', '/opt/xchem-fragalysis-2/maxwin/BulkDock/OUTPUTS/openbind_d68ev3c_c2_elabs_1LSYI5W.sdf']

$$$$
P64715
     RDKit          3D

 21 22  0  0  0  0  0  0  0  0999 V2000
    2.7127   -3.5747   34.4211 C   0  0  0  0  0  0  0  0  0  0  0  0
    2.0039   -3.5960   35.7501 C   0  0  0  0  0  0  0  0  0  0  0  0
    0.9408   -4.4842   35.9848 C   0  0  0  0  0  0  0  0  0  0  0  0
    0.4641   -5.3031   34.9662 N   0  0  0  0  0  0  0  0  0  0  0  0
   -0.2083   -6.6896   35.0276 C   0  0  0  0  0  0  0  0  0  0  0  0
   -0.3985   -7.3964   35.9335 O   0  0  0  0  0  0  0  0  0  0  0  0
   -0.6940   -7.1619   33.6797 C   0  0  0  0  0  0  0  0  0  0  0  0
   -0.0337   -6.7731   32.5050 C   0  0  0  0  0  0  0  0  0  0  0  0
   -0.4946   -7.2356   31.2813 C   0  0  0  0  0  0  0  0  0  0  0  0
   -1.5415   -8.0706   31.1444 N   0  0  0  0  0  0  0  0  0  0  0  0
   -2.1267   -8.4780   32.2893 C   0  0  0  0  0  0  0  0  0  0  0  0
   -1.7679   -8.0520   33.5583 C   0  0  0  0  0  0  0  0  0  0  0  0
   -3.0117   -8.7585   35.0520 I   0  0  0  0  0  0  0  0  0  0  0  0
    0.3491   -4.5800   37.2502 C   0  0  0  0  0  0  0  0  0  0  0  0
    0.7837   -3.7646   38.2859 C   0  0  0  0  0  0  0  0  0  0  0  0
    0.1878   -3.8410   39.4829 F   0  0  0  0  0  0  0  0  0  0  0  0
    1.8128   -2.8608   38.0954 C   0  0  0  0  0  0  0  0  0  0  0  0
    2.4149   -2.7852   36.8330 C   0  0  0  0  0  0  0  0  0  0  0  0
    3.4898   -1.8111   36.6802 N   0  0  0  0  0  0  0  0  0  0  0  0
    3.4442   -1.0618   35.6939 O   0  0  0  0  0  0  0  0  0  0  0  0
    4.3557   -1.7694   37.5660 O   0  0  0  0  0  0  0  0  0  0  0  0
  1  2  1  0
  2  3  2  0
  3  4  1  0
  4  5  1  0
  5  6  2  0
  5  7  1  0
  7  8  2  0
  8  9  1  0
  9 10  2  0
 10 11  1  0
 11 12  2  0
 12 13  1  0
  3 14  1  0
 14 15  2  0
 15 16  1  0
 15 17  1  0
 17 18  2  0
 18 19  1  0
 19 20  2  0
 19 21  1  0
 18  2  1  0
 12  7  1  0
M  CHG  2  19   1  21  -1
M  END
>  <ref_mols>  (150) 
7gov-a

>  <gnina_score>  (150) 
5.09

>  <smina_score_min>  (150) 
-5.034

>  <ref_pdb>  (150) 
7gov-a

>  <inspiration_score>  (150) 
None

>  <inchikey>  (150) 
VXDTYRKOLUHBFD-UHFFFAOYSA-N

>  <tags>  (150) 
BulkDock Fragalysis export,openbind_d68ev3c_c2_elabs_scored,openbind_d68ev3c_c2_elabs_scored_4.5plus,openbind_d68ev3c_c2_elabs,openbind_d68ev3c_c2_elabs_scored_5plus,syndirella_product,openbind_d68ev3c_c2_elabs_scored_top80percent,syndirella_placed

>  <smiles>  (150) 
Cc1c(NC(=O)c2ccncc2I)cc(F)cc1[N+](=O)[O-]

>  <subsites>  (150) 
None

>  <rmsd(smina/fragmenstein)>  (150) 
1.186

>  <alias>  (150) 
None

>  <energy_score>  (150) 
-6.376025

>  <HIPPO Pose ID>  (150) 
64715

>  <distance_score>  (150) 
0.528997

>  <HIPPO Compound ID>  (150) 
101320

>  <gnina_score_min>  (150) 
5.125

>  <name>  (150) 
P64715

>  <exports>  (150) 
['/opt/xchem-fragalysis-2/maxwin/BulkDock/OUTPUTS/openbind_d68ev3c_c2_elabs_1LOTQJ3.sdf', '/opt/xchem-fragalysis-2/maxwin/BulkDock/OUTPUTS/openbind_d68ev3c_c2_elabs_1LSYEHW.sdf', '/opt/xchem-fragalysis-2/maxwin/BulkDock/OUTPUTS/openbind_d68ev3c_c2_elabs_1LSYI5W.sdf']

$$$$
P64726
     RDKit          3D

 21 22  0  0  0  0  0  0  0  0999 V2000
    3.0030   -3.2478   33.2906 C   0  0  0  0  0  0  0  0  0  0  0  0
    2.5009   -3.3621   34.3755 C   0  0  0  0  0  0  0  0  0  0  0  0
    1.9035   -3.4936   35.6737 C   0  0  0  0  0  0  0  0  0  0  0  0
    2.3878   -2.7012   36.7222 C   0  0  0  0  0  0  0  0  0  0  0  0
    1.8645   -2.8452   38.0091 C   0  0  0  0  0  0  0  0  0  0  0  0
    2.4647   -1.8465   39.2784 Cl  0  0  0  0  0  0  0  0  0  0  0  0
    0.8601   -3.7750   38.2541 C   0  0  0  0  0  0  0  0  0  0  0  0
    0.3115   -3.8829   39.4748 F   0  0  0  0  0  0  0  0  0  0  0  0
    0.3970   -4.5828   37.2225 C   0  0  0  0  0  0  0  0  0  0  0  0
   -0.6045   -5.4392   37.4774 F   0  0  0  0  0  0  0  0  0  0  0  0
    0.9097   -4.4500   35.9254 C   0  0  0  0  0  0  0  0  0  0  0  0
    0.4436   -5.2584   34.8881 N   0  0  0  0  0  0  0  0  0  0  0  0
   -0.0500   -6.7161   34.9012 C   0  0  0  0  0  0  0  0  0  0  0  0
   -0.0735   -7.4966   35.7641 O   0  0  0  0  0  0  0  0  0  0  0  0
   -0.6082   -7.1404   33.5786 C   0  0  0  0  0  0  0  0  0  0  0  0
    0.0124   -6.7277   32.3932 C   0  0  0  0  0  0  0  0  0  0  0  0
   -0.4913   -7.1775   31.1839 C   0  0  0  0  0  0  0  0  0  0  0  0
   -1.5477   -8.0075   31.0765 N   0  0  0  0  0  0  0  0  0  0  0  0
   -2.1013   -8.4210   32.2362 C   0  0  0  0  0  0  0  0  0  0  0  0
   -1.6948   -8.0140   33.4933 C   0  0  0  0  0  0  0  0  0  0  0  0
   -2.8813   -8.7025   35.0315 I   0  0  0  0  0  0  0  0  0  0  0  0
  1  2  3  0
  2  3  1  0
  3  4  2  0
  4  5  1  0
  5  6  1  0
  5  7  2  0
  7  8  1  0
  7  9  1  0
  9 10  1  0
  9 11  2  0
 11 12  1  0
 12 13  1  0
 13 14  2  0
 13 15  1  0
 15 16  2  0
 16 17  1  0
 17 18  2  0
 18 19  1  0
 19 20  2  0
 20 21  1  0
 11  3  1  0
 20 15  1  0
M  END
>  <ref_mols>  (151) 
7gov-a

>  <gnina_score>  (151) 
5.471

>  <smina_score_min>  (151) 
-4.634

>  <ref_pdb>  (151) 
7gov-a

>  <inspiration_score>  (151) 
None

>  <inchikey>  (151) 
PXZCSGYPTVKPBK-UHFFFAOYSA-N

>  <tags>  (151) 
BulkDock Fragalysis export,openbind_d68ev3c_c2_elabs_scored,openbind_d68ev3c_c2_elabs_scored_4.5plus,openbind_d68ev3c_c2_elabs,openbind_d68ev3c_c2_elabs_scored_5plus,syndirella_product,openbind_d68ev3c_c2_elabs_scored_top80percent,syndirella_placed

>  <smiles>  (151) 
C#Cc1cc(Cl)c(F)c(F)c1NC(=O)c1ccncc1I

>  <subsites>  (151) 
None

>  <rmsd(smina/fragmenstein)>  (151) 
0.525

>  <alias>  (151) 
None

>  <energy_score>  (151) 
-1.692287

>  <HIPPO Pose ID>  (151) 
64726

>  <distance_score>  (151) 
0.508608

>  <HIPPO Compound ID>  (151) 
101341

>  <gnina_score_min>  (151) 
5.453

>  <name>  (151) 
P64726

>  <exports>  (151) 
['/opt/xchem-fragalysis-2/maxwin/BulkDock/OUTPUTS/openbind_d68ev3c_c2_elabs_1LOTQJ3.sdf', '/opt/xchem-fragalysis-2/maxwin/BulkDock/OUTPUTS/openbind_d68ev3c_c2_elabs_1LSYEHW.sdf', '/opt/xchem-fragalysis-2/maxwin/BulkDock/OUTPUTS/openbind_d68ev3c_c2_elabs_1LSYI5W.sdf']

$$$$
P64731
     RDKit          3D

 21 22  0  0  0  0  0  0  0  0999 V2000
    3.7690   -2.9522   33.9034 N   0  0  0  0  0  0  0  0  0  0  0  0
    3.0127   -3.2485   34.7352 C   0  0  0  0  0  0  0  0  0  0  0  0
    2.1450   -3.4188   35.8666 C   0  0  0  0  0  0  0  0  0  0  0  0
    2.6049   -2.8416   37.0716 C   0  0  0  0  0  0  0  0  0  0  0  0
    1.8363   -2.8694   38.2353 C   0  0  0  0  0  0  0  0  0  0  0  0
    0.5850   -3.4563   38.1978 C   0  0  0  0  0  0  0  0  0  0  0  0
   -0.1572   -3.4967   39.3124 F   0  0  0  0  0  0  0  0  0  0  0  0
    0.1069   -4.0088   37.0161 C   0  0  0  0  0  0  0  0  0  0  0  0
   -1.1147   -4.5698   37.0114 F   0  0  0  0  0  0  0  0  0  0  0  0
    0.8800   -4.0240   35.8390 C   0  0  0  0  0  0  0  0  0  0  0  0
    0.3055   -4.7253   34.7663 N   0  0  0  0  0  0  0  0  0  0  0  0
    0.9395   -5.2680   33.4703 C   0  0  0  0  0  0  0  0  0  0  0  0
    2.0211   -5.1519   33.0525 O   0  0  0  0  0  0  0  0  0  0  0  0
    0.0129   -6.1421   32.6796 C   0  0  0  0  0  0  0  0  0  0  0  0
    0.1560   -6.0156   31.2910 C   0  0  0  0  0  0  0  0  0  0  0  0
   -0.5671   -6.8398   30.4551 C   0  0  0  0  0  0  0  0  0  0  0  0
   -1.4479   -7.7478   30.9002 N   0  0  0  0  0  0  0  0  0  0  0  0
   -1.5410   -7.8825   32.2419 C   0  0  0  0  0  0  0  0  0  0  0  0
   -2.6505   -9.1271   32.6222 Cl  0  0  0  0  0  0  0  0  0  0  0  0
   -0.8444   -7.1282   33.1846 C   0  0  0  0  0  0  0  0  0  0  0  0
   -1.0515   -7.5647   35.2125 I   0  0  0  0  0  0  0  0  0  0  0  0
  1  2  3  0
  2  3  1  0
  3  4  2  0
  4  5  1  0
  5  6  2  0
  6  7  1  0
  6  8  1  0
  8  9  1  0
  8 10  2  0
 10 11  1  0
 11 12  1  0
 12 13  2  0
 12 14  1  0
 14 15  2  0
 15 16  1  0
 16 17  2  0
 17 18  1  0
 18 19  1  0
 18 20  2  0
 20 21  1  0
 10  3  1  0
 20 14  1  0
M  END
>  <ref_mols>  (152) 
7gov-a

>  <gnina_score>  (152) 
5.428

>  <smina_score_min>  (152) 
-5.121

>  <ref_pdb>  (152) 
7gov-a

>  <inspiration_score>  (152) 
None

>  <inchikey>  (152) 
RCMTXDPNKSOEAZ-UHFFFAOYSA-N

>  <tags>  (152) 
BulkDock Fragalysis export,openbind_d68ev3c_c2_elabs_scored,openbind_d68ev3c_c2_elabs_scored_4.5plus,openbind_d68ev3c_c2_elabs,openbind_d68ev3c_c2_elabs_scored_5plus,syndirella_product,openbind_d68ev3c_c2_elabs_scored_top80percent,syndirella_placed

>  <smiles>  (152) 
N#Cc1ccc(F)c(F)c1NC(=O)c1ccnc(Cl)c1I

>  <subsites>  (152) 
None

>  <rmsd(smina/fragmenstein)>  (152) 
1.419

>  <alias>  (152) 
None

>  <energy_score>  (152) 
-10.564303

>  <HIPPO Pose ID>  (152) 
64731

>  <distance_score>  (152) 
1.218323

>  <HIPPO Compound ID>  (152) 
101356

>  <gnina_score_min>  (152) 
5.474

>  <name>  (152) 
P64731

>  <exports>  (152) 
['/opt/xchem-fragalysis-2/maxwin/BulkDock/OUTPUTS/openbind_d68ev3c_c2_elabs_1LOTQJ3.sdf', '/opt/xchem-fragalysis-2/maxwin/BulkDock/OUTPUTS/openbind_d68ev3c_c2_elabs_1LSYEHW.sdf', '/opt/xchem-fragalysis-2/maxwin/BulkDock/OUTPUTS/openbind_d68ev3c_c2_elabs_1LSYI5W.sdf']

$$$$
P64742
     RDKit          3D

 21 22  0  0  0  0  0  0  0  0999 V2000
    3.9430   -3.1209   34.4042 O   0  0  0  0  0  0  0  0  0  0  0  0
    3.1580   -4.0020   34.7361 C   0  0  0  0  0  0  0  0  0  0  0  0
    2.2684   -3.8562   35.9076 C   0  0  0  0  0  0  0  0  0  0  0  0
    2.6673   -2.9547   36.9074 C   0  0  0  0  0  0  0  0  0  0  0  0
    1.9150   -2.8324   38.0722 C   0  0  0  0  0  0  0  0  0  0  0  0
    2.4388   -1.7615   39.3140 Cl  0  0  0  0  0  0  0  0  0  0  0  0
    0.7532   -3.5813   38.2239 C   0  0  0  0  0  0  0  0  0  0  0  0
    0.0163   -3.4839   39.3407 F   0  0  0  0  0  0  0  0  0  0  0  0
    0.3270   -4.4458   37.2178 C   0  0  0  0  0  0  0  0  0  0  0  0
    1.0836   -4.6016   36.0496 C   0  0  0  0  0  0  0  0  0  0  0  0
    0.6064   -5.4411   35.0344 N   0  0  0  0  0  0  0  0  0  0  0  0
   -0.6653   -6.3106   34.9687 C   0  0  0  0  0  0  0  0  0  0  0  0
   -1.4777   -6.5258   35.7793 O   0  0  0  0  0  0  0  0  0  0  0  0
   -0.8560   -6.9836   33.6391 C   0  0  0  0  0  0  0  0  0  0  0  0
   -1.5164   -8.2218   33.7404 C   0  0  0  0  0  0  0  0  0  0  0  0
   -1.8691   -8.8904   32.5927 C   0  0  0  0  0  0  0  0  0  0  0  0
   -1.5745   -8.4475   31.3630 N   0  0  0  0  0  0  0  0  0  0  0  0
   -0.8928   -7.2796   31.2747 C   0  0  0  0  0  0  0  0  0  0  0  0
   -0.5945   -6.8967   29.6197 Cl  0  0  0  0  0  0  0  0  0  0  0  0
   -0.5488   -6.4753   32.3636 C   0  0  0  0  0  0  0  0  0  0  0  0
    0.1986   -4.5341   32.0049 I   0  0  0  0  0  0  0  0  0  0  0  0
  1  2  2  0
  2  3  1  0
  3  4  2  0
  4  5  1  0
  5  6  1  0
  5  7  2  0
  7  8  1  0
  7  9  1  0
  9 10  2  0
 10 11  1  0
 11 12  1  0
 12 13  2  0
 12 14  1  0
 14 15  2  0
 15 16  1  0
 16 17  2  0
 17 18  1  0
 18 19  1  0
 18 20  2  0
 20 21  1  0
 10  3  1  0
 20 14  1  0
M  END
>  <ref_mols>  (153) 
7gov-a

>  <gnina_score>  (153) 
5.26

>  <smina_score_min>  (153) 
-5.444

>  <ref_pdb>  (153) 
7gov-a

>  <inspiration_score>  (153) 
None

>  <inchikey>  (153) 
FEBRYEDNXACDCY-UHFFFAOYSA-N

>  <tags>  (153) 
BulkDock Fragalysis export,openbind_d68ev3c_c2_elabs_scored,openbind_d68ev3c_c2_elabs_scored_4.5plus,openbind_d68ev3c_c2_elabs,openbind_d68ev3c_c2_elabs_scored_5plus,syndirella_product,openbind_d68ev3c_c2_elabs_scored_top80percent,syndirella_placed

>  <smiles>  (153) 
O=Cc1cc(Cl)c(F)cc1NC(=O)c1ccnc(Cl)c1I

>  <subsites>  (153) 
None

>  <rmsd(smina/fragmenstein)>  (153) 
0.402

>  <alias>  (153) 
None

>  <energy_score>  (153) 
-13.202147

>  <HIPPO Pose ID>  (153) 
64742

>  <distance_score>  (153) 
0.749529

>  <HIPPO Compound ID>  (153) 
101374

>  <gnina_score_min>  (153) 
5.221

>  <name>  (153) 
P64742

>  <exports>  (153) 
['/opt/xchem-fragalysis-2/maxwin/BulkDock/OUTPUTS/openbind_d68ev3c_c2_elabs_1LOTQJ3.sdf', '/opt/xchem-fragalysis-2/maxwin/BulkDock/OUTPUTS/openbind_d68ev3c_c2_elabs_1LSYEHW.sdf', '/opt/xchem-fragalysis-2/maxwin/BulkDock/OUTPUTS/openbind_d68ev3c_c2_elabs_1LSYI5W.sdf']

$$$$
P64743
     RDKit          3D

 21 22  0  0  0  0  0  0  0  0999 V2000
    1.5077   -6.8531   35.0314 O   0  0  0  0  0  0  0  0  0  0  0  0
    0.6803   -6.1472   34.6203 C   0  0  0  0  0  0  0  0  0  0  0  0
    0.1982   -4.7816   35.1241 N   0  0  0  0  0  0  0  0  0  0  0  0
    0.6762   -3.9811   36.1449 C   0  0  0  0  0  0  0  0  0  0  0  0
   -0.2017   -3.7070   37.1920 C   0  0  0  0  0  0  0  0  0  0  0  0
    0.2912   -3.1274   38.3546 C   0  0  0  0  0  0  0  0  0  0  0  0
   -0.5314   -2.9984   39.4042 F   0  0  0  0  0  0  0  0  0  0  0  0
    1.6179   -2.7247   38.4447 C   0  0  0  0  0  0  0  0  0  0  0  0
    2.2746   -1.9057   40.0171 Br  0  0  0  0  0  0  0  0  0  0  0  0
    2.4766   -2.9381   37.3711 C   0  0  0  0  0  0  0  0  0  0  0  0
    2.0365   -3.6268   36.2251 C   0  0  0  0  0  0  0  0  0  0  0  0
    3.0235   -3.8598   35.1024 C   0  0  0  0  0  0  0  0  0  0  0  0
    4.3358   -4.1208   35.5931 O   0  0  0  0  0  0  0  0  0  0  0  0
   -0.0626   -6.5603   33.4070 C   0  0  0  0  0  0  0  0  0  0  0  0
    0.3779   -6.1333   32.1562 C   0  0  0  0  0  0  0  0  0  0  0  0
   -0.2477   -6.6552   31.0357 C   0  0  0  0  0  0  0  0  0  0  0  0
   -1.2555   -7.5506   31.0871 N   0  0  0  0  0  0  0  0  0  0  0  0
   -1.6203   -7.9561   32.3211 C   0  0  0  0  0  0  0  0  0  0  0  0
   -2.8204   -9.1658   32.2666 Cl  0  0  0  0  0  0  0  0  0  0  0  0
   -1.0942   -7.4789   33.5050 C   0  0  0  0  0  0  0  0  0  0  0  0
   -1.8431   -8.0380   35.3134 I   0  0  0  0  0  0  0  0  0  0  0  0
  1  2  2  0
  2  3  1  0
  3  4  1  0
  4  5  2  0
  5  6  1  0
  6  7  1  0
  6  8  2  0
  8  9  1  0
  8 10  1  0
 10 11  2  0
 11 12  1  0
 12 13  1  0
  2 14  1  0
 14 15  2  0
 15 16  1  0
 16 17  2  0
 17 18  1  0
 18 19  1  0
 18 20  2  0
 20 21  1  0
 11  4  1  0
 20 14  1  0
M  END
>  <ref_mols>  (154) 
7gov-a

>  <gnina_score>  (154) 
5.199

>  <smina_score_min>  (154) 
-4.343

>  <ref_pdb>  (154) 
7gov-a

>  <inspiration_score>  (154) 
None

>  <inchikey>  (154) 
SQUQMXRALBIGPD-UHFFFAOYSA-N

>  <tags>  (154) 
BulkDock Fragalysis export,openbind_d68ev3c_c2_elabs_scored,openbind_d68ev3c_c2_elabs_scored_4.5plus,openbind_d68ev3c_c2_elabs,openbind_d68ev3c_c2_elabs_scored_5plus,syndirella_product,openbind_d68ev3c_c2_elabs_scored_top80percent,syndirella_placed

>  <smiles>  (154) 
O=C(Nc1cc(F)c(Br)cc1CO)c1ccnc(Cl)c1I

>  <subsites>  (154) 
None

>  <rmsd(smina/fragmenstein)>  (154) 
1.153

>  <alias>  (154) 
None

>  <energy_score>  (154) 
-7.867269

>  <HIPPO Pose ID>  (154) 
64743

>  <distance_score>  (154) 
0.744768

>  <HIPPO Compound ID>  (154) 
101375

>  <gnina_score_min>  (154) 
5.062

>  <name>  (154) 
P64743

>  <exports>  (154) 
['/opt/xchem-fragalysis-2/maxwin/BulkDock/OUTPUTS/openbind_d68ev3c_c2_elabs_1LOTQJ3.sdf', '/opt/xchem-fragalysis-2/maxwin/BulkDock/OUTPUTS/openbind_d68ev3c_c2_elabs_1LSYEHW.sdf', '/opt/xchem-fragalysis-2/maxwin/BulkDock/OUTPUTS/openbind_d68ev3c_c2_elabs_1LSYI5W.sdf']

$$$$
P64744
     RDKit          3D

 21 22  0  0  0  0  0  0  0  0999 V2000
    4.0745   -2.6501   34.6752 O   0  0  0  0  0  0  0  0  0  0  0  0
    2.9114   -3.0392   34.6158 C   0  0  0  0  0  0  0  0  0  0  0  0
    2.1169   -3.3393   35.8267 C   0  0  0  0  0  0  0  0  0  0  0  0
    2.6278   -2.8296   37.0359 C   0  0  0  0  0  0  0  0  0  0  0  0
    1.8879   -2.9221   38.2114 C   0  0  0  0  0  0  0  0  0  0  0  0
    2.6008   -2.2438   39.8253 Br  0  0  0  0  0  0  0  0  0  0  0  0
    0.6251   -3.4956   38.1803 C   0  0  0  0  0  0  0  0  0  0  0  0
   -0.1154   -3.5909   39.2944 F   0  0  0  0  0  0  0  0  0  0  0  0
    0.1048   -3.9986   36.9900 C   0  0  0  0  0  0  0  0  0  0  0  0
    0.8584   -3.9638   35.8036 C   0  0  0  0  0  0  0  0  0  0  0  0
    0.2987   -4.6778   34.7328 N   0  0  0  0  0  0  0  0  0  0  0  0
    0.9579   -5.2680   33.4666 C   0  0  0  0  0  0  0  0  0  0  0  0
    2.0547   -5.1868   33.0775 O   0  0  0  0  0  0  0  0  0  0  0  0
    0.0305   -6.1417   32.6784 C   0  0  0  0  0  0  0  0  0  0  0  0
    0.1734   -6.0268   31.2897 C   0  0  0  0  0  0  0  0  0  0  0  0
   -0.5591   -6.8522   30.4626 C   0  0  0  0  0  0  0  0  0  0  0  0
   -1.4444   -7.7519   30.9172 N   0  0  0  0  0  0  0  0  0  0  0  0
   -1.5331   -7.8783   32.2600 C   0  0  0  0  0  0  0  0  0  0  0  0
   -2.6460   -9.1151   32.6544 Cl  0  0  0  0  0  0  0  0  0  0  0  0
   -0.8314   -7.1185   33.1943 C   0  0  0  0  0  0  0  0  0  0  0  0
   -1.0399   -7.5233   35.2308 I   0  0  0  0  0  0  0  0  0  0  0  0
  1  2  2  0
  2  3  1  0
  3  4  2  0
  4  5  1  0
  5  6  1  0
  5  7  2  0
  7  8  1  0
  7  9  1  0
  9 10  2  0
 10 11  1  0
 11 12  1  0
 12 13  2  0
 12 14  1  0
 14 15  2  0
 15 16  1  0
 16 17  2  0
 17 18  1  0
 18 19  1  0
 18 20  2  0
 20 21  1  0
 10  3  1  0
 20 14  1  0
M  END
>  <ref_mols>  (155) 
7gov-a

>  <gnina_score>  (155) 
5.364

>  <smina_score_min>  (155) 
-5.001

>  <ref_pdb>  (155) 
7gov-a

>  <inspiration_score>  (155) 
None

>  <inchikey>  (155) 
ZCURUWILBNCYBO-UHFFFAOYSA-N

>  <tags>  (155) 
BulkDock Fragalysis export,openbind_d68ev3c_c2_elabs_scored,openbind_d68ev3c_c2_elabs_scored_4.5plus,openbind_d68ev3c_c2_elabs,openbind_d68ev3c_c2_elabs_scored_5plus,syndirella_product,openbind_d68ev3c_c2_elabs_scored_top80percent,syndirella_placed

>  <smiles>  (155) 
O=Cc1cc(Br)c(F)cc1NC(=O)c1ccnc(Cl)c1I

>  <subsites>  (155) 
None

>  <rmsd(smina/fragmenstein)>  (155) 
1.769

>  <alias>  (155) 
None

>  <energy_score>  (155) 
-14.907101

>  <HIPPO Pose ID>  (155) 
64744

>  <distance_score>  (155) 
1.224852

>  <HIPPO Compound ID>  (155) 
101376

>  <gnina_score_min>  (155) 
5.326

>  <name>  (155) 
P64744

>  <exports>  (155) 
['/opt/xchem-fragalysis-2/maxwin/BulkDock/OUTPUTS/openbind_d68ev3c_c2_elabs_1LOTQJ3.sdf', '/opt/xchem-fragalysis-2/maxwin/BulkDock/OUTPUTS/openbind_d68ev3c_c2_elabs_1LSYEHW.sdf', '/opt/xchem-fragalysis-2/maxwin/BulkDock/OUTPUTS/openbind_d68ev3c_c2_elabs_1LSYI5W.sdf']

$$$$
P64749
     RDKit          3D

 21 22  0  0  0  0  0  0  0  0999 V2000
    2.0404   -5.2081   33.1220 O   0  0  0  0  0  0  0  0  0  0  0  0
    0.9353   -5.2697   33.4916 C   0  0  0  0  0  0  0  0  0  0  0  0
    0.2660   -4.6754   34.7508 N   0  0  0  0  0  0  0  0  0  0  0  0
    0.8212   -3.9808   35.8370 C   0  0  0  0  0  0  0  0  0  0  0  0
    0.0079   -3.9691   36.9865 C   0  0  0  0  0  0  0  0  0  0  0  0
    0.4736   -3.4442   38.1858 C   0  0  0  0  0  0  0  0  0  0  0  0
   -0.2965   -3.5042   39.2797 F   0  0  0  0  0  0  0  0  0  0  0  0
    1.7300   -2.8801   38.2693 C   0  0  0  0  0  0  0  0  0  0  0  0
    2.5281   -2.8455   37.1297 C   0  0  0  0  0  0  0  0  0  0  0  0
    2.0952   -3.3909   35.8972 C   0  0  0  0  0  0  0  0  0  0  0  0
    3.0481   -3.2681   34.7344 C   0  0  0  0  0  0  0  0  0  0  0  0
    2.4647   -2.7018   33.6377 F   0  0  0  0  0  0  0  0  0  0  0  0
    4.1062   -2.4336   35.0054 F   0  0  0  0  0  0  0  0  0  0  0  0
    0.0112   -6.1314   32.6908 C   0  0  0  0  0  0  0  0  0  0  0  0
    0.1604   -6.0046   31.3042 C   0  0  0  0  0  0  0  0  0  0  0  0
   -0.5613   -6.8306   30.4685 C   0  0  0  0  0  0  0  0  0  0  0  0
   -1.4419   -7.7409   30.9127 N   0  0  0  0  0  0  0  0  0  0  0  0
   -1.5379   -7.8747   32.2545 C   0  0  0  0  0  0  0  0  0  0  0  0
   -2.6445   -9.1212   32.6363 Cl  0  0  0  0  0  0  0  0  0  0  0  0
   -0.8459   -7.1168   33.1969 C   0  0  0  0  0  0  0  0  0  0  0  0
   -1.0560   -7.5372   35.2294 I   0  0  0  0  0  0  0  0  0  0  0  0
  1  2  2  0
  2  3  1  0
  3  4  1  0
  4  5  2  0
  5  6  1  0
  6  7  1  0
  6  8  2  0
  8  9  1  0
  9 10  2  0
 10 11  1  0
 11 12  1  0
 11 13  1  0
  2 14  1  0
 14 15  2  0
 15 16  1  0
 16 17  2  0
 17 18  1  0
 18 19  1  0
 18 20  2  0
 20 21  1  0
 10  4  1  0
 20 14  1  0
M  END
>  <ref_mols>  (156) 
7gov-a

>  <gnina_score>  (156) 
5.281

>  <smina_score_min>  (156) 
-5.072

>  <ref_pdb>  (156) 
7gov-a

>  <inspiration_score>  (156) 
None

>  <inchikey>  (156) 
VMXXAKYNHPKKOR-UHFFFAOYSA-N

>  <tags>  (156) 
BulkDock Fragalysis export,openbind_d68ev3c_c2_elabs_scored,openbind_d68ev3c_c2_elabs_scored_4.5plus,openbind_d68ev3c_c2_elabs,openbind_d68ev3c_c2_elabs_scored_5plus,syndirella_product,openbind_d68ev3c_c2_elabs_scored_top80percent,syndirella_placed

>  <smiles>  (156) 
O=C(Nc1cc(F)ccc1C(F)F)c1ccnc(Cl)c1I

>  <subsites>  (156) 
None

>  <rmsd(smina/fragmenstein)>  (156) 
1.544

>  <alias>  (156) 
None

>  <energy_score>  (156) 
-17.535555

>  <HIPPO Pose ID>  (156) 
64749

>  <distance_score>  (156) 
1.210833

>  <HIPPO Compound ID>  (156) 
101383

>  <gnina_score_min>  (156) 
5.303

>  <name>  (156) 
P64749

>  <exports>  (156) 
['/opt/xchem-fragalysis-2/maxwin/BulkDock/OUTPUTS/openbind_d68ev3c_c2_elabs_1LOTQJ3.sdf', '/opt/xchem-fragalysis-2/maxwin/BulkDock/OUTPUTS/openbind_d68ev3c_c2_elabs_1LSYEHW.sdf', '/opt/xchem-fragalysis-2/maxwin/BulkDock/OUTPUTS/openbind_d68ev3c_c2_elabs_1LSYI5W.sdf']

$$$$
P64751
     RDKit          3D

 21 22  0  0  0  0  0  0  0  0999 V2000
    3.8902   -1.8473   34.3053 C   0  0  0  0  0  0  0  0  0  0  0  0
    2.8292   -2.9360   34.4202 C   0  0  0  0  0  0  0  0  0  0  0  0
    2.1498   -3.0945   35.7639 C   0  0  0  0  0  0  0  0  0  0  0  0
    2.5156   -2.3500   36.8976 C   0  0  0  0  0  0  0  0  0  0  0  0
    1.9302   -2.6044   38.1445 C   0  0  0  0  0  0  0  0  0  0  0  0
    2.4481   -1.5675   39.6406 Br  0  0  0  0  0  0  0  0  0  0  0  0
    0.9818   -3.6101   38.2791 C   0  0  0  0  0  0  0  0  0  0  0  0
    0.3833   -3.8451   39.4571 F   0  0  0  0  0  0  0  0  0  0  0  0
    0.6253   -4.3778   37.1825 C   0  0  0  0  0  0  0  0  0  0  0  0
    1.1941   -4.1057   35.9343 C   0  0  0  0  0  0  0  0  0  0  0  0
    0.7879   -4.8752   34.8597 N   0  0  0  0  0  0  0  0  0  0  0  0
    0.6015   -6.3919   34.7344 C   0  0  0  0  0  0  0  0  0  0  0  0
    0.8331   -7.2457   35.4908 O   0  0  0  0  0  0  0  0  0  0  0  0
   -0.0742   -6.7521   33.4578 C   0  0  0  0  0  0  0  0  0  0  0  0
    0.4106   -6.2996   32.2290 C   0  0  0  0  0  0  0  0  0  0  0  0
   -0.2054   -6.7537   31.0729 C   0  0  0  0  0  0  0  0  0  0  0  0
   -1.2375   -7.6191   31.0633 N   0  0  0  0  0  0  0  0  0  0  0  0
   -1.6537   -8.0444   32.2728 C   0  0  0  0  0  0  0  0  0  0  0  0
   -2.8690   -9.2284   32.1590 Cl  0  0  0  0  0  0  0  0  0  0  0  0
   -1.1610   -7.6194   33.4878 C   0  0  0  0  0  0  0  0  0  0  0  0
   -2.1299   -8.1798   35.2143 I   0  0  0  0  0  0  0  0  0  0  0  0
  1  2  1  0
  2  3  1  0
  3  4  2  0
  4  5  1  0
  5  6  1  0
  5  7  2  0
  7  8  1  0
  7  9  1  0
  9 10  2  0
 10 11  1  0
 11 12  1  0
 12 13  2  0
 12 14  1  0
 14 15  2  0
 15 16  1  0
 16 17  2  0
 17 18  1  0
 18 19  1  0
 18 20  2  0
 20 21  1  0
 10  3  1  0
 20 14  1  0
M  END
>  <ref_mols>  (157) 
7gov-a

>  <gnina_score>  (157) 
5.254

>  <smina_score_min>  (157) 
-4.512

>  <ref_pdb>  (157) 
7gov-a

>  <inspiration_score>  (157) 
None

>  <inchikey>  (157) 
AOSCQCOKYYGURQ-UHFFFAOYSA-N

>  <tags>  (157) 
BulkDock Fragalysis export,openbind_d68ev3c_c2_elabs_scored,openbind_d68ev3c_c2_elabs_scored_4.5plus,openbind_d68ev3c_c2_elabs,openbind_d68ev3c_c2_elabs_scored_5plus,syndirella_product,openbind_d68ev3c_c2_elabs_scored_top80percent,syndirella_placed

>  <smiles>  (157) 
CCc1cc(Br)c(F)cc1NC(=O)c1ccnc(Cl)c1I

>  <subsites>  (157) 
None

>  <rmsd(smina/fragmenstein)>  (157) 
2.467

>  <alias>  (157) 
None

>  <energy_score>  (157) 
-14.19542

>  <HIPPO Pose ID>  (157) 
64751

>  <distance_score>  (157) 
0.714171

>  <HIPPO Compound ID>  (157) 
101386

>  <gnina_score_min>  (157) 
5.422

>  <name>  (157) 
P64751

>  <exports>  (157) 
['/opt/xchem-fragalysis-2/maxwin/BulkDock/OUTPUTS/openbind_d68ev3c_c2_elabs_1LOTQJ3.sdf', '/opt/xchem-fragalysis-2/maxwin/BulkDock/OUTPUTS/openbind_d68ev3c_c2_elabs_1LSYEHW.sdf', '/opt/xchem-fragalysis-2/maxwin/BulkDock/OUTPUTS/openbind_d68ev3c_c2_elabs_1LSYI5W.sdf']

$$$$
P64752
     RDKit          3D

 21 22  0  0  0  0  0  0  0  0999 V2000
    3.4996   -0.8202   35.9583 C   0  0  0  0  0  0  0  0  0  0  0  0
    3.7329   -2.0117   36.8756 C   0  0  0  0  0  0  0  0  0  0  0  0
    2.5209   -2.9141   36.9645 C   0  0  0  0  0  0  0  0  0  0  0  0
    1.7277   -2.8164   38.1196 C   0  0  0  0  0  0  0  0  0  0  0  0
    0.5990   -3.6062   38.2661 C   0  0  0  0  0  0  0  0  0  0  0  0
   -0.1294   -3.5105   39.3866 F   0  0  0  0  0  0  0  0  0  0  0  0
    0.2074   -4.4819   37.2682 C   0  0  0  0  0  0  0  0  0  0  0  0
    0.9750   -4.6018   36.1073 C   0  0  0  0  0  0  0  0  0  0  0  0
    0.5389   -5.4547   35.0869 N   0  0  0  0  0  0  0  0  0  0  0  0
   -0.7368   -6.3147   34.9764 C   0  0  0  0  0  0  0  0  0  0  0  0
   -1.5891   -6.5083   35.7515 O   0  0  0  0  0  0  0  0  0  0  0  0
   -0.8894   -6.9918   33.6476 C   0  0  0  0  0  0  0  0  0  0  0  0
   -1.5230   -8.2438   33.7413 C   0  0  0  0  0  0  0  0  0  0  0  0
   -1.8547   -8.9144   32.5889 C   0  0  0  0  0  0  0  0  0  0  0  0
   -1.5596   -8.4627   31.3622 N   0  0  0  0  0  0  0  0  0  0  0  0
   -0.8994   -7.2817   31.2842 C   0  0  0  0  0  0  0  0  0  0  0  0
   -0.5918   -6.8883   29.6329 Cl  0  0  0  0  0  0  0  0  0  0  0  0
   -0.5850   -6.4722   32.3775 C   0  0  0  0  0  0  0  0  0  0  0  0
    0.0935   -4.5073   32.0346 I   0  0  0  0  0  0  0  0  0  0  0  0
    2.1617   -3.8432   35.9523 C   0  0  0  0  0  0  0  0  0  0  0  0
    3.0220   -4.0083   34.7232 C   0  0  0  0  0  0  0  0  0  0  0  0
  1  2  1  0
  2  3  1  0
  3  4  2  0
  4  5  1  0
  5  6  1  0
  5  7  2  0
  7  8  1  0
  8  9  1  0
  9 10  1  0
 10 11  2  0
 10 12  1  0
 12 13  2  0
 13 14  1  0
 14 15  2  0
 15 16  1  0
 16 17  1  0
 16 18  2  0
 18 19  1  0
  8 20  2  0
 20 21  1  0
 20  3  1  0
 18 12  1  0
M  END
>  <ref_mols>  (158) 
7gov-a

>  <gnina_score>  (158) 
5.31

>  <smina_score_min>  (158) 
-5.407

>  <ref_pdb>  (158) 
7gov-a

>  <inspiration_score>  (158) 
None

>  <inchikey>  (158) 
CADAGHTUFXZKKV-UHFFFAOYSA-N

>  <tags>  (158) 
BulkDock Fragalysis export,openbind_d68ev3c_c2_elabs_scored,openbind_d68ev3c_c2_elabs_scored_4.5plus,openbind_d68ev3c_c2_elabs,openbind_d68ev3c_c2_elabs_scored_5plus,syndirella_product,openbind_d68ev3c_c2_elabs_scored_top80percent,syndirella_placed

>  <smiles>  (158) 
CCc1cc(F)cc(NC(=O)c2ccnc(Cl)c2I)c1C

>  <subsites>  (158) 
None

>  <rmsd(smina/fragmenstein)>  (158) 
0.251

>  <alias>  (158) 
None

>  <energy_score>  (158) 
-18.44718

>  <HIPPO Pose ID>  (158) 
64752

>  <distance_score>  (158) 
0.773031

>  <HIPPO Compound ID>  (158) 
101387

>  <gnina_score_min>  (158) 
5.233

>  <name>  (158) 
P64752

>  <exports>  (158) 
['/opt/xchem-fragalysis-2/maxwin/BulkDock/OUTPUTS/openbind_d68ev3c_c2_elabs_1LOTQJ3.sdf', '/opt/xchem-fragalysis-2/maxwin/BulkDock/OUTPUTS/openbind_d68ev3c_c2_elabs_1LSYEHW.sdf', '/opt/xchem-fragalysis-2/maxwin/BulkDock/OUTPUTS/openbind_d68ev3c_c2_elabs_1LSYI5W.sdf']

$$$$
P64753
     RDKit          3D

 21 22  0  0  0  0  0  0  0  0999 V2000
    0.7139   -7.2400   35.5705 O   0  0  0  0  0  0  0  0  0  0  0  0
    0.5531   -6.3949   34.7874 C   0  0  0  0  0  0  0  0  0  0  0  0
    0.8059   -4.8881   34.8869 N   0  0  0  0  0  0  0  0  0  0  0  0
    1.2050   -4.1143   35.9578 C   0  0  0  0  0  0  0  0  0  0  0  0
    0.6622   -4.3730   37.2184 C   0  0  0  0  0  0  0  0  0  0  0  0
    1.0178   -3.5664   38.2882 C   0  0  0  0  0  0  0  0  0  0  0  0
    0.4525   -3.7691   39.4861 F   0  0  0  0  0  0  0  0  0  0  0  0
    1.9350   -2.5398   38.1258 C   0  0  0  0  0  0  0  0  0  0  0  0
    2.4863   -2.3175   36.8664 C   0  0  0  0  0  0  0  0  0  0  0  0
    3.3816   -1.3284   36.7258 F   0  0  0  0  0  0  0  0  0  0  0  0
    2.1186   -3.0804   35.7556 C   0  0  0  0  0  0  0  0  0  0  0  0
    2.7917   -2.8898   34.4292 C   0  0  0  0  0  0  0  0  0  0  0  0
    1.8149   -2.7051   33.4001 O   0  0  0  0  0  0  0  0  0  0  0  0
   -0.0892   -6.7571   33.4927 C   0  0  0  0  0  0  0  0  0  0  0  0
    0.4091   -6.2879   32.2745 C   0  0  0  0  0  0  0  0  0  0  0  0
   -0.1838   -6.7354   31.1037 C   0  0  0  0  0  0  0  0  0  0  0  0
   -1.2034   -7.6144   31.0682 N   0  0  0  0  0  0  0  0  0  0  0  0
   -1.6326   -8.0557   32.2667 C   0  0  0  0  0  0  0  0  0  0  0  0
   -2.8158   -9.2672   32.1237 Cl  0  0  0  0  0  0  0  0  0  0  0  0
   -1.1697   -7.6344   33.4946 C   0  0  0  0  0  0  0  0  0  0  0  0
   -2.1891   -8.2179   35.1913 I   0  0  0  0  0  0  0  0  0  0  0  0
  1  2  2  0
  2  3  1  0
  3  4  1  0
  4  5  2  0
  5  6  1  0
  6  7  1  0
  6  8  2  0
  8  9  1  0
  9 10  1  0
  9 11  2  0
 11 12  1  0
 12 13  1  0
  2 14  1  0
 14 15  2  0
 15 16  1  0
 16 17  2  0
 17 18  1  0
 18 19  1  0
 18 20  2  0
 20 21  1  0
 11  4  1  0
 20 14  1  0
M  END
>  <ref_mols>  (159) 
7gov-a

>  <gnina_score>  (159) 
4.985

>  <smina_score_min>  (159) 
-4.147

>  <ref_pdb>  (159) 
7gov-a

>  <inspiration_score>  (159) 
None

>  <inchikey>  (159) 
GNLMANWNQGLPEZ-UHFFFAOYSA-N

>  <tags>  (159) 
BulkDock Fragalysis export,openbind_d68ev3c_c2_elabs_scored,openbind_d68ev3c_c2_elabs_scored_4.5plus,openbind_d68ev3c_c2_elabs,openbind_d68ev3c_c2_elabs_scored_5plus,syndirella_product,openbind_d68ev3c_c2_elabs_scored_top80percent,syndirella_placed

>  <smiles>  (159) 
O=C(Nc1cc(F)cc(F)c1CO)c1ccnc(Cl)c1I

>  <subsites>  (159) 
None

>  <rmsd(smina/fragmenstein)>  (159) 
1.412

>  <alias>  (159) 
None

>  <energy_score>  (159) 
-13.970165

>  <HIPPO Pose ID>  (159) 
64753

>  <distance_score>  (159) 
0.734292

>  <HIPPO Compound ID>  (159) 
101388

>  <gnina_score_min>  (159) 
5.107

>  <name>  (159) 
P64753

>  <exports>  (159) 
['/opt/xchem-fragalysis-2/maxwin/BulkDock/OUTPUTS/openbind_d68ev3c_c2_elabs_1LOTQJ3.sdf', '/opt/xchem-fragalysis-2/maxwin/BulkDock/OUTPUTS/openbind_d68ev3c_c2_elabs_1LSYEHW.sdf', '/opt/xchem-fragalysis-2/maxwin/BulkDock/OUTPUTS/openbind_d68ev3c_c2_elabs_1LSYI5W.sdf']

$$$$
P64754
     RDKit          3D

 21 22  0  0  0  0  0  0  0  0999 V2000
    3.7226   -3.0797   34.2207 O   0  0  0  0  0  0  0  0  0  0  0  0
    3.1486   -4.0173   34.7591 C   0  0  0  0  0  0  0  0  0  0  0  0
    2.2697   -3.8496   35.9276 C   0  0  0  0  0  0  0  0  0  0  0  0
    2.6508   -2.9506   36.9288 C   0  0  0  0  0  0  0  0  0  0  0  0
    3.7789   -2.2326   36.8245 F   0  0  0  0  0  0  0  0  0  0  0  0
    1.8912   -2.8042   38.0832 C   0  0  0  0  0  0  0  0  0  0  0  0
    0.7382   -3.5579   38.2269 C   0  0  0  0  0  0  0  0  0  0  0  0
    0.0083   -3.4399   39.3437 F   0  0  0  0  0  0  0  0  0  0  0  0
    0.3219   -4.4351   37.2294 C   0  0  0  0  0  0  0  0  0  0  0  0
    1.0868   -4.5959   36.0673 C   0  0  0  0  0  0  0  0  0  0  0  0
    0.6160   -5.4366   35.0485 N   0  0  0  0  0  0  0  0  0  0  0  0
   -0.6522   -6.3113   34.9773 C   0  0  0  0  0  0  0  0  0  0  0  0
   -1.4665   -6.5310   35.7850 O   0  0  0  0  0  0  0  0  0  0  0  0
   -0.8414   -6.9823   33.6455 C   0  0  0  0  0  0  0  0  0  0  0  0
   -1.5092   -8.2175   33.7444 C   0  0  0  0  0  0  0  0  0  0  0  0
   -1.8676   -8.8825   32.5962 C   0  0  0  0  0  0  0  0  0  0  0  0
   -1.5734   -8.4387   31.3669 N   0  0  0  0  0  0  0  0  0  0  0  0
   -0.8841   -7.2748   31.2803 C   0  0  0  0  0  0  0  0  0  0  0  0
   -0.5892   -6.8897   29.6250 Cl  0  0  0  0  0  0  0  0  0  0  0  0
   -0.5314   -6.4750   32.3704 C   0  0  0  0  0  0  0  0  0  0  0  0
    0.2368   -4.5424   32.0132 I   0  0  0  0  0  0  0  0  0  0  0  0
  1  2  2  0
  2  3  1  0
  3  4  2  0
  4  5  1  0
  4  6  1  0
  6  7  2  0
  7  8  1  0
  7  9  1  0
  9 10  2  0
 10 11  1  0
 11 12  1  0
 12 13  2  0
 12 14  1  0
 14 15  2  0
 15 16  1  0
 16 17  2  0
 17 18  1  0
 18 19  1  0
 18 20  2  0
 20 21  1  0
 10  3  1  0
 20 14  1  0
M  END
>  <ref_mols>  (160) 
7gov-a

>  <gnina_score>  (160) 
5.201

>  <smina_score_min>  (160) 
-5.439

>  <ref_pdb>  (160) 
7gov-a

>  <inspiration_score>  (160) 
None

>  <inchikey>  (160) 
FZZOTIHLTYBMMS-UHFFFAOYSA-N

>  <tags>  (160) 
BulkDock Fragalysis export,openbind_d68ev3c_c2_elabs_scored,openbind_d68ev3c_c2_elabs_scored_4.5plus,openbind_d68ev3c_c2_elabs,openbind_d68ev3c_c2_elabs_scored_5plus,syndirella_product,openbind_d68ev3c_c2_elabs_scored_top80percent,syndirella_placed

>  <smiles>  (160) 
O=Cc1c(F)cc(F)cc1NC(=O)c1ccnc(Cl)c1I

>  <subsites>  (160) 
None

>  <rmsd(smina/fragmenstein)>  (160) 
0.355

>  <alias>  (160) 
None

>  <energy_score>  (160) 
-16.925903

>  <HIPPO Pose ID>  (160) 
64754

>  <distance_score>  (160) 
0.747726

>  <HIPPO Compound ID>  (160) 
101389

>  <gnina_score_min>  (160) 
5.114

>  <name>  (160) 
P64754

>  <exports>  (160) 
['/opt/xchem-fragalysis-2/maxwin/BulkDock/OUTPUTS/openbind_d68ev3c_c2_elabs_1LOTQJ3.sdf', '/opt/xchem-fragalysis-2/maxwin/BulkDock/OUTPUTS/openbind_d68ev3c_c2_elabs_1LSYEHW.sdf', '/opt/xchem-fragalysis-2/maxwin/BulkDock/OUTPUTS/openbind_d68ev3c_c2_elabs_1LSYI5W.sdf']

$$$$
P64755
     RDKit          3D

 21 22  0  0  0  0  0  0  0  0999 V2000
    4.4700   -3.3969   34.8119 C   0  0  0  0  0  0  0  0  0  0  0  0
    3.1121   -4.0514   34.8162 C   0  0  0  0  0  0  0  0  0  0  0  0
    2.7530   -4.7357   33.8591 O   0  0  0  0  0  0  0  0  0  0  0  0
    2.2073   -3.8550   35.9974 C   0  0  0  0  0  0  0  0  0  0  0  0
    2.5834   -2.9762   37.0294 C   0  0  0  0  0  0  0  0  0  0  0  0
    1.7892   -2.8373   38.1685 C   0  0  0  0  0  0  0  0  0  0  0  0
    0.6127   -3.5623   38.2735 C   0  0  0  0  0  0  0  0  0  0  0  0
   -0.1334   -3.4464   39.3795 F   0  0  0  0  0  0  0  0  0  0  0  0
    0.1978   -4.4053   37.2514 C   0  0  0  0  0  0  0  0  0  0  0  0
    0.9890   -4.5614   36.1071 C   0  0  0  0  0  0  0  0  0  0  0  0
    0.5460   -5.3949   35.0770 N   0  0  0  0  0  0  0  0  0  0  0  0
   -0.7240   -6.2645   34.9667 C   0  0  0  0  0  0  0  0  0  0  0  0
   -1.5632   -6.4825   35.7503 O   0  0  0  0  0  0  0  0  0  0  0  0
   -0.8754   -6.9447   33.6417 C   0  0  0  0  0  0  0  0  0  0  0  0
   -1.4673   -8.2171   33.7396 C   0  0  0  0  0  0  0  0  0  0  0  0
   -1.7922   -8.8953   32.5892 C   0  0  0  0  0  0  0  0  0  0  0  0
   -1.5172   -8.4356   31.3605 N   0  0  0  0  0  0  0  0  0  0  0  0
   -0.8928   -7.2335   31.2803 C   0  0  0  0  0  0  0  0  0  0  0  0
   -0.5816   -6.8394   29.6300 Cl  0  0  0  0  0  0  0  0  0  0  0  0
   -0.6141   -6.4076   32.3710 C   0  0  0  0  0  0  0  0  0  0  0  0
   -0.1168   -4.3859   32.0308 I   0  0  0  0  0  0  0  0  0  0  0  0
  1  2  1  0
  2  3  2  0
  2  4  1  0
  4  5  2  0
  5  6  1  0
  6  7  2  0
  7  8  1  0
  7  9  1  0
  9 10  2  0
 10 11  1  0
 11 12  1  0
 12 13  2  0
 12 14  1  0
 14 15  2  0
 15 16  1  0
 16 17  2  0
 17 18  1  0
 18 19  1  0
 18 20  2  0
 20 21  1  0
 10  4  1  0
 20 14  1  0
M  END
>  <ref_mols>  (161) 
7gov-a

>  <gnina_score>  (161) 
5.12

>  <smina_score_min>  (161) 
-5.546

>  <ref_pdb>  (161) 
7gov-a

>  <inspiration_score>  (161) 
None

>  <inchikey>  (161) 
RFGJNXDPUDZDPG-UHFFFAOYSA-N

>  <tags>  (161) 
BulkDock Fragalysis export,openbind_d68ev3c_c2_elabs_scored,openbind_d68ev3c_c2_elabs_scored_4.5plus,openbind_d68ev3c_c2_elabs,openbind_d68ev3c_c2_elabs_scored_5plus,syndirella_product,openbind_d68ev3c_c2_elabs_scored_top80percent,syndirella_placed

>  <smiles>  (161) 
CC(=O)c1ccc(F)cc1NC(=O)c1ccnc(Cl)c1I

>  <subsites>  (161) 
None

>  <rmsd(smina/fragmenstein)>  (161) 
0.495

>  <alias>  (161) 
None

>  <energy_score>  (161) 
-44.610007

>  <HIPPO Pose ID>  (161) 
64755

>  <distance_score>  (161) 
0.775714

>  <HIPPO Compound ID>  (161) 
101392

>  <gnina_score_min>  (161) 
5.028

>  <name>  (161) 
P64755

>  <exports>  (161) 
['/opt/xchem-fragalysis-2/maxwin/BulkDock/OUTPUTS/openbind_d68ev3c_c2_elabs_1LOTQJ3.sdf', '/opt/xchem-fragalysis-2/maxwin/BulkDock/OUTPUTS/openbind_d68ev3c_c2_elabs_1LSYEHW.sdf', '/opt/xchem-fragalysis-2/maxwin/BulkDock/OUTPUTS/openbind_d68ev3c_c2_elabs_1LSYI5W.sdf']

$$$$
P64756
     RDKit          3D

 21 23  0  0  0  0  0  0  0  0999 V2000
    2.0255   -5.1401   33.1065 O   0  0  0  0  0  0  0  0  0  0  0  0
    0.9229   -5.2268   33.4817 C   0  0  0  0  0  0  0  0  0  0  0  0
    0.2431   -4.6396   34.7415 N   0  0  0  0  0  0  0  0  0  0  0  0
    0.7859   -3.9229   35.8211 C   0  0  0  0  0  0  0  0  0  0  0  0
    0.0093   -3.9705   36.9945 C   0  0  0  0  0  0  0  0  0  0  0  0
    0.4998   -3.4617   38.1888 C   0  0  0  0  0  0  0  0  0  0  0  0
   -0.2312   -3.5693   39.3060 F   0  0  0  0  0  0  0  0  0  0  0  0
    1.7447   -2.8701   38.2442 C   0  0  0  0  0  0  0  0  0  0  0  0
    2.4955   -2.7725   37.0749 C   0  0  0  0  0  0  0  0  0  0  0  0
    2.0368   -3.2682   35.8307 C   0  0  0  0  0  0  0  0  0  0  0  0
    2.9154   -3.0349   34.6211 C   0  0  0  0  0  0  0  0  0  0  0  0
    3.4860   -1.6543   34.3492 C   0  0  0  0  0  0  0  0  0  0  0  0
    2.4091   -2.1948   33.4664 C   0  0  0  0  0  0  0  0  0  0  0  0
    0.0130   -6.1119   32.6880 C   0  0  0  0  0  0  0  0  0  0  0  0
    0.1610   -5.9943   31.3003 C   0  0  0  0  0  0  0  0  0  0  0  0
   -0.5567   -6.8292   30.4695 C   0  0  0  0  0  0  0  0  0  0  0  0
   -1.4336   -7.7404   30.9186 N   0  0  0  0  0  0  0  0  0  0  0  0
   -1.5257   -7.8684   32.2615 C   0  0  0  0  0  0  0  0  0  0  0  0
   -2.6269   -9.1181   32.6503 Cl  0  0  0  0  0  0  0  0  0  0  0  0
   -0.8362   -7.1018   33.1995 C   0  0  0  0  0  0  0  0  0  0  0  0
   -1.0382   -7.5188   35.2338 I   0  0  0  0  0  0  0  0  0  0  0  0
  1  2  2  0
  2  3  1  0
  3  4  1  0
  4  5  2  0
  5  6  1  0
  6  7  1  0
  6  8  2  0
  8  9  1  0
  9 10  2  0
 10 11  1  0
 11 12  1  0
 12 13  1  0
  2 14  1  0
 14 15  2  0
 15 16  1  0
 16 17  2  0
 17 18  1  0
 18 19  1  0
 18 20  2  0
 20 21  1  0
 10  4  1  0
 13 11  1  0
 20 14  1  0
M  END
>  <ref_mols>  (162) 
7gov-a

>  <gnina_score>  (162) 
5.417

>  <smina_score_min>  (162) 
-5.14

>  <ref_pdb>  (162) 
7gov-a

>  <inspiration_score>  (162) 
None

>  <inchikey>  (162) 
YVIAZTIOTSEXPT-UHFFFAOYSA-N

>  <tags>  (162) 
BulkDock Fragalysis export,openbind_d68ev3c_c2_elabs_scored,openbind_d68ev3c_c2_elabs_scored_4.5plus,openbind_d68ev3c_c2_elabs,openbind_d68ev3c_c2_elabs_scored_5plus,syndirella_product,openbind_d68ev3c_c2_elabs_scored_top80percent,syndirella_placed

>  <smiles>  (162) 
O=C(Nc1cc(F)ccc1C1CC1)c1ccnc(Cl)c1I

>  <subsites>  (162) 
None

>  <rmsd(smina/fragmenstein)>  (162) 
1.859

>  <alias>  (162) 
None

>  <energy_score>  (162) 
-66.953581

>  <HIPPO Pose ID>  (162) 
64756

>  <distance_score>  (162) 
1.237082

>  <HIPPO Compound ID>  (162) 
101393

>  <gnina_score_min>  (162) 
5.393

>  <name>  (162) 
P64756

>  <exports>  (162) 
['/opt/xchem-fragalysis-2/maxwin/BulkDock/OUTPUTS/openbind_d68ev3c_c2_elabs_1LOTQJ3.sdf', '/opt/xchem-fragalysis-2/maxwin/BulkDock/OUTPUTS/openbind_d68ev3c_c2_elabs_1LSYEHW.sdf', '/opt/xchem-fragalysis-2/maxwin/BulkDock/OUTPUTS/openbind_d68ev3c_c2_elabs_1LSYI5W.sdf']

$$$$
P64757
     RDKit          3D

 21 22  0  0  0  0  0  0  0  0999 V2000
    2.7686   -2.8263   34.3997 C   0  0  0  0  0  0  0  0  0  0  0  0
    2.0770   -2.9992   35.7274 C   0  0  0  0  0  0  0  0  0  0  0  0
    2.4303   -2.2142   36.8520 C   0  0  0  0  0  0  0  0  0  0  0  0
    3.3870   -1.0508   36.7662 C   0  0  0  0  0  0  0  0  0  0  0  0
    4.6808   -1.4944   36.3893 O   0  0  0  0  0  0  0  0  0  0  0  0
    1.8591   -2.5104   38.1051 C   0  0  0  0  0  0  0  0  0  0  0  0
    0.9792   -3.5737   38.2487 C   0  0  0  0  0  0  0  0  0  0  0  0
    0.4196   -3.8140   39.4429 F   0  0  0  0  0  0  0  0  0  0  0  0
    0.6548   -4.3694   37.1671 C   0  0  0  0  0  0  0  0  0  0  0  0
    1.1915   -4.0725   35.9127 C   0  0  0  0  0  0  0  0  0  0  0  0
    0.7908   -4.8560   34.8439 N   0  0  0  0  0  0  0  0  0  0  0  0
    0.6099   -6.3754   34.7344 C   0  0  0  0  0  0  0  0  0  0  0  0
    0.8421   -7.2205   35.5010 O   0  0  0  0  0  0  0  0  0  0  0  0
   -0.0611   -6.7480   33.4576 C   0  0  0  0  0  0  0  0  0  0  0  0
    0.4215   -6.2973   32.2272 C   0  0  0  0  0  0  0  0  0  0  0  0
   -0.1963   -6.7521   31.0723 C   0  0  0  0  0  0  0  0  0  0  0  0
   -1.2288   -7.6170   31.0643 N   0  0  0  0  0  0  0  0  0  0  0  0
   -1.6429   -8.0415   32.2748 C   0  0  0  0  0  0  0  0  0  0  0  0
   -2.8605   -9.2241   32.1618 Cl  0  0  0  0  0  0  0  0  0  0  0  0
   -1.1479   -7.6156   33.4891 C   0  0  0  0  0  0  0  0  0  0  0  0
   -2.1162   -8.1721   35.2169 I   0  0  0  0  0  0  0  0  0  0  0  0
  1  2  1  0
  2  3  2  0
  3  4  1  0
  4  5  1  0
  3  6  1  0
  6  7  2  0
  7  8  1  0
  7  9  1  0
  9 10  2  0
 10 11  1  0
 11 12  1  0
 12 13  2  0
 12 14  1  0
 14 15  2  0
 15 16  1  0
 16 17  2  0
 17 18  1  0
 18 19  1  0
 18 20  2  0
 20 21  1  0
 10  2  1  0
 20 14  1  0
M  END
>  <ref_mols>  (163) 
7gov-a

>  <gnina_score>  (163) 
5.002

>  <smina_score_min>  (163) 
-4.261

>  <ref_pdb>  (163) 
7gov-a

>  <inspiration_score>  (163) 
None

>  <inchikey>  (163) 
IEXRECVYFZCOBP-UHFFFAOYSA-N

>  <tags>  (163) 
BulkDock Fragalysis export,openbind_d68ev3c_c2_elabs_scored,openbind_d68ev3c_c2_elabs_scored_4.5plus,openbind_d68ev3c_c2_elabs,openbind_d68ev3c_c2_elabs_scored_5plus,syndirella_product,openbind_d68ev3c_c2_elabs_scored_top80percent,syndirella_placed

>  <smiles>  (163) 
Cc1c(CO)cc(F)cc1NC(=O)c1ccnc(Cl)c1I

>  <subsites>  (163) 
None

>  <rmsd(smina/fragmenstein)>  (163) 
1.551

>  <alias>  (163) 
None

>  <energy_score>  (163) 
-8.019266

>  <HIPPO Pose ID>  (163) 
64757

>  <distance_score>  (163) 
0.753532

>  <HIPPO Compound ID>  (163) 
101394

>  <gnina_score_min>  (163) 
5.074

>  <name>  (163) 
P64757

>  <exports>  (163) 
['/opt/xchem-fragalysis-2/maxwin/BulkDock/OUTPUTS/openbind_d68ev3c_c2_elabs_1LOTQJ3.sdf', '/opt/xchem-fragalysis-2/maxwin/BulkDock/OUTPUTS/openbind_d68ev3c_c2_elabs_1LSYEHW.sdf', '/opt/xchem-fragalysis-2/maxwin/BulkDock/OUTPUTS/openbind_d68ev3c_c2_elabs_1LSYI5W.sdf']

$$$$
P64758
     RDKit          3D

 21 22  0  0  0  0  0  0  0  0999 V2000
    2.1294   -2.2251   33.3635 C   0  0  0  0  0  0  0  0  0  0  0  0
    2.9579   -2.8588   34.4832 C   0  0  0  0  0  0  0  0  0  0  0  0
    3.7249   -4.0920   33.9972 C   0  0  0  0  0  0  0  0  0  0  0  0
    2.1535   -3.0982   35.7519 C   0  0  0  0  0  0  0  0  0  0  0  0
    2.4693   -2.3297   36.8907 C   0  0  0  0  0  0  0  0  0  0  0  0
    1.8550   -2.5673   38.1233 C   0  0  0  0  0  0  0  0  0  0  0  0
    0.9286   -3.5903   38.2387 C   0  0  0  0  0  0  0  0  0  0  0  0
    0.3243   -3.8094   39.4147 F   0  0  0  0  0  0  0  0  0  0  0  0
    0.6072   -4.3744   37.1436 C   0  0  0  0  0  0  0  0  0  0  0  0
    1.1997   -4.1116   35.9023 C   0  0  0  0  0  0  0  0  0  0  0  0
    0.7885   -4.8852   34.8344 N   0  0  0  0  0  0  0  0  0  0  0  0
    0.6086   -6.4031   34.7147 C   0  0  0  0  0  0  0  0  0  0  0  0
    0.8509   -7.2537   35.4714 O   0  0  0  0  0  0  0  0  0  0  0  0
   -0.0766   -6.7664   33.4434 C   0  0  0  0  0  0  0  0  0  0  0  0
    0.3995   -6.3196   32.2090 C   0  0  0  0  0  0  0  0  0  0  0  0
   -0.2255   -6.7755   31.0587 C   0  0  0  0  0  0  0  0  0  0  0  0
   -1.2608   -7.6364   31.0596 N   0  0  0  0  0  0  0  0  0  0  0  0
   -1.6711   -8.0537   32.2741 C   0  0  0  0  0  0  0  0  0  0  0  0
   -2.9010   -9.2236   32.1728 Cl  0  0  0  0  0  0  0  0  0  0  0  0
   -1.1666   -7.6282   33.4842 C   0  0  0  0  0  0  0  0  0  0  0  0
   -2.1232   -8.1764   35.2200 I   0  0  0  0  0  0  0  0  0  0  0  0
  1  2  1  0
  2  3  1  0
  2  4  1  0
  4  5  2  0
  5  6  1  0
  6  7  2  0
  7  8  1  0
  7  9  1  0
  9 10  2  0
 10 11  1  0
 11 12  1  0
 12 13  2  0
 12 14  1  0
 14 15  2  0
 15 16  1  0
 16 17  2  0
 17 18  1  0
 18 19  1  0
 18 20  2  0
 20 21  1  0
 10  4  1  0
 20 14  1  0
M  END
>  <ref_mols>  (164) 
7gov-a

>  <gnina_score>  (164) 
5.256

>  <smina_score_min>  (164) 
-4.171

>  <ref_pdb>  (164) 
7gov-a

>  <inspiration_score>  (164) 
None

>  <inchikey>  (164) 
KSZMMHYXBGZIOQ-UHFFFAOYSA-N

>  <tags>  (164) 
BulkDock Fragalysis export,openbind_d68ev3c_c2_elabs_scored,openbind_d68ev3c_c2_elabs_scored_4.5plus,openbind_d68ev3c_c2_elabs,openbind_d68ev3c_c2_elabs_scored_5plus,syndirella_product,openbind_d68ev3c_c2_elabs_scored_top80percent,syndirella_placed

>  <smiles>  (164) 
CC(C)c1ccc(F)cc1NC(=O)c1ccnc(Cl)c1I

>  <subsites>  (164) 
None

>  <rmsd(smina/fragmenstein)>  (164) 
1.556

>  <alias>  (164) 
None

>  <energy_score>  (164) 
-21.806827

>  <HIPPO Pose ID>  (164) 
64758

>  <distance_score>  (164) 
0.714108

>  <HIPPO Compound ID>  (164) 
101395

>  <gnina_score_min>  (164) 
5.281

>  <name>  (164) 
P64758

>  <exports>  (164) 
['/opt/xchem-fragalysis-2/maxwin/BulkDock/OUTPUTS/openbind_d68ev3c_c2_elabs_1LOTQJ3.sdf', '/opt/xchem-fragalysis-2/maxwin/BulkDock/OUTPUTS/openbind_d68ev3c_c2_elabs_1LSYEHW.sdf', '/opt/xchem-fragalysis-2/maxwin/BulkDock/OUTPUTS/openbind_d68ev3c_c2_elabs_1LSYI5W.sdf']

$$$$
P64759
     RDKit          3D

 21 22  0  0  0  0  0  0  0  0999 V2000
    0.8361   -7.2713   35.4947 O   0  0  0  0  0  0  0  0  0  0  0  0
    0.5952   -6.4098   34.7508 C   0  0  0  0  0  0  0  0  0  0  0  0
    0.7654   -4.8955   34.8970 N   0  0  0  0  0  0  0  0  0  0  0  0
    1.1637   -4.1373   35.9807 C   0  0  0  0  0  0  0  0  0  0  0  0
    2.1029   -3.1191   35.7904 C   0  0  0  0  0  0  0  0  0  0  0  0
    2.8179   -2.9551   34.4759 C   0  0  0  0  0  0  0  0  0  0  0  0
    1.8866   -2.8300   33.4006 O   0  0  0  0  0  0  0  0  0  0  0  0
    2.4785   -2.3493   36.9041 C   0  0  0  0  0  0  0  0  0  0  0  0
    1.9026   -2.5744   38.1597 C   0  0  0  0  0  0  0  0  0  0  0  0
    0.9627   -3.5858   38.3177 C   0  0  0  0  0  0  0  0  0  0  0  0
    0.3869   -3.7687   39.5149 F   0  0  0  0  0  0  0  0  0  0  0  0
    0.6040   -4.3792   37.2407 C   0  0  0  0  0  0  0  0  0  0  0  0
   -0.3366   -5.3239   37.4037 F   0  0  0  0  0  0  0  0  0  0  0  0
   -0.0770   -6.7569   33.4703 C   0  0  0  0  0  0  0  0  0  0  0  0
    0.4068   -6.2879   32.2477 C   0  0  0  0  0  0  0  0  0  0  0  0
   -0.2024   -6.7363   31.0861 C   0  0  0  0  0  0  0  0  0  0  0  0
   -1.2266   -7.6111   31.0653 N   0  0  0  0  0  0  0  0  0  0  0  0
   -1.6462   -8.0453   32.2711 C   0  0  0  0  0  0  0  0  0  0  0  0
   -2.8485   -9.2408   32.1458 Cl  0  0  0  0  0  0  0  0  0  0  0  0
   -1.1616   -7.6262   33.4909 C   0  0  0  0  0  0  0  0  0  0  0  0
   -2.1420   -8.1944   35.2085 I   0  0  0  0  0  0  0  0  0  0  0  0
  1  2  2  0
  2  3  1  0
  3  4  1  0
  4  5  2  0
  5  6  1  0
  6  7  1  0
  5  8  1  0
  8  9  2  0
  9 10  1  0
 10 11  1  0
 10 12  2  0
 12 13  1  0
  2 14  1  0
 14 15  2  0
 15 16  1  0
 16 17  2  0
 17 18  1  0
 18 19  1  0
 18 20  2  0
 20 21  1  0
 12  4  1  0
 20 14  1  0
M  END
>  <ref_mols>  (165) 
7gov-a

>  <gnina_score>  (165) 
5.135

>  <smina_score_min>  (165) 
-4.019

>  <ref_pdb>  (165) 
7gov-a

>  <inspiration_score>  (165) 
None

>  <inchikey>  (165) 
OLIUMSJLYPAQEZ-UHFFFAOYSA-N

>  <tags>  (165) 
BulkDock Fragalysis export,openbind_d68ev3c_c2_elabs_scored,openbind_d68ev3c_c2_elabs_scored_4.5plus,openbind_d68ev3c_c2_elabs,openbind_d68ev3c_c2_elabs_scored_5plus,syndirella_product,openbind_d68ev3c_c2_elabs_scored_top80percent,syndirella_placed

>  <smiles>  (165) 
O=C(Nc1c(CO)ccc(F)c1F)c1ccnc(Cl)c1I

>  <subsites>  (165) 
None

>  <rmsd(smina/fragmenstein)>  (165) 
0.689

>  <alias>  (165) 
None

>  <energy_score>  (165) 
-4.727891

>  <HIPPO Pose ID>  (165) 
64759

>  <distance_score>  (165) 
0.707544

>  <HIPPO Compound ID>  (165) 
101398

>  <gnina_score_min>  (165) 
5.196

>  <name>  (165) 
P64759

>  <exports>  (165) 
['/opt/xchem-fragalysis-2/maxwin/BulkDock/OUTPUTS/openbind_d68ev3c_c2_elabs_1LOTQJ3.sdf', '/opt/xchem-fragalysis-2/maxwin/BulkDock/OUTPUTS/openbind_d68ev3c_c2_elabs_1LSYEHW.sdf', '/opt/xchem-fragalysis-2/maxwin/BulkDock/OUTPUTS/openbind_d68ev3c_c2_elabs_1LSYI5W.sdf']

$$$$
P64760
     RDKit          3D

 21 22  0  0  0  0  0  0  0  0999 V2000
    3.0208   -3.2561   34.6870 C   0  0  0  0  0  0  0  0  0  0  0  0
    2.1160   -3.3825   35.8819 C   0  0  0  0  0  0  0  0  0  0  0  0
    2.5754   -2.8886   37.1339 C   0  0  0  0  0  0  0  0  0  0  0  0
    3.8889   -2.3259   37.3045 C   0  0  0  0  0  0  0  0  0  0  0  0
    4.9337   -1.8479   37.4765 N   0  0  0  0  0  0  0  0  0  0  0  0
    1.7649   -2.9427   38.2721 C   0  0  0  0  0  0  0  0  0  0  0  0
    0.4997   -3.4824   38.1773 C   0  0  0  0  0  0  0  0  0  0  0  0
   -0.2710   -3.5496   39.2701 F   0  0  0  0  0  0  0  0  0  0  0  0
    0.0291   -3.9809   36.9722 C   0  0  0  0  0  0  0  0  0  0  0  0
    0.8395   -3.9785   35.8218 C   0  0  0  0  0  0  0  0  0  0  0  0
    0.2760   -4.6765   34.7380 N   0  0  0  0  0  0  0  0  0  0  0  0
    0.9343   -5.2511   33.4604 C   0  0  0  0  0  0  0  0  0  0  0  0
    2.0325   -5.1675   33.0716 O   0  0  0  0  0  0  0  0  0  0  0  0
    0.0118   -6.1281   32.6721 C   0  0  0  0  0  0  0  0  0  0  0  0
    0.1556   -6.0119   31.2836 C   0  0  0  0  0  0  0  0  0  0  0  0
   -0.5674   -6.8446   30.4557 C   0  0  0  0  0  0  0  0  0  0  0  0
   -1.4461   -7.7512   30.9091 N   0  0  0  0  0  0  0  0  0  0  0  0
   -1.5362   -7.8773   32.2520 C   0  0  0  0  0  0  0  0  0  0  0  0
   -2.6426   -9.1208   32.6445 Cl  0  0  0  0  0  0  0  0  0  0  0  0
   -0.8412   -7.1131   33.1873 C   0  0  0  0  0  0  0  0  0  0  0  0
   -1.0440   -7.5284   35.2229 I   0  0  0  0  0  0  0  0  0  0  0  0
  1  2  1  0
  2  3  2  0
  3  4  1  0
  4  5  3  0
  3  6  1  0
  6  7  2  0
  7  8  1  0
  7  9  1  0
  9 10  2  0
 10 11  1  0
 11 12  1  0
 12 13  2  0
 12 14  1  0
 14 15  2  0
 15 16  1  0
 16 17  2  0
 17 18  1  0
 18 19  1  0
 18 20  2  0
 20 21  1  0
 10  2  1  0
 20 14  1  0
M  END
>  <ref_mols>  (166) 
7gov-a

>  <gnina_score>  (166) 
5.294

>  <smina_score_min>  (166) 
-4.926

>  <ref_pdb>  (166) 
7gov-a

>  <inspiration_score>  (166) 
None

>  <inchikey>  (166) 
VMVRVTIWZDHHBJ-UHFFFAOYSA-N

>  <tags>  (166) 
BulkDock Fragalysis export,openbind_d68ev3c_c2_elabs_scored,openbind_d68ev3c_c2_elabs_scored_4.5plus,openbind_d68ev3c_c2_elabs,openbind_d68ev3c_c2_elabs_scored_5plus,syndirella_product,openbind_d68ev3c_c2_elabs_scored_top80percent,syndirella_placed

>  <smiles>  (166) 
Cc1c(C#N)cc(F)cc1NC(=O)c1ccnc(Cl)c1I

>  <subsites>  (166) 
None

>  <rmsd(smina/fragmenstein)>  (166) 
1.243

>  <alias>  (166) 
None

>  <energy_score>  (166) 
-20.355873

>  <HIPPO Pose ID>  (166) 
64760

>  <distance_score>  (166) 
1.222363

>  <HIPPO Compound ID>  (166) 
101400

>  <gnina_score_min>  (166) 
5.318

>  <name>  (166) 
P64760

>  <exports>  (166) 
['/opt/xchem-fragalysis-2/maxwin/BulkDock/OUTPUTS/openbind_d68ev3c_c2_elabs_1LOTQJ3.sdf', '/opt/xchem-fragalysis-2/maxwin/BulkDock/OUTPUTS/openbind_d68ev3c_c2_elabs_1LSYEHW.sdf', '/opt/xchem-fragalysis-2/maxwin/BulkDock/OUTPUTS/openbind_d68ev3c_c2_elabs_1LSYI5W.sdf']

$$$$
P64761
     RDKit          3D

 21 22  0  0  0  0  0  0  0  0999 V2000
    2.2507   -1.7964   39.4000 C   0  0  0  0  0  0  0  0  0  0  0  0
    1.9068   -2.5823   38.1669 C   0  0  0  0  0  0  0  0  0  0  0  0
    0.9615   -3.6046   38.2604 C   0  0  0  0  0  0  0  0  0  0  0  0
    0.3430   -3.8476   39.4264 F   0  0  0  0  0  0  0  0  0  0  0  0
    0.6230   -4.3769   37.1621 C   0  0  0  0  0  0  0  0  0  0  0  0
    1.2051   -4.1101   35.9234 C   0  0  0  0  0  0  0  0  0  0  0  0
    0.7938   -4.8789   34.8498 N   0  0  0  0  0  0  0  0  0  0  0  0
    0.6113   -6.3961   34.7227 C   0  0  0  0  0  0  0  0  0  0  0  0
    0.8508   -7.2507   35.4758 O   0  0  0  0  0  0  0  0  0  0  0  0
   -0.0720   -6.7549   33.4498 C   0  0  0  0  0  0  0  0  0  0  0  0
    0.4090   -6.3053   32.2185 C   0  0  0  0  0  0  0  0  0  0  0  0
   -0.2122   -6.7600   31.0655 C   0  0  0  0  0  0  0  0  0  0  0  0
   -1.2464   -7.6229   31.0613 N   0  0  0  0  0  0  0  0  0  0  0  0
   -1.6596   -8.0447   32.2732 C   0  0  0  0  0  0  0  0  0  0  0  0
   -2.8810   -9.2231   32.1658 Cl  0  0  0  0  0  0  0  0  0  0  0  0
   -1.1606   -7.6194   33.4855 C   0  0  0  0  0  0  0  0  0  0  0  0
   -2.1212   -8.1742   35.2177 I   0  0  0  0  0  0  0  0  0  0  0  0
    2.1616   -3.1022   35.7694 C   0  0  0  0  0  0  0  0  0  0  0  0
    2.8872   -2.9300   34.4603 C   0  0  0  0  0  0  0  0  0  0  0  0
    2.5134   -2.3475   36.9138 C   0  0  0  0  0  0  0  0  0  0  0  0
    3.8432   -0.9754   36.7677 Br  0  0  0  0  0  0  0  0  0  0  0  0
  1  2  1  0
  2  3  2  0
  3  4  1  0
  3  5  1  0
  5  6  2  0
  6  7  1  0
  7  8  1  0
  8  9  2  0
  8 10  1  0
 10 11  2  0
 11 12  1  0
 12 13  2  0
 13 14  1  0
 14 15  1  0
 14 16  2  0
 16 17  1  0
  6 18  1  0
 18 19  1  0
 18 20  2  0
 20 21  1  0
 20  2  1  0
 16 10  1  0
M  END
>  <ref_mols>  (167) 
7gov-a

>  <gnina_score>  (167) 
5.201

>  <smina_score_min>  (167) 
-4.313

>  <ref_pdb>  (167) 
7gov-a

>  <inspiration_score>  (167) 
None

>  <inchikey>  (167) 
SSQVPKIGWMXXTA-UHFFFAOYSA-N

>  <tags>  (167) 
BulkDock Fragalysis export,openbind_d68ev3c_c2_elabs_scored,openbind_d68ev3c_c2_elabs_scored_4.5plus,openbind_d68ev3c_c2_elabs,openbind_d68ev3c_c2_elabs_scored_5plus,syndirella_product,openbind_d68ev3c_c2_elabs_scored_top80percent,syndirella_placed

>  <smiles>  (167) 
Cc1c(F)cc(NC(=O)c2ccnc(Cl)c2I)c(C)c1Br

>  <subsites>  (167) 
None

>  <rmsd(smina/fragmenstein)>  (167) 
1.5

>  <alias>  (167) 
None

>  <energy_score>  (167) 
-0.339739

>  <HIPPO Pose ID>  (167) 
64761

>  <distance_score>  (167) 
0.712803

>  <HIPPO Compound ID>  (167) 
101401

>  <gnina_score_min>  (167) 
5.275

>  <name>  (167) 
P64761

>  <exports>  (167) 
['/opt/xchem-fragalysis-2/maxwin/BulkDock/OUTPUTS/openbind_d68ev3c_c2_elabs_1LOTQJ3.sdf', '/opt/xchem-fragalysis-2/maxwin/BulkDock/OUTPUTS/openbind_d68ev3c_c2_elabs_1LSYEHW.sdf', '/opt/xchem-fragalysis-2/maxwin/BulkDock/OUTPUTS/openbind_d68ev3c_c2_elabs_1LSYI5W.sdf']

$$$$
P64762
     RDKit          3D

 21 22  0  0  0  0  0  0  0  0999 V2000
    3.3967   -3.1785   33.3182 N   0  0  0  0  0  0  0  0  0  0  0  0
    2.9581   -3.2099   34.3932 C   0  0  0  0  0  0  0  0  0  0  0  0
    2.3531   -3.2228   35.6931 C   0  0  0  0  0  0  0  0  0  0  0  0
    2.9139   -2.4660   36.7313 C   0  0  0  0  0  0  0  0  0  0  0  0
    2.3641   -2.5116   38.0151 C   0  0  0  0  0  0  0  0  0  0  0  0
    1.2614   -3.3188   38.2629 C   0  0  0  0  0  0  0  0  0  0  0  0
    0.7243   -3.3242   39.4936 F   0  0  0  0  0  0  0  0  0  0  0  0
    0.7027   -4.0848   37.2442 C   0  0  0  0  0  0  0  0  0  0  0  0
   -0.8506   -5.0721   37.6563 Br  0  0  0  0  0  0  0  0  0  0  0  0
    1.2400   -4.0302   35.9481 C   0  0  0  0  0  0  0  0  0  0  0  0
    0.6980   -4.8023   34.9231 N   0  0  0  0  0  0  0  0  0  0  0  0
    0.6401   -6.3269   34.7462 C   0  0  0  0  0  0  0  0  0  0  0  0
    0.9674   -7.1832   35.4644 O   0  0  0  0  0  0  0  0  0  0  0  0
   -0.0406   -6.6905   33.4724 C   0  0  0  0  0  0  0  0  0  0  0  0
    0.4380   -6.2209   32.2480 C   0  0  0  0  0  0  0  0  0  0  0  0
   -0.1698   -6.6787   31.0887 C   0  0  0  0  0  0  0  0  0  0  0  0
   -1.1895   -7.5600   31.0719 N   0  0  0  0  0  0  0  0  0  0  0  0
   -1.5982   -8.0037   32.2773 C   0  0  0  0  0  0  0  0  0  0  0  0
   -2.7887   -9.2146   32.1502 Cl  0  0  0  0  0  0  0  0  0  0  0  0
   -1.1113   -7.5778   33.4956 C   0  0  0  0  0  0  0  0  0  0  0  0
   -2.0608   -8.1619   35.2189 I   0  0  0  0  0  0  0  0  0  0  0  0
  1  2  3  0
  2  3  1  0
  3  4  2  0
  4  5  1  0
  5  6  2  0
  6  7  1  0
  6  8  1  0
  8  9  1  0
  8 10  2  0
 10 11  1  0
 11 12  1  0
 12 13  2  0
 12 14  1  0
 14 15  2  0
 15 16  1  0
 16 17  2  0
 17 18  1  0
 18 19  1  0
 18 20  2  0
 20 21  1  0
 10  3  1  0
 20 14  1  0
M  END
>  <ref_mols>  (168) 
7gov-a

>  <gnina_score>  (168) 
5.307

>  <smina_score_min>  (168) 
-3.947

>  <ref_pdb>  (168) 
7gov-a

>  <inspiration_score>  (168) 
None

>  <inchikey>  (168) 
HCORVQSGSAJXTK-UHFFFAOYSA-N

>  <tags>  (168) 
BulkDock Fragalysis export,openbind_d68ev3c_c2_elabs_scored,openbind_d68ev3c_c2_elabs_scored_4.5plus,openbind_d68ev3c_c2_elabs,openbind_d68ev3c_c2_elabs_scored_5plus,syndirella_product,openbind_d68ev3c_c2_elabs_scored_top80percent,syndirella_placed

>  <smiles>  (168) 
N#Cc1ccc(F)c(Br)c1NC(=O)c1ccnc(Cl)c1I

>  <subsites>  (168) 
None

>  <rmsd(smina/fragmenstein)>  (168) 
0.405

>  <alias>  (168) 
None

>  <energy_score>  (168) 
-0.399448

>  <HIPPO Pose ID>  (168) 
64762

>  <distance_score>  (168) 
0.773688

>  <HIPPO Compound ID>  (168) 
101403

>  <gnina_score_min>  (168) 
5.35

>  <name>  (168) 
P64762

>  <exports>  (168) 
['/opt/xchem-fragalysis-2/maxwin/BulkDock/OUTPUTS/openbind_d68ev3c_c2_elabs_1LOTQJ3.sdf', '/opt/xchem-fragalysis-2/maxwin/BulkDock/OUTPUTS/openbind_d68ev3c_c2_elabs_1LSYEHW.sdf', '/opt/xchem-fragalysis-2/maxwin/BulkDock/OUTPUTS/openbind_d68ev3c_c2_elabs_1LSYI5W.sdf']

$$$$
P64763
     RDKit          3D

 21 22  0  0  0  0  0  0  0  0999 V2000
    1.9394   -4.9610   32.9276 O   0  0  0  0  0  0  0  0  0  0  0  0
    0.9068   -5.1985   33.4210 C   0  0  0  0  0  0  0  0  0  0  0  0
    0.3311   -4.7773   34.7926 N   0  0  0  0  0  0  0  0  0  0  0  0
    0.9255   -4.0737   35.8571 C   0  0  0  0  0  0  0  0  0  0  0  0
    0.0856   -3.9789   36.9890 C   0  0  0  0  0  0  0  0  0  0  0  0
    0.5190   -3.3778   38.1651 C   0  0  0  0  0  0  0  0  0  0  0  0
   -0.2869   -3.3630   39.2356 F   0  0  0  0  0  0  0  0  0  0  0  0
    1.7728   -2.8097   38.2290 C   0  0  0  0  0  0  0  0  0  0  0  0
    2.1936   -2.2098   39.3512 F   0  0  0  0  0  0  0  0  0  0  0  0
    2.6124   -2.8758   37.1278 C   0  0  0  0  0  0  0  0  0  0  0  0
    2.2269   -3.5444   35.9390 C   0  0  0  0  0  0  0  0  0  0  0  0
    3.3101   -3.6821   34.9082 C   0  0  0  0  0  0  0  0  0  0  0  0
    3.0580   -2.8237   33.8073 O   0  0  0  0  0  0  0  0  0  0  0  0
   -0.0026   -6.1238   32.6566 C   0  0  0  0  0  0  0  0  0  0  0  0
    0.1261   -6.0142   31.2629 C   0  0  0  0  0  0  0  0  0  0  0  0
   -0.5861   -6.8594   30.4389 C   0  0  0  0  0  0  0  0  0  0  0  0
   -1.4507   -7.7735   30.8986 N   0  0  0  0  0  0  0  0  0  0  0  0
   -1.5376   -7.8916   32.2416 C   0  0  0  0  0  0  0  0  0  0  0  0
   -2.6429   -9.1350   32.6373 Cl  0  0  0  0  0  0  0  0  0  0  0  0
   -0.8451   -7.1187   33.1744 C   0  0  0  0  0  0  0  0  0  0  0  0
   -1.0552   -7.5522   35.2091 I   0  0  0  0  0  0  0  0  0  0  0  0
  1  2  2  0
  2  3  1  0
  3  4  1  0
  4  5  2  0
  5  6  1  0
  6  7  1  0
  6  8  2  0
  8  9  1  0
  8 10  1  0
 10 11  2  0
 11 12  1  0
 12 13  1  0
  2 14  1  0
 14 15  2  0
 15 16  1  0
 16 17  2  0
 17 18  1  0
 18 19  1  0
 18 20  2  0
 20 21  1  0
 11  4  1  0
 20 14  1  0
M  END
>  <ref_mols>  (169) 
7gov-a

>  <gnina_score>  (169) 
5.162

>  <smina_score_min>  (169) 
-5.083

>  <ref_pdb>  (169) 
7gov-a

>  <inspiration_score>  (169) 
None

>  <inchikey>  (169) 
BAWBZEZVSLOWDL-UHFFFAOYSA-N

>  <tags>  (169) 
BulkDock Fragalysis export,openbind_d68ev3c_c2_elabs_scored,openbind_d68ev3c_c2_elabs_scored_4.5plus,openbind_d68ev3c_c2_elabs,openbind_d68ev3c_c2_elabs_scored_5plus,syndirella_product,openbind_d68ev3c_c2_elabs_scored_top80percent,syndirella_placed

>  <smiles>  (169) 
O=C(Nc1cc(F)c(F)cc1CO)c1ccnc(Cl)c1I

>  <subsites>  (169) 
None

>  <rmsd(smina/fragmenstein)>  (169) 
1.307

>  <alias>  (169) 
None

>  <energy_score>  (169) 
-23.496038

>  <HIPPO Pose ID>  (169) 
64763

>  <distance_score>  (169) 
1.256351

>  <HIPPO Compound ID>  (169) 
101404

>  <gnina_score_min>  (169) 
5.237

>  <name>  (169) 
P64763

>  <exports>  (169) 
['/opt/xchem-fragalysis-2/maxwin/BulkDock/OUTPUTS/openbind_d68ev3c_c2_elabs_1LOTQJ3.sdf', '/opt/xchem-fragalysis-2/maxwin/BulkDock/OUTPUTS/openbind_d68ev3c_c2_elabs_1LSYEHW.sdf', '/opt/xchem-fragalysis-2/maxwin/BulkDock/OUTPUTS/openbind_d68ev3c_c2_elabs_1LSYI5W.sdf']

$$$$
P64765
     RDKit          3D

 21 22  0  0  0  0  0  0  0  0999 V2000
    3.3378   -3.7649   33.6152 N   0  0  0  0  0  0  0  0  0  0  0  0
    2.7886   -3.7544   34.6377 C   0  0  0  0  0  0  0  0  0  0  0  0
    2.0797   -3.7220   35.8857 C   0  0  0  0  0  0  0  0  0  0  0  0
    2.5641   -2.8754   36.8984 C   0  0  0  0  0  0  0  0  0  0  0  0
    1.9274   -2.8198   38.1370 C   0  0  0  0  0  0  0  0  0  0  0  0
    0.8056   -3.6057   38.3585 C   0  0  0  0  0  0  0  0  0  0  0  0
    0.1871   -3.5419   39.5460 F   0  0  0  0  0  0  0  0  0  0  0  0
    0.3107   -4.4420   37.3621 C   0  0  0  0  0  0  0  0  0  0  0  0
   -0.8081   -5.1272   37.6299 F   0  0  0  0  0  0  0  0  0  0  0  0
    0.9404   -4.5205   36.1112 C   0  0  0  0  0  0  0  0  0  0  0  0
    0.4393   -5.3325   35.0780 N   0  0  0  0  0  0  0  0  0  0  0  0
   -0.5440   -6.5248   35.1248 C   0  0  0  0  0  0  0  0  0  0  0  0
   -1.1512   -6.9706   36.0175 O   0  0  0  0  0  0  0  0  0  0  0  0
   -0.8058   -7.1356   33.7833 C   0  0  0  0  0  0  0  0  0  0  0  0
   -1.6129   -8.2833   33.7516 C   0  0  0  0  0  0  0  0  0  0  0  0
   -1.9897   -8.7988   32.5271 C   0  0  0  0  0  0  0  0  0  0  0  0
   -1.6134   -8.2708   31.3457 N   0  0  0  0  0  0  0  0  0  0  0  0
   -0.7903   -7.1950   31.4072 C   0  0  0  0  0  0  0  0  0  0  0  0
   -0.3755   -6.5538   29.8736 Cl  0  0  0  0  0  0  0  0  0  0  0  0
   -0.3753   -6.5898   32.5797 C   0  0  0  0  0  0  0  0  0  0  0  0
    0.3769   -5.4800   32.5411 F   0  0  0  0  0  0  0  0  0  0  0  0
  1  2  3  0
  2  3  1  0
  3  4  2  0
  4  5  1  0
  5  6  2  0
  6  7  1  0
  6  8  1  0
  8  9  1  0
  8 10  2  0
 10 11  1  0
 11 12  1  0
 12 13  2  0
 12 14  1  0
 14 15  2  0
 15 16  1  0
 16 17  2  0
 17 18  1  0
 18 19  1  0
 18 20  2  0
 20 21  1  0
 10  3  1  0
 20 14  1  0
M  END
>  <ref_mols>  (170) 
7gov-a

>  <gnina_score>  (170) 
5.1

>  <smina_score_min>  (170) 
-5.816

>  <ref_pdb>  (170) 
7gov-a

>  <inspiration_score>  (170) 
None

>  <inchikey>  (170) 
FDXUAYGRIPQUQS-UHFFFAOYSA-N

>  <tags>  (170) 
BulkDock Fragalysis export,openbind_d68ev3c_c2_elabs_scored,openbind_d68ev3c_c2_elabs_scored_4.5plus,openbind_d68ev3c_c2_elabs,openbind_d68ev3c_c2_elabs_scored_5plus,syndirella_product,openbind_d68ev3c_c2_elabs_scored_top80percent,syndirella_placed

>  <smiles>  (170) 
N#Cc1ccc(F)c(F)c1NC(=O)c1ccnc(Cl)c1F

>  <subsites>  (170) 
None

>  <rmsd(smina/fragmenstein)>  (170) 
0.89

>  <alias>  (170) 
None

>  <energy_score>  (170) 
-1.24653

>  <HIPPO Pose ID>  (170) 
64765

>  <distance_score>  (170) 
0.660068

>  <HIPPO Compound ID>  (170) 
101413

>  <gnina_score_min>  (170) 
5.044

>  <name>  (170) 
P64765

>  <exports>  (170) 
['/opt/xchem-fragalysis-2/maxwin/BulkDock/OUTPUTS/openbind_d68ev3c_c2_elabs_1LOTQJ3.sdf', '/opt/xchem-fragalysis-2/maxwin/BulkDock/OUTPUTS/openbind_d68ev3c_c2_elabs_1LSYEHW.sdf', '/opt/xchem-fragalysis-2/maxwin/BulkDock/OUTPUTS/openbind_d68ev3c_c2_elabs_1LSYI5W.sdf']

$$$$
P64766
     RDKit          3D

 21 22  0  0  0  0  0  0  0  0999 V2000
    3.3900   -0.8717   39.2138 C   0  0  0  0  0  0  0  0  0  0  0  0
    2.2992   -1.7687   39.3634 O   0  0  0  0  0  0  0  0  0  0  0  0
    1.9732   -2.5426   38.2812 C   0  0  0  0  0  0  0  0  0  0  0  0
    2.5769   -2.4733   37.0202 C   0  0  0  0  0  0  0  0  0  0  0  0
    2.1574   -3.3100   35.9703 C   0  0  0  0  0  0  0  0  0  0  0  0
    2.8772   -3.2712   34.6505 C   0  0  0  0  0  0  0  0  0  0  0  0
    1.1250   -4.2252   36.2113 C   0  0  0  0  0  0  0  0  0  0  0  0
    0.6926   -5.0580   35.1913 N   0  0  0  0  0  0  0  0  0  0  0  0
   -0.1330   -6.3547   35.2422 C   0  0  0  0  0  0  0  0  0  0  0  0
   -0.5156   -6.9708   36.1538 O   0  0  0  0  0  0  0  0  0  0  0  0
   -0.5116   -6.8407   33.8830 C   0  0  0  0  0  0  0  0  0  0  0  0
    0.1580   -6.5165   32.6952 C   0  0  0  0  0  0  0  0  0  0  0  0
   -0.3075   -7.0398   31.4940 C   0  0  0  0  0  0  0  0  0  0  0  0
   -1.3664   -7.8633   31.4005 N   0  0  0  0  0  0  0  0  0  0  0  0
   -1.9502   -8.1784   32.5750 C   0  0  0  0  0  0  0  0  0  0  0  0
   -3.2791   -9.2070   32.4259 Cl  0  0  0  0  0  0  0  0  0  0  0  0
   -1.5967   -7.6971   33.8129 C   0  0  0  0  0  0  0  0  0  0  0  0
   -2.3436   -8.0064   34.8850 F   0  0  0  0  0  0  0  0  0  0  0  0
    0.5241   -4.3080   37.4656 C   0  0  0  0  0  0  0  0  0  0  0  0
    0.9442   -3.4643   38.4828 C   0  0  0  0  0  0  0  0  0  0  0  0
    0.3281   -3.5454   39.6726 F   0  0  0  0  0  0  0  0  0  0  0  0
  1  2  1  0
  2  3  1  0
  3  4  2  0
  4  5  1  0
  5  6  1  0
  5  7  2  0
  7  8  1  0
  8  9  1  0
  9 10  2  0
  9 11  1  0
 11 12  2  0
 12 13  1  0
 13 14  2  0
 14 15  1  0
 15 16  1  0
 15 17  2  0
 17 18  1  0
  7 19  1  0
 19 20  2  0
 20 21  1  0
 20  3  1  0
 17 11  1  0
M  END
>  <ref_mols>  (171) 
7gov-a

>  <gnina_score>  (171) 
4.953

>  <smina_score_min>  (171) 
-5.648

>  <ref_pdb>  (171) 
7gov-a

>  <inspiration_score>  (171) 
None

>  <inchikey>  (171) 
ZNQJJXHNYIQDBA-UHFFFAOYSA-N

>  <tags>  (171) 
BulkDock Fragalysis export,openbind_d68ev3c_c2_elabs_scored,openbind_d68ev3c_c2_elabs_scored_4.5plus,openbind_d68ev3c_c2_elabs,openbind_d68ev3c_c2_elabs_scored_5plus,syndirella_product,openbind_d68ev3c_c2_elabs_scored_top80percent,syndirella_placed

>  <smiles>  (171) 
COc1cc(C)c(NC(=O)c2ccnc(Cl)c2F)cc1F

>  <subsites>  (171) 
None

>  <rmsd(smina/fragmenstein)>  (171) 
1.347

>  <alias>  (171) 
None

>  <energy_score>  (171) 
-11.410304

>  <HIPPO Pose ID>  (171) 
64766

>  <distance_score>  (171) 
0.731676

>  <HIPPO Compound ID>  (171) 
101415

>  <gnina_score_min>  (171) 
5.002

>  <name>  (171) 
P64766

>  <exports>  (171) 
['/opt/xchem-fragalysis-2/maxwin/BulkDock/OUTPUTS/openbind_d68ev3c_c2_elabs_1LOTQJ3.sdf', '/opt/xchem-fragalysis-2/maxwin/BulkDock/OUTPUTS/openbind_d68ev3c_c2_elabs_1LSYEHW.sdf', '/opt/xchem-fragalysis-2/maxwin/BulkDock/OUTPUTS/openbind_d68ev3c_c2_elabs_1LSYI5W.sdf']

$$$$
P64767
     RDKit          3D

 21 22  0  0  0  0  0  0  0  0999 V2000
    3.3847   -0.6563   36.1227 C   0  0  0  0  0  0  0  0  0  0  0  0
    3.6989   -1.9734   36.8171 C   0  0  0  0  0  0  0  0  0  0  0  0
    2.4792   -2.8601   36.9335 C   0  0  0  0  0  0  0  0  0  0  0  0
    1.7807   -2.8403   38.1533 C   0  0  0  0  0  0  0  0  0  0  0  0
    0.6636   -3.6400   38.3402 C   0  0  0  0  0  0  0  0  0  0  0  0
    0.0198   -3.6069   39.5149 F   0  0  0  0  0  0  0  0  0  0  0  0
    0.2028   -4.4673   37.3310 C   0  0  0  0  0  0  0  0  0  0  0  0
    0.8750   -4.5042   36.1084 C   0  0  0  0  0  0  0  0  0  0  0  0
    0.3907   -5.3237   35.0864 N   0  0  0  0  0  0  0  0  0  0  0  0
   -0.6506   -6.4635   35.1228 C   0  0  0  0  0  0  0  0  0  0  0  0
   -1.3241   -6.8461   35.9972 O   0  0  0  0  0  0  0  0  0  0  0  0
   -0.8620   -7.1117   33.7911 C   0  0  0  0  0  0  0  0  0  0  0  0
   -1.6505   -8.2714   33.7630 C   0  0  0  0  0  0  0  0  0  0  0  0
   -1.9977   -8.8087   32.5390 C   0  0  0  0  0  0  0  0  0  0  0  0
   -1.6103   -8.2905   31.3566 N   0  0  0  0  0  0  0  0  0  0  0  0
   -0.8026   -7.2036   31.4173 C   0  0  0  0  0  0  0  0  0  0  0  0
   -0.3774   -6.5718   29.8824 Cl  0  0  0  0  0  0  0  0  0  0  0  0
   -0.4124   -6.5791   32.5879 C   0  0  0  0  0  0  0  0  0  0  0  0
    0.3353   -5.4660   32.5446 F   0  0  0  0  0  0  0  0  0  0  0  0
    2.0191   -3.6978   35.8870 C   0  0  0  0  0  0  0  0  0  0  0  0
    2.7431   -3.7833   34.5646 C   0  0  0  0  0  0  0  0  0  0  0  0
  1  2  1  0
  2  3  1  0
  3  4  2  0
  4  5  1  0
  5  6  1  0
  5  7  2  0
  7  8  1  0
  8  9  1  0
  9 10  1  0
 10 11  2  0
 10 12  1  0
 12 13  2  0
 13 14  1  0
 14 15  2  0
 15 16  1  0
 16 17  1  0
 16 18  2  0
 18 19  1  0
  8 20  2  0
 20 21  1  0
 20  3  1  0
 18 12  1  0
M  END
>  <ref_mols>  (172) 
7gov-a

>  <gnina_score>  (172) 
5.076

>  <smina_score_min>  (172) 
-5.834

>  <ref_pdb>  (172) 
7gov-a

>  <inspiration_score>  (172) 
None

>  <inchikey>  (172) 
JTLSHHXKSAVAAT-UHFFFAOYSA-N

>  <tags>  (172) 
BulkDock Fragalysis export,openbind_d68ev3c_c2_elabs_scored,openbind_d68ev3c_c2_elabs_scored_4.5plus,openbind_d68ev3c_c2_elabs,openbind_d68ev3c_c2_elabs_scored_5plus,syndirella_product,openbind_d68ev3c_c2_elabs_scored_top80percent,syndirella_placed

>  <smiles>  (172) 
CCc1cc(F)cc(NC(=O)c2ccnc(Cl)c2F)c1C

>  <subsites>  (172) 
None

>  <rmsd(smina/fragmenstein)>  (172) 
1.057

>  <alias>  (172) 
None

>  <energy_score>  (172) 
-22.292506

>  <HIPPO Pose ID>  (172) 
64767

>  <distance_score>  (172) 
0.70026

>  <HIPPO Compound ID>  (172) 
101417

>  <gnina_score_min>  (172) 
5.093

>  <name>  (172) 
P64767

>  <exports>  (172) 
['/opt/xchem-fragalysis-2/maxwin/BulkDock/OUTPUTS/openbind_d68ev3c_c2_elabs_1LOTQJ3.sdf', '/opt/xchem-fragalysis-2/maxwin/BulkDock/OUTPUTS/openbind_d68ev3c_c2_elabs_1LSYEHW.sdf', '/opt/xchem-fragalysis-2/maxwin/BulkDock/OUTPUTS/openbind_d68ev3c_c2_elabs_1LSYI5W.sdf']

$$$$
P64769
     RDKit          3D

 21 23  0  0  0  0  0  0  0  0999 V2000
   -0.4399   -6.9711   36.1283 O   0  0  0  0  0  0  0  0  0  0  0  0
   -0.1144   -6.3172   35.2205 C   0  0  0  0  0  0  0  0  0  0  0  0
    0.5735   -4.9420   35.1780 N   0  0  0  0  0  0  0  0  0  0  0  0
    1.0732   -4.1525   36.2029 C   0  0  0  0  0  0  0  0  0  0  0  0
    0.5028   -4.2744   37.4729 C   0  0  0  0  0  0  0  0  0  0  0  0
    0.9500   -3.4636   38.4990 C   0  0  0  0  0  0  0  0  0  0  0  0
    0.3802   -3.5567   39.7076 F   0  0  0  0  0  0  0  0  0  0  0  0
    1.9634   -2.5436   38.2824 C   0  0  0  0  0  0  0  0  0  0  0  0
    2.5374   -2.4355   37.0121 C   0  0  0  0  0  0  0  0  0  0  0  0
    2.1133   -3.2405   35.9383 C   0  0  0  0  0  0  0  0  0  0  0  0
    2.7791   -3.1262   34.5791 C   0  0  0  0  0  0  0  0  0  0  0  0
    3.4947   -4.3181   33.9803 C   0  0  0  0  0  0  0  0  0  0  0  0
    4.2885   -3.1487   34.4721 C   0  0  0  0  0  0  0  0  0  0  0  0
   -0.4860   -6.8096   33.8640 C   0  0  0  0  0  0  0  0  0  0  0  0
    0.1741   -6.4751   32.6751 C   0  0  0  0  0  0  0  0  0  0  0  0
   -0.2914   -7.0044   31.4764 C   0  0  0  0  0  0  0  0  0  0  0  0
   -1.3426   -7.8393   31.3869 N   0  0  0  0  0  0  0  0  0  0  0  0
   -1.9184   -8.1614   32.5633 C   0  0  0  0  0  0  0  0  0  0  0  0
   -3.2361   -9.2057   32.4193 Cl  0  0  0  0  0  0  0  0  0  0  0  0
   -1.5629   -7.6775   33.7993 C   0  0  0  0  0  0  0  0  0  0  0  0
   -2.3011   -7.9925   34.8758 F   0  0  0  0  0  0  0  0  0  0  0  0
  1  2  2  0
  2  3  1  0
  3  4  1  0
  4  5  2  0
  5  6  1  0
  6  7  1  0
  6  8  2  0
  8  9  1  0
  9 10  2  0
 10 11  1  0
 11 12  1  0
 12 13  1  0
  2 14  1  0
 14 15  2  0
 15 16  1  0
 16 17  2  0
 17 18  1  0
 18 19  1  0
 18 20  2  0
 20 21  1  0
 10  4  1  0
 13 11  1  0
 20 14  1  0
M  END
>  <ref_mols>  (173) 
7gov-a

>  <gnina_score>  (173) 
5.145

>  <smina_score_min>  (173) 
-5.743

>  <ref_pdb>  (173) 
7gov-a

>  <inspiration_score>  (173) 
None

>  <inchikey>  (173) 
SOGOTGJBIFPWMZ-UHFFFAOYSA-N

>  <tags>  (173) 
BulkDock Fragalysis export,openbind_d68ev3c_c2_elabs_scored,openbind_d68ev3c_c2_elabs_scored_4.5plus,openbind_d68ev3c_c2_elabs,openbind_d68ev3c_c2_elabs_scored_5plus,syndirella_product,openbind_d68ev3c_c2_elabs_scored_top80percent,syndirella_placed

>  <smiles>  (173) 
O=C(Nc1cc(F)ccc1C1CC1)c1ccnc(Cl)c1F

>  <subsites>  (173) 
None

>  <rmsd(smina/fragmenstein)>  (173) 
1.155

>  <alias>  (173) 
None

>  <energy_score>  (173) 
-15.113841

>  <HIPPO Pose ID>  (173) 
64769

>  <distance_score>  (173) 
0.739173

>  <HIPPO Compound ID>  (173) 
101422

>  <gnina_score_min>  (173) 
5.15

>  <name>  (173) 
P64769

>  <exports>  (173) 
['/opt/xchem-fragalysis-2/maxwin/BulkDock/OUTPUTS/openbind_d68ev3c_c2_elabs_1LOTQJ3.sdf', '/opt/xchem-fragalysis-2/maxwin/BulkDock/OUTPUTS/openbind_d68ev3c_c2_elabs_1LSYEHW.sdf', '/opt/xchem-fragalysis-2/maxwin/BulkDock/OUTPUTS/openbind_d68ev3c_c2_elabs_1LSYI5W.sdf']

$$$$
P64771
     RDKit          3D

 21 22  0  0  0  0  0  0  0  0999 V2000
    2.1420   -2.8550   33.5070 C   0  0  0  0  0  0  0  0  0  0  0  0
    2.8774   -3.5644   34.6456 C   0  0  0  0  0  0  0  0  0  0  0  0
    3.4967   -4.8910   34.2045 C   0  0  0  0  0  0  0  0  0  0  0  0
    2.0253   -3.6458   35.9078 C   0  0  0  0  0  0  0  0  0  0  0  0
    2.4055   -2.7963   36.9723 C   0  0  0  0  0  0  0  0  0  0  0  0
    1.7247   -2.8000   38.1880 C   0  0  0  0  0  0  0  0  0  0  0  0
    0.6464   -3.6491   38.3545 C   0  0  0  0  0  0  0  0  0  0  0  0
   -0.0121   -3.6577   39.5214 F   0  0  0  0  0  0  0  0  0  0  0  0
    0.2357   -4.4886   37.3287 C   0  0  0  0  0  0  0  0  0  0  0  0
    0.9183   -4.4993   36.1049 C   0  0  0  0  0  0  0  0  0  0  0  0
    0.4738   -5.3575   35.0991 N   0  0  0  0  0  0  0  0  0  0  0  0
   -0.5829   -6.4862   35.1359 C   0  0  0  0  0  0  0  0  0  0  0  0
   -1.1912   -6.9255   36.0322 O   0  0  0  0  0  0  0  0  0  0  0  0
   -0.8454   -7.1068   33.7984 C   0  0  0  0  0  0  0  0  0  0  0  0
   -1.6502   -8.2565   33.7739 C   0  0  0  0  0  0  0  0  0  0  0  0
   -2.0156   -8.7897   32.5528 C   0  0  0  0  0  0  0  0  0  0  0  0
   -1.6319   -8.2768   31.3674 N   0  0  0  0  0  0  0  0  0  0  0  0
   -0.8114   -7.1997   31.4228 C   0  0  0  0  0  0  0  0  0  0  0  0
   -0.3839   -6.5766   29.8849 Cl  0  0  0  0  0  0  0  0  0  0  0  0
   -0.4045   -6.5803   32.5908 C   0  0  0  0  0  0  0  0  0  0  0  0
    0.3579   -5.4797   32.5393 F   0  0  0  0  0  0  0  0  0  0  0  0
  1  2  1  0
  2  3  1  0
  2  4  1  0
  4  5  2  0
  5  6  1  0
  6  7  2  0
  7  8  1  0
  7  9  1  0
  9 10  2  0
 10 11  1  0
 11 12  1  0
 12 13  2  0
 12 14  1  0
 14 15  2  0
 15 16  1  0
 16 17  2  0
 17 18  1  0
 18 19  1  0
 18 20  2  0
 20 21  1  0
 10  4  1  0
 20 14  1  0
M  END
>  <ref_mols>  (174) 
7gov-a

>  <gnina_score>  (174) 
5.022

>  <smina_score_min>  (174) 
-5.798

>  <ref_pdb>  (174) 
7gov-a

>  <inspiration_score>  (174) 
None

>  <inchikey>  (174) 
HIGKBPDBEOAWFA-UHFFFAOYSA-N

>  <tags>  (174) 
BulkDock Fragalysis export,openbind_d68ev3c_c2_elabs_scored,openbind_d68ev3c_c2_elabs_scored_4.5plus,openbind_d68ev3c_c2_elabs,openbind_d68ev3c_c2_elabs_scored_5plus,syndirella_product,openbind_d68ev3c_c2_elabs_scored_top80percent,syndirella_placed

>  <smiles>  (174) 
CC(C)c1ccc(F)cc1NC(=O)c1ccnc(Cl)c1F

>  <subsites>  (174) 
None

>  <rmsd(smina/fragmenstein)>  (174) 
0.972

>  <alias>  (174) 
None

>  <energy_score>  (174) 
-12.380275

>  <HIPPO Pose ID>  (174) 
64771

>  <distance_score>  (174) 
0.686025

>  <HIPPO Compound ID>  (174) 
101424

>  <gnina_score_min>  (174) 
5.066

>  <name>  (174) 
P64771

>  <exports>  (174) 
['/opt/xchem-fragalysis-2/maxwin/BulkDock/OUTPUTS/openbind_d68ev3c_c2_elabs_1LOTQJ3.sdf', '/opt/xchem-fragalysis-2/maxwin/BulkDock/OUTPUTS/openbind_d68ev3c_c2_elabs_1LSYEHW.sdf', '/opt/xchem-fragalysis-2/maxwin/BulkDock/OUTPUTS/openbind_d68ev3c_c2_elabs_1LSYI5W.sdf']

$$$$
P64774
     RDKit          3D

 21 22  0  0  0  0  0  0  0  0999 V2000
    4.0288   -3.1499   34.2750 C   0  0  0  0  0  0  0  0  0  0  0  0
    2.5739   -3.5240   34.3871 C   0  0  0  0  0  0  0  0  0  0  0  0
    1.9008   -3.7853   33.3893 O   0  0  0  0  0  0  0  0  0  0  0  0
    1.9460   -3.5561   35.7401 C   0  0  0  0  0  0  0  0  0  0  0  0
    2.4503   -2.7595   36.7759 C   0  0  0  0  0  0  0  0  0  0  0  0
    1.8904   -2.8495   38.0480 C   0  0  0  0  0  0  0  0  0  0  0  0
    2.3695   -2.0688   39.0269 F   0  0  0  0  0  0  0  0  0  0  0  0
    0.8437   -3.7261   38.3028 C   0  0  0  0  0  0  0  0  0  0  0  0
    0.2960   -3.7872   39.5245 F   0  0  0  0  0  0  0  0  0  0  0  0
    0.3439   -4.5331   37.2894 C   0  0  0  0  0  0  0  0  0  0  0  0
    0.8834   -4.4393   36.0021 C   0  0  0  0  0  0  0  0  0  0  0  0
    0.3465   -5.2323   34.9956 N   0  0  0  0  0  0  0  0  0  0  0  0
   -0.2553   -6.6497   35.0518 C   0  0  0  0  0  0  0  0  0  0  0  0
   -0.4657   -7.3445   35.9625 O   0  0  0  0  0  0  0  0  0  0  0  0
   -0.7007   -7.1494   33.6967 C   0  0  0  0  0  0  0  0  0  0  0  0
   -0.0366   -6.7585   32.5251 C   0  0  0  0  0  0  0  0  0  0  0  0
   -0.4825   -7.2312   31.2989 C   0  0  0  0  0  0  0  0  0  0  0  0
   -1.5158   -8.0831   31.1539 N   0  0  0  0  0  0  0  0  0  0  0  0
   -2.1045   -8.4922   32.2958 C   0  0  0  0  0  0  0  0  0  0  0  0
   -1.7627   -8.0544   33.5665 C   0  0  0  0  0  0  0  0  0  0  0  0
   -3.0217   -8.7657   35.0489 I   0  0  0  0  0  0  0  0  0  0  0  0
  1  2  1  0
  2  3  2  0
  2  4  1  0
  4  5  2  0
  5  6  1  0
  6  7  1  0
  6  8  2  0
  8  9  1  0
  8 10  1  0
 10 11  2  0
 11 12  1  0
 12 13  1  0
 13 14  2  0
 13 15  1  0
 15 16  2  0
 16 17  1  0
 17 18  2  0
 18 19  1  0
 19 20  2  0
 20 21  1  0
 11  4  1  0
 20 15  1  0
M  END
>  <ref_mols>  (175) 
7gov-a

>  <gnina_score>  (175) 
5.208

>  <smina_score_min>  (175) 
-4.865

>  <ref_pdb>  (175) 
7gov-a

>  <inspiration_score>  (175) 
None

>  <inchikey>  (175) 
FLSDLYANSWSGBN-UHFFFAOYSA-N

>  <tags>  (175) 
BulkDock Fragalysis export,openbind_d68ev3c_c2_elabs_scored,openbind_d68ev3c_c2_elabs_scored_4.5plus,openbind_d68ev3c_c2_elabs,openbind_d68ev3c_c2_elabs_scored_5plus,syndirella_product,openbind_d68ev3c_c2_elabs_scored_top80percent,syndirella_placed

>  <smiles>  (175) 
CC(=O)c1cc(F)c(F)cc1NC(=O)c1ccncc1I

>  <subsites>  (175) 
None

>  <rmsd(smina/fragmenstein)>  (175) 
1.423

>  <alias>  (175) 
None

>  <energy_score>  (175) 
-31.777493

>  <HIPPO Pose ID>  (175) 
64774

>  <distance_score>  (175) 
0.551265

>  <HIPPO Compound ID>  (175) 
101427

>  <gnina_score_min>  (175) 
5.087

>  <name>  (175) 
P64774

>  <exports>  (175) 
['/opt/xchem-fragalysis-2/maxwin/BulkDock/OUTPUTS/openbind_d68ev3c_c2_elabs_1LOTQJ3.sdf', '/opt/xchem-fragalysis-2/maxwin/BulkDock/OUTPUTS/openbind_d68ev3c_c2_elabs_1LSYEHW.sdf', '/opt/xchem-fragalysis-2/maxwin/BulkDock/OUTPUTS/openbind_d68ev3c_c2_elabs_1LSYI5W.sdf']

$$$$
P64779
     RDKit          3D

 21 22  0  0  0  0  0  0  0  0999 V2000
    2.2591   -1.9441   39.3092 C   0  0  0  0  0  0  0  0  0  0  0  0
    1.8298   -2.8262   38.1712 C   0  0  0  0  0  0  0  0  0  0  0  0
    0.7170   -3.6497   38.3412 C   0  0  0  0  0  0  0  0  0  0  0  0
    0.0473   -3.6407   39.5039 F   0  0  0  0  0  0  0  0  0  0  0  0
    0.2588   -4.4775   37.3273 C   0  0  0  0  0  0  0  0  0  0  0  0
    0.9301   -4.5225   36.1067 C   0  0  0  0  0  0  0  0  0  0  0  0
    0.4223   -5.3269   35.0835 N   0  0  0  0  0  0  0  0  0  0  0  0
   -0.6231   -6.4635   35.1257 C   0  0  0  0  0  0  0  0  0  0  0  0
   -1.2807   -6.8550   36.0084 O   0  0  0  0  0  0  0  0  0  0  0  0
   -0.8524   -7.1044   33.7928 C   0  0  0  0  0  0  0  0  0  0  0  0
   -1.6461   -8.2608   33.7673 C   0  0  0  0  0  0  0  0  0  0  0  0
   -1.9997   -8.7973   32.5445 C   0  0  0  0  0  0  0  0  0  0  0  0
   -1.6143   -8.2808   31.3607 N   0  0  0  0  0  0  0  0  0  0  0  0
   -0.8024   -7.1967   31.4185 C   0  0  0  0  0  0  0  0  0  0  0  0
   -0.3771   -6.5685   29.8823 Cl  0  0  0  0  0  0  0  0  0  0  0  0
   -0.4062   -6.5733   32.5878 C   0  0  0  0  0  0  0  0  0  0  0  0
    0.3465   -5.4634   32.5424 F   0  0  0  0  0  0  0  0  0  0  0  0
    2.0830   -3.7343   35.8944 C   0  0  0  0  0  0  0  0  0  0  0  0
    2.8242   -3.8250   34.5817 C   0  0  0  0  0  0  0  0  0  0  0  0
    2.5020   -2.8631   36.9318 C   0  0  0  0  0  0  0  0  0  0  0  0
    3.9878   -1.6809   36.6658 Br  0  0  0  0  0  0  0  0  0  0  0  0
  1  2  1  0
  2  3  2  0
  3  4  1  0
  3  5  1  0
  5  6  2  0
  6  7  1  0
  7  8  1  0
  8  9  2  0
  8 10  1  0
 10 11  2  0
 11 12  1  0
 12 13  2  0
 13 14  1  0
 14 15  1  0
 14 16  2  0
 16 17  1  0
  6 18  1  0
 18 19  1  0
 18 20  2  0
 20 21  1  0
 20  2  1  0
 16 10  1  0
M  END
>  <ref_mols>  (176) 
7gov-a

>  <gnina_score>  (176) 
5.143

>  <smina_score_min>  (176) 
-6.152

>  <ref_pdb>  (176) 
7gov-a

>  <inspiration_score>  (176) 
None

>  <inchikey>  (176) 
DZIKPRDAKLOMCG-UHFFFAOYSA-N

>  <tags>  (176) 
BulkDock Fragalysis export,openbind_d68ev3c_c2_elabs_scored,openbind_d68ev3c_c2_elabs_scored_4.5plus,openbind_d68ev3c_c2_elabs,openbind_d68ev3c_c2_elabs_scored_5plus,syndirella_product,openbind_d68ev3c_c2_elabs_scored_top80percent,syndirella_placed

>  <smiles>  (176) 
Cc1c(F)cc(NC(=O)c2ccnc(Cl)c2F)c(C)c1Br

>  <subsites>  (176) 
None

>  <rmsd(smina/fragmenstein)>  (176) 
1.097

>  <alias>  (176) 
None

>  <energy_score>  (176) 
-22.863991

>  <HIPPO Pose ID>  (176) 
64779

>  <distance_score>  (176) 
0.690298

>  <HIPPO Compound ID>  (176) 
101437

>  <gnina_score_min>  (176) 
5.094

>  <name>  (176) 
P64779

>  <exports>  (176) 
['/opt/xchem-fragalysis-2/maxwin/BulkDock/OUTPUTS/openbind_d68ev3c_c2_elabs_1LOTQJ3.sdf', '/opt/xchem-fragalysis-2/maxwin/BulkDock/OUTPUTS/openbind_d68ev3c_c2_elabs_1LSYEHW.sdf', '/opt/xchem-fragalysis-2/maxwin/BulkDock/OUTPUTS/openbind_d68ev3c_c2_elabs_1LSYI5W.sdf']

$$$$
P64780
     RDKit          3D

 21 22  0  0  0  0  0  0  0  0999 V2000
    3.4576   -3.7505   33.2902 N   0  0  0  0  0  0  0  0  0  0  0  0
    2.9738   -3.7063   34.3445 C   0  0  0  0  0  0  0  0  0  0  0  0
    2.3508   -3.6108   35.6340 C   0  0  0  0  0  0  0  0  0  0  0  0
    2.9515   -2.7733   36.5904 C   0  0  0  0  0  0  0  0  0  0  0  0
    2.4166   -2.6638   37.8703 C   0  0  0  0  0  0  0  0  0  0  0  0
    1.2737   -3.3788   38.1866 C   0  0  0  0  0  0  0  0  0  0  0  0
    0.7425   -3.2269   39.4117 F   0  0  0  0  0  0  0  0  0  0  0  0
    0.6548   -4.2067   37.2435 C   0  0  0  0  0  0  0  0  0  0  0  0
   -1.0167   -4.8865   37.7803 Br  0  0  0  0  0  0  0  0  0  0  0  0
    1.1976   -4.3559   35.9528 C   0  0  0  0  0  0  0  0  0  0  0  0
    0.6213   -5.1670   34.9522 N   0  0  0  0  0  0  0  0  0  0  0  0
   -0.0558   -6.5551   35.0499 C   0  0  0  0  0  0  0  0  0  0  0  0
   -0.3110   -7.2090   35.9839 O   0  0  0  0  0  0  0  0  0  0  0  0
   -0.5434   -7.0857   33.7359 C   0  0  0  0  0  0  0  0  0  0  0  0
   -1.4412   -8.1672   33.7747 C   0  0  0  0  0  0  0  0  0  0  0  0
   -1.9552   -8.6578   32.5885 C   0  0  0  0  0  0  0  0  0  0  0  0
   -1.6354   -8.1627   31.3767 N   0  0  0  0  0  0  0  0  0  0  0  0
   -0.7364   -7.1451   31.3683 C   0  0  0  0  0  0  0  0  0  0  0  0
   -0.3872   -6.5502   29.7993 Cl  0  0  0  0  0  0  0  0  0  0  0  0
   -0.1853   -6.5666   32.4997 C   0  0  0  0  0  0  0  0  0  0  0  0
    0.6375   -5.5124   32.3961 F   0  0  0  0  0  0  0  0  0  0  0  0
  1  2  3  0
  2  3  1  0
  3  4  2  0
  4  5  1  0
  5  6  2  0
  6  7  1  0
  6  8  1  0
  8  9  1  0
  8 10  2  0
 10 11  1  0
 11 12  1  0
 12 13  2  0
 12 14  1  0
 14 15  2  0
 15 16  1  0
 16 17  2  0
 17 18  1  0
 18 19  1  0
 18 20  2  0
 20 21  1  0
 10  3  1  0
 20 14  1  0
M  END
>  <ref_mols>  (177) 
7gov-a

>  <gnina_score>  (177) 
5.169

>  <smina_score_min>  (177) 
-5.38

>  <ref_pdb>  (177) 
7gov-a

>  <inspiration_score>  (177) 
None

>  <inchikey>  (177) 
QNJGPVSBHLOAQJ-UHFFFAOYSA-N

>  <tags>  (177) 
BulkDock Fragalysis export,openbind_d68ev3c_c2_elabs_scored,openbind_d68ev3c_c2_elabs_scored_4.5plus,openbind_d68ev3c_c2_elabs,openbind_d68ev3c_c2_elabs_scored_5plus,syndirella_product,openbind_d68ev3c_c2_elabs_scored_top80percent,syndirella_placed

>  <smiles>  (177) 
N#Cc1ccc(F)c(Br)c1NC(=O)c1ccnc(Cl)c1F

>  <subsites>  (177) 
None

>  <rmsd(smina/fragmenstein)>  (177) 
0.651

>  <alias>  (177) 
None

>  <energy_score>  (177) 
-2.069808

>  <HIPPO Pose ID>  (177) 
64780

>  <distance_score>  (177) 
0.604047

>  <HIPPO Compound ID>  (177) 
101439

>  <gnina_score_min>  (177) 
5.027

>  <name>  (177) 
P64780

>  <exports>  (177) 
['/opt/xchem-fragalysis-2/maxwin/BulkDock/OUTPUTS/openbind_d68ev3c_c2_elabs_1LOTQJ3.sdf', '/opt/xchem-fragalysis-2/maxwin/BulkDock/OUTPUTS/openbind_d68ev3c_c2_elabs_1LSYEHW.sdf', '/opt/xchem-fragalysis-2/maxwin/BulkDock/OUTPUTS/openbind_d68ev3c_c2_elabs_1LSYI5W.sdf']

$$$$
P64782
     RDKit          3D

 21 22  0  0  0  0  0  0  0  0999 V2000
    3.9366   -4.3613   34.4321 C   0  0  0  0  0  0  0  0  0  0  0  0
    2.9268   -3.2340   34.5954 C   0  0  0  0  0  0  0  0  0  0  0  0
    2.1831   -3.3088   35.9086 C   0  0  0  0  0  0  0  0  0  0  0  0
    2.6168   -2.5152   36.9847 C   0  0  0  0  0  0  0  0  0  0  0  0
    2.0090   -2.6213   38.2390 C   0  0  0  0  0  0  0  0  0  0  0  0
    2.6243   -1.5394   39.6633 Br  0  0  0  0  0  0  0  0  0  0  0  0
    0.9662   -3.5187   38.4325 C   0  0  0  0  0  0  0  0  0  0  0  0
    0.3506   -3.6207   39.6200 F   0  0  0  0  0  0  0  0  0  0  0  0
    0.5357   -4.3246   37.3901 C   0  0  0  0  0  0  0  0  0  0  0  0
    1.1406   -4.2196   36.1345 C   0  0  0  0  0  0  0  0  0  0  0  0
    0.6961   -5.0391   35.1102 N   0  0  0  0  0  0  0  0  0  0  0  0
   -0.0376   -6.3890   35.1583 C   0  0  0  0  0  0  0  0  0  0  0  0
   -0.3173   -7.0643   36.0651 O   0  0  0  0  0  0  0  0  0  0  0  0
   -0.4660   -6.8519   33.8100 C   0  0  0  0  0  0  0  0  0  0  0  0
    0.1695   -6.5238   32.6058 C   0  0  0  0  0  0  0  0  0  0  0  0
   -0.3334   -7.0440   31.4189 C   0  0  0  0  0  0  0  0  0  0  0  0
   -1.3980   -7.8642   31.3560 N   0  0  0  0  0  0  0  0  0  0  0  0
   -1.9518   -8.1768   32.5463 C   0  0  0  0  0  0  0  0  0  0  0  0
   -3.2877   -9.2016   32.4353 Cl  0  0  0  0  0  0  0  0  0  0  0  0
   -1.5604   -7.6978   33.7728 C   0  0  0  0  0  0  0  0  0  0  0  0
   -2.2763   -7.9981   34.8682 F   0  0  0  0  0  0  0  0  0  0  0  0
  1  2  1  0
  2  3  1  0
  3  4  2  0
  4  5  1  0
  5  6  1  0
  5  7  2  0
  7  8  1  0
  7  9  1  0
  9 10  2  0
 10 11  1  0
 11 12  1  0
 12 13  2  0
 12 14  1  0
 14 15  2  0
 15 16  1  0
 16 17  2  0
 17 18  1  0
 18 19  1  0
 18 20  2  0
 20 21  1  0
 10  3  1  0
 20 14  1  0
M  END
>  <ref_mols>  (178) 
7gov-a

>  <gnina_score>  (178) 
5.185

>  <smina_score_min>  (178) 
-5.694

>  <ref_pdb>  (178) 
7gov-a

>  <inspiration_score>  (178) 
None

>  <inchikey>  (178) 
BKFHBTFRRPMPIR-UHFFFAOYSA-N

>  <tags>  (178) 
BulkDock Fragalysis export,openbind_d68ev3c_c2_elabs_scored,openbind_d68ev3c_c2_elabs_scored_4.5plus,openbind_d68ev3c_c2_elabs,openbind_d68ev3c_c2_elabs_scored_5plus,syndirella_product,openbind_d68ev3c_c2_elabs_scored_top80percent,syndirella_placed

>  <smiles>  (178) 
CCc1cc(Br)c(F)cc1NC(=O)c1ccnc(Cl)c1F

>  <subsites>  (178) 
None

>  <rmsd(smina/fragmenstein)>  (178) 
1.361

>  <alias>  (178) 
None

>  <energy_score>  (178) 
-14.082274

>  <HIPPO Pose ID>  (178) 
64782

>  <distance_score>  (178) 
0.674782

>  <HIPPO Compound ID>  (178) 
101447

>  <gnina_score_min>  (178) 
5.146

>  <name>  (178) 
P64782

>  <exports>  (178) 
['/opt/xchem-fragalysis-2/maxwin/BulkDock/OUTPUTS/openbind_d68ev3c_c2_elabs_1LOTQJ3.sdf', '/opt/xchem-fragalysis-2/maxwin/BulkDock/OUTPUTS/openbind_d68ev3c_c2_elabs_1LSYEHW.sdf', '/opt/xchem-fragalysis-2/maxwin/BulkDock/OUTPUTS/openbind_d68ev3c_c2_elabs_1LSYI5W.sdf']

$$$$
P64784
     RDKit          3D

 21 22  0  0  0  0  0  0  0  0999 V2000
    3.3180   -3.7338   33.5545 C   0  0  0  0  0  0  0  0  0  0  0  0
    2.7424   -3.7234   34.6084 C   0  0  0  0  0  0  0  0  0  0  0  0
    2.0496   -3.7143   35.8661 C   0  0  0  0  0  0  0  0  0  0  0  0
    2.5251   -2.8799   36.8830 C   0  0  0  0  0  0  0  0  0  0  0  0
    1.8857   -2.8679   38.1174 C   0  0  0  0  0  0  0  0  0  0  0  0
    2.3474   -2.0667   39.0884 F   0  0  0  0  0  0  0  0  0  0  0  0
    0.7743   -3.6696   38.3433 C   0  0  0  0  0  0  0  0  0  0  0  0
    0.1561   -3.6441   39.5325 F   0  0  0  0  0  0  0  0  0  0  0  0
    0.2863   -4.5009   37.3410 C   0  0  0  0  0  0  0  0  0  0  0  0
    0.9259   -4.5332   36.0984 C   0  0  0  0  0  0  0  0  0  0  0  0
    0.4424   -5.3545   35.0791 N   0  0  0  0  0  0  0  0  0  0  0  0
   -0.6627   -6.4326   35.0986 C   0  0  0  0  0  0  0  0  0  0  0  0
   -1.3956   -6.7502   35.9510 O   0  0  0  0  0  0  0  0  0  0  0  0
   -0.8655   -7.0974   33.7756 C   0  0  0  0  0  0  0  0  0  0  0  0
   -1.6434   -8.2640   33.7590 C   0  0  0  0  0  0  0  0  0  0  0  0
   -1.9856   -8.8145   32.5396 C   0  0  0  0  0  0  0  0  0  0  0  0
   -1.6021   -8.3029   31.3529 N   0  0  0  0  0  0  0  0  0  0  0  0
   -0.8048   -7.2078   31.4035 C   0  0  0  0  0  0  0  0  0  0  0  0
   -0.3871   -6.5855   29.8628 Cl  0  0  0  0  0  0  0  0  0  0  0  0
   -0.4230   -6.5687   32.5686 C   0  0  0  0  0  0  0  0  0  0  0  0
    0.3007   -5.4405   32.5180 F   0  0  0  0  0  0  0  0  0  0  0  0
  1  2  3  0
  2  3  1  0
  3  4  2  0
  4  5  1  0
  5  6  1  0
  5  7  2  0
  7  8  1  0
  7  9  1  0
  9 10  2  0
 10 11  1  0
 11 12  1  0
 12 13  2  0
 12 14  1  0
 14 15  2  0
 15 16  1  0
 16 17  2  0
 17 18  1  0
 18 19  1  0
 18 20  2  0
 20 21  1  0
 10  3  1  0
 20 14  1  0
M  END
>  <ref_mols>  (179) 
7gov-a

>  <gnina_score>  (179) 
5.115

>  <smina_score_min>  (179) 
-5.947

>  <ref_pdb>  (179) 
7gov-a

>  <inspiration_score>  (179) 
None

>  <inchikey>  (179) 
KOMLFNUTLKOZOK-UHFFFAOYSA-N

>  <tags>  (179) 
BulkDock Fragalysis export,openbind_d68ev3c_c2_elabs_scored,openbind_d68ev3c_c2_elabs_scored_4.5plus,openbind_d68ev3c_c2_elabs,openbind_d68ev3c_c2_elabs_scored_5plus,syndirella_product,openbind_d68ev3c_c2_elabs_scored_top80percent,syndirella_placed

>  <smiles>  (179) 
C#Cc1cc(F)c(F)cc1NC(=O)c1ccnc(Cl)c1F

>  <subsites>  (179) 
None

>  <rmsd(smina/fragmenstein)>  (179) 
1.181

>  <alias>  (179) 
None

>  <energy_score>  (179) 
-18.837203

>  <HIPPO Pose ID>  (179) 
64784

>  <distance_score>  (179) 
0.720057

>  <HIPPO Compound ID>  (179) 
101449

>  <gnina_score_min>  (179) 
5.107

>  <name>  (179) 
P64784

>  <exports>  (179) 
['/opt/xchem-fragalysis-2/maxwin/BulkDock/OUTPUTS/openbind_d68ev3c_c2_elabs_1LOTQJ3.sdf', '/opt/xchem-fragalysis-2/maxwin/BulkDock/OUTPUTS/openbind_d68ev3c_c2_elabs_1LSYEHW.sdf', '/opt/xchem-fragalysis-2/maxwin/BulkDock/OUTPUTS/openbind_d68ev3c_c2_elabs_1LSYI5W.sdf']

$$$$
P64786
     RDKit          3D

 21 22  0  0  0  0  0  0  0  0999 V2000
    3.7815   -2.9443   34.3338 O   0  0  0  0  0  0  0  0  0  0  0  0
    3.0019   -3.8373   34.6473 C   0  0  0  0  0  0  0  0  0  0  0  0
    2.1770   -3.7589   35.8732 C   0  0  0  0  0  0  0  0  0  0  0  0
    2.5915   -2.8648   36.8731 C   0  0  0  0  0  0  0  0  0  0  0  0
    1.8988   -2.8015   38.0793 C   0  0  0  0  0  0  0  0  0  0  0  0
    2.4353   -1.7261   39.3120 Cl  0  0  0  0  0  0  0  0  0  0  0  0
    0.7836   -3.6084   38.2779 C   0  0  0  0  0  0  0  0  0  0  0  0
    0.0989   -3.5593   39.4305 F   0  0  0  0  0  0  0  0  0  0  0  0
    0.3502   -4.4808   37.2823 C   0  0  0  0  0  0  0  0  0  0  0  0
    1.0460   -4.5722   36.0707 C   0  0  0  0  0  0  0  0  0  0  0  0
    0.5753   -5.4399   35.0795 N   0  0  0  0  0  0  0  0  0  0  0  0
   -0.5376   -6.5110   35.1289 C   0  0  0  0  0  0  0  0  0  0  0  0
   -1.1836   -6.8906   36.0249 O   0  0  0  0  0  0  0  0  0  0  0  0
   -0.8185   -7.1305   33.7957 C   0  0  0  0  0  0  0  0  0  0  0  0
   -1.6408   -8.2662   33.7748 C   0  0  0  0  0  0  0  0  0  0  0  0
   -2.0223   -8.7867   32.5533 C   0  0  0  0  0  0  0  0  0  0  0  0
   -1.6393   -8.2720   31.3678 N   0  0  0  0  0  0  0  0  0  0  0  0
   -0.8058   -7.2047   31.4197 C   0  0  0  0  0  0  0  0  0  0  0  0
   -0.3847   -6.5787   29.8822 Cl  0  0  0  0  0  0  0  0  0  0  0  0
   -0.3807   -6.5987   32.5877 C   0  0  0  0  0  0  0  0  0  0  0  0
    0.3981   -5.5067   32.5436 F   0  0  0  0  0  0  0  0  0  0  0  0
  1  2  2  0
  2  3  1  0
  3  4  2  0
  4  5  1  0
  5  6  1  0
  5  7  2  0
  7  8  1  0
  7  9  1  0
  9 10  2  0
 10 11  1  0
 11 12  1  0
 12 13  2  0
 12 14  1  0
 14 15  2  0
 15 16  1  0
 16 17  2  0
 17 18  1  0
 18 19  1  0
 18 20  2  0
 20 21  1  0
 10  3  1  0
 20 14  1  0
M  END
>  <ref_mols>  (180) 
7gov-a

>  <gnina_score>  (180) 
5.07

>  <smina_score_min>  (180) 
-6.034

>  <ref_pdb>  (180) 
7gov-a

>  <inspiration_score>  (180) 
None

>  <inchikey>  (180) 
AYXXIDDUQDUYSE-UHFFFAOYSA-N

>  <tags>  (180) 
BulkDock Fragalysis export,openbind_d68ev3c_c2_elabs_scored,openbind_d68ev3c_c2_elabs_scored_4.5plus,openbind_d68ev3c_c2_elabs,openbind_d68ev3c_c2_elabs_scored_5plus,syndirella_product,openbind_d68ev3c_c2_elabs_scored_top80percent,syndirella_placed

>  <smiles>  (180) 
O=Cc1cc(Cl)c(F)cc1NC(=O)c1ccnc(Cl)c1F

>  <subsites>  (180) 
None

>  <rmsd(smina/fragmenstein)>  (180) 
1.185

>  <alias>  (180) 
None

>  <energy_score>  (180) 
-21.589895

>  <HIPPO Pose ID>  (180) 
64786

>  <distance_score>  (180) 
0.675481

>  <HIPPO Compound ID>  (180) 
101451

>  <gnina_score_min>  (180) 
5.009

>  <name>  (180) 
P64786

>  <exports>  (180) 
['/opt/xchem-fragalysis-2/maxwin/BulkDock/OUTPUTS/openbind_d68ev3c_c2_elabs_1LOTQJ3.sdf', '/opt/xchem-fragalysis-2/maxwin/BulkDock/OUTPUTS/openbind_d68ev3c_c2_elabs_1LSYEHW.sdf', '/opt/xchem-fragalysis-2/maxwin/BulkDock/OUTPUTS/openbind_d68ev3c_c2_elabs_1LSYI5W.sdf']

$$$$
P64790
     RDKit          3D

 21 22  0  0  0  0  0  0  0  0999 V2000
    0.7591   -2.4940   31.9158 C   0  0  0  0  0  0  0  0  0  0  0  0
    0.6161   -3.0138   33.2399 O   0  0  0  0  0  0  0  0  0  0  0  0
    1.4128   -2.4038   34.1587 C   0  0  0  0  0  0  0  0  0  0  0  0
    2.1923   -1.4946   33.9148 O   0  0  0  0  0  0  0  0  0  0  0  0
    1.1773   -2.9334   35.5332 C   0  0  0  0  0  0  0  0  0  0  0  0
    1.6291   -2.1294   36.5974 C   0  0  0  0  0  0  0  0  0  0  0  0
    1.4232   -2.5151   37.9223 C   0  0  0  0  0  0  0  0  0  0  0  0
    0.7761   -3.7113   38.1867 C   0  0  0  0  0  0  0  0  0  0  0  0
    0.4989   -4.0426   39.4548 F   0  0  0  0  0  0  0  0  0  0  0  0
    0.3867   -4.5554   37.1535 C   0  0  0  0  0  0  0  0  0  0  0  0
    0.5932   -4.1813   35.8208 C   0  0  0  0  0  0  0  0  0  0  0  0
    0.2114   -5.0590   34.8066 N   0  0  0  0  0  0  0  0  0  0  0  0
   -0.0853   -6.5735   34.8500 C   0  0  0  0  0  0  0  0  0  0  0  0
    0.0174   -7.3388   35.7237 O   0  0  0  0  0  0  0  0  0  0  0  0
   -0.6132   -7.0689   33.5433 C   0  0  0  0  0  0  0  0  0  0  0  0
   -0.0008   -6.6587   32.3540 C   0  0  0  0  0  0  0  0  0  0  0  0
   -0.4839   -7.1534   31.1545 C   0  0  0  0  0  0  0  0  0  0  0  0
   -1.5123   -8.0215   31.0631 N   0  0  0  0  0  0  0  0  0  0  0  0
   -2.0520   -8.4337   32.2299 C   0  0  0  0  0  0  0  0  0  0  0  0
   -1.6628   -7.9851   33.4778 C   0  0  0  0  0  0  0  0  0  0  0  0
   -2.8163   -8.6708   35.0340 I   0  0  0  0  0  0  0  0  0  0  0  0
  1  2  1  0
  2  3  1  0
  3  4  2  0
  3  5  1  0
  5  6  2  0
  6  7  1  0
  7  8  2  0
  8  9  1  0
  8 10  1  0
 10 11  2  0
 11 12  1  0
 12 13  1  0
 13 14  2  0
 13 15  1  0
 15 16  2  0
 16 17  1  0
 17 18  2  0
 18 19  1  0
 19 20  2  0
 20 21  1  0
 11  5  1  0
 20 15  1  0
M  END
>  <ref_mols>  (181) 
7gov-a

>  <gnina_score>  (181) 
5.014

>  <smina_score_min>  (181) 
-4.822

>  <ref_pdb>  (181) 
7gov-a

>  <inspiration_score>  (181) 
None

>  <inchikey>  (181) 
YEDFMOJXBPIBPY-UHFFFAOYSA-N

>  <tags>  (181) 
BulkDock Fragalysis export,openbind_d68ev3c_c2_elabs_scored,openbind_d68ev3c_c2_elabs_scored_4.5plus,openbind_d68ev3c_c2_elabs,openbind_d68ev3c_c2_elabs_scored_5plus,syndirella_product,openbind_d68ev3c_c2_elabs_scored_top80percent,syndirella_placed

>  <smiles>  (181) 
COC(=O)c1ccc(F)cc1NC(=O)c1ccncc1I

>  <subsites>  (181) 
None

>  <rmsd(smina/fragmenstein)>  (181) 
1.434

>  <alias>  (181) 
None

>  <energy_score>  (181) 
-19.708678

>  <HIPPO Pose ID>  (181) 
64790

>  <distance_score>  (181) 
0.855292

>  <HIPPO Compound ID>  (181) 
101461

>  <gnina_score_min>  (181) 
5.112

>  <name>  (181) 
P64790

>  <exports>  (181) 
['/opt/xchem-fragalysis-2/maxwin/BulkDock/OUTPUTS/openbind_d68ev3c_c2_elabs_1LOTQJ3.sdf', '/opt/xchem-fragalysis-2/maxwin/BulkDock/OUTPUTS/openbind_d68ev3c_c2_elabs_1LSYEHW.sdf', '/opt/xchem-fragalysis-2/maxwin/BulkDock/OUTPUTS/openbind_d68ev3c_c2_elabs_1LSYI5W.sdf']

$$$$
P64791
     RDKit          3D

 21 22  0  0  0  0  0  0  0  0999 V2000
    2.2897   -1.9305   39.2621 C   0  0  0  0  0  0  0  0  0  0  0  0
    1.8183   -2.7892   38.1235 C   0  0  0  0  0  0  0  0  0  0  0  0
    0.7961   -3.7107   38.3515 C   0  0  0  0  0  0  0  0  0  0  0  0
    0.2300   -3.8010   39.5645 F   0  0  0  0  0  0  0  0  0  0  0  0
    0.3183   -4.5324   37.3427 C   0  0  0  0  0  0  0  0  0  0  0  0
    0.8532   -4.4413   36.0587 C   0  0  0  0  0  0  0  0  0  0  0  0
    0.2850   -5.2341   35.0663 N   0  0  0  0  0  0  0  0  0  0  0  0
   -0.3053   -6.6591   35.1368 C   0  0  0  0  0  0  0  0  0  0  0  0
   -0.4774   -7.3605   36.0512 O   0  0  0  0  0  0  0  0  0  0  0  0
   -0.7745   -7.1681   33.8004 C   0  0  0  0  0  0  0  0  0  0  0  0
   -0.1793   -6.7459   32.6040 C   0  0  0  0  0  0  0  0  0  0  0  0
   -0.7125   -7.1954   31.4098 C   0  0  0  0  0  0  0  0  0  0  0  0
   -0.2459   -6.4917   29.9219 Cl  0  0  0  0  0  0  0  0  0  0  0  0
   -1.7147   -8.0896   31.3063 N   0  0  0  0  0  0  0  0  0  0  0  0
   -2.2214   -8.5391   32.4737 C   0  0  0  0  0  0  0  0  0  0  0  0
   -1.8300   -8.0902   33.7263 C   0  0  0  0  0  0  0  0  0  0  0  0
   -2.8122   -8.6116   35.0414 Cl  0  0  0  0  0  0  0  0  0  0  0  0
    1.9083   -3.5540   35.7808 C   0  0  0  0  0  0  0  0  0  0  0  0
    2.5691   -3.5340   34.4248 C   0  0  0  0  0  0  0  0  0  0  0  0
    2.3699   -2.7165   36.8278 C   0  0  0  0  0  0  0  0  0  0  0  0
    3.7550   -1.4364   36.4840 Br  0  0  0  0  0  0  0  0  0  0  0  0
  1  2  1  0
  2  3  2  0
  3  4  1  0
  3  5  1  0
  5  6  2  0
  6  7  1  0
  7  8  1  0
  8  9  2  0
  8 10  1  0
 10 11  2  0
 11 12  1  0
 12 13  1  0
 12 14  2  0
 14 15  1  0
 15 16  2  0
 16 17  1  0
  6 18  1  0
 18 19  1  0
 18 20  2  0
 20 21  1  0
 20  2  1  0
 16 10  1  0
M  END
>  <ref_mols>  (182) 
7gov-a

>  <gnina_score>  (182) 
5.348

>  <smina_score_min>  (182) 
-6.29

>  <ref_pdb>  (182) 
7gov-a

>  <inspiration_score>  (182) 
None

>  <inchikey>  (182) 
PRFAILVWUZNTQU-UHFFFAOYSA-N

>  <tags>  (182) 
BulkDock Fragalysis export,openbind_d68ev3c_c2_elabs_scored,openbind_d68ev3c_c2_elabs_scored_4.5plus,openbind_d68ev3c_c2_elabs,openbind_d68ev3c_c2_elabs_scored_5plus,syndirella_product,openbind_d68ev3c_c2_elabs_scored_top80percent,syndirella_placed

>  <smiles>  (182) 
Cc1c(F)cc(NC(=O)c2cc(Cl)ncc2Cl)c(C)c1Br

>  <subsites>  (182) 
None

>  <rmsd(smina/fragmenstein)>  (182) 
1.04

>  <alias>  (182) 
None

>  <energy_score>  (182) 
-14.354688

>  <HIPPO Pose ID>  (182) 
64791

>  <distance_score>  (182) 
0.557168

>  <HIPPO Compound ID>  (182) 
101464

>  <gnina_score_min>  (182) 
5.409

>  <name>  (182) 
P64791

>  <exports>  (182) 
['/opt/xchem-fragalysis-2/maxwin/BulkDock/OUTPUTS/openbind_d68ev3c_c2_elabs_1LOTQJ3.sdf', '/opt/xchem-fragalysis-2/maxwin/BulkDock/OUTPUTS/openbind_d68ev3c_c2_elabs_1LSYEHW.sdf', '/opt/xchem-fragalysis-2/maxwin/BulkDock/OUTPUTS/openbind_d68ev3c_c2_elabs_1LSYI5W.sdf']

$$$$
P64793
     RDKit          3D

 21 22  0  0  0  0  0  0  0  0999 V2000
    3.8528   -1.7983   34.4684 C   0  0  0  0  0  0  0  0  0  0  0  0
    3.1238   -3.1369   34.6616 C   0  0  0  0  0  0  0  0  0  0  0  0
    4.1353   -4.2831   34.5569 C   0  0  0  0  0  0  0  0  0  0  0  0
    2.3062   -3.2487   35.9437 C   0  0  0  0  0  0  0  0  0  0  0  0
    2.6275   -2.4726   37.0744 C   0  0  0  0  0  0  0  0  0  0  0  0
    1.9263   -2.6088   38.2750 C   0  0  0  0  0  0  0  0  0  0  0  0
    0.9008   -3.5330   38.3664 C   0  0  0  0  0  0  0  0  0  0  0  0
    0.2212   -3.6591   39.5143 F   0  0  0  0  0  0  0  0  0  0  0  0
    0.5685   -4.3265   37.2821 C   0  0  0  0  0  0  0  0  0  0  0  0
    1.2662   -4.1913   36.0749 C   0  0  0  0  0  0  0  0  0  0  0  0
    0.8969   -5.0074   35.0094 N   0  0  0  0  0  0  0  0  0  0  0  0
    0.1099   -6.3259   34.9882 C   0  0  0  0  0  0  0  0  0  0  0  0
   -0.2904   -6.9822   35.8662 O   0  0  0  0  0  0  0  0  0  0  0  0
   -0.2862   -6.7803   33.6075 C   0  0  0  0  0  0  0  0  0  0  0  0
   -1.2944   -7.7520   33.6269 C   0  0  0  0  0  0  0  0  0  0  0  0
   -1.8137   -8.1910   32.4373 C   0  0  0  0  0  0  0  0  0  0  0  0
   -3.1391   -9.2301   32.4427 Cl  0  0  0  0  0  0  0  0  0  0  0  0
   -1.4177   -7.7980   31.2192 N   0  0  0  0  0  0  0  0  0  0  0  0
   -0.4112   -6.8984   31.2139 C   0  0  0  0  0  0  0  0  0  0  0  0
    0.1701   -6.3446   32.3575 C   0  0  0  0  0  0  0  0  0  0  0  0
    1.3970   -5.1710   32.0828 Cl  0  0  0  0  0  0  0  0  0  0  0  0
  1  2  1  0
  2  3  1  0
  2  4  1  0
  4  5  2  0
  5  6  1  0
  6  7  2  0
  7  8  1  0
  7  9  1  0
  9 10  2  0
 10 11  1  0
 11 12  1  0
 12 13  2  0
 12 14  1  0
 14 15  2  0
 15 16  1  0
 16 17  1  0
 16 18  2  0
 18 19  1  0
 19 20  2  0
 20 21  1  0
 10  4  1  0
 20 14  1  0
M  END
>  <ref_mols>  (183) 
7gov-a

>  <gnina_score>  (183) 
5.137

>  <smina_score_min>  (183) 
-5.548

>  <ref_pdb>  (183) 
7gov-a

>  <inspiration_score>  (183) 
None

>  <inchikey>  (183) 
AVZKJSYJIYDATO-UHFFFAOYSA-N

>  <tags>  (183) 
BulkDock Fragalysis export,openbind_d68ev3c_c2_elabs_scored,openbind_d68ev3c_c2_elabs_scored_4.5plus,openbind_d68ev3c_c2_elabs,openbind_d68ev3c_c2_elabs_scored_5plus,syndirella_product,openbind_d68ev3c_c2_elabs_scored_top80percent,syndirella_placed

>  <smiles>  (183) 
CC(C)c1ccc(F)cc1NC(=O)c1cc(Cl)ncc1Cl

>  <subsites>  (183) 
None

>  <rmsd(smina/fragmenstein)>  (183) 
1.42

>  <alias>  (183) 
None

>  <energy_score>  (183) 
-10.783044

>  <HIPPO Pose ID>  (183) 
64793

>  <distance_score>  (183) 
0.691161

>  <HIPPO Compound ID>  (183) 
101470

>  <gnina_score_min>  (183) 
5.095

>  <name>  (183) 
P64793

>  <exports>  (183) 
['/opt/xchem-fragalysis-2/maxwin/BulkDock/OUTPUTS/openbind_d68ev3c_c2_elabs_1LOTQJ3.sdf', '/opt/xchem-fragalysis-2/maxwin/BulkDock/OUTPUTS/openbind_d68ev3c_c2_elabs_1LSYEHW.sdf', '/opt/xchem-fragalysis-2/maxwin/BulkDock/OUTPUTS/openbind_d68ev3c_c2_elabs_1LSYI5W.sdf']

$$$$
P64795
     RDKit          3D

 21 23  0  0  0  0  0  0  0  0999 V2000
   -0.9998   -6.4393   35.8817 O   0  0  0  0  0  0  0  0  0  0  0  0
   -0.2653   -6.0486   35.0635 C   0  0  0  0  0  0  0  0  0  0  0  0
    0.8711   -5.0203   35.1551 N   0  0  0  0  0  0  0  0  0  0  0  0
    1.2739   -4.2100   36.2110 C   0  0  0  0  0  0  0  0  0  0  0  0
    0.5243   -4.2030   37.3924 C   0  0  0  0  0  0  0  0  0  0  0  0
    0.9071   -3.3863   38.4410 C   0  0  0  0  0  0  0  0  0  0  0  0
    0.1951   -3.3931   39.5758 F   0  0  0  0  0  0  0  0  0  0  0  0
    2.0102   -2.5572   38.3255 C   0  0  0  0  0  0  0  0  0  0  0  0
    2.7496   -2.5577   37.1401 C   0  0  0  0  0  0  0  0  0  0  0  0
    2.4154   -3.3951   36.0582 C   0  0  0  0  0  0  0  0  0  0  0  0
    3.2580   -3.3870   34.7950 C   0  0  0  0  0  0  0  0  0  0  0  0
    4.7686   -3.4274   34.8796 C   0  0  0  0  0  0  0  0  0  0  0  0
    4.0233   -4.6294   34.3916 C   0  0  0  0  0  0  0  0  0  0  0  0
   -0.4599   -6.6150   33.6829 C   0  0  0  0  0  0  0  0  0  0  0  0
   -1.3376   -7.7024   33.6600 C   0  0  0  0  0  0  0  0  0  0  0  0
   -1.7423   -8.1901   32.4457 C   0  0  0  0  0  0  0  0  0  0  0  0
   -2.9931   -9.3111   32.3834 Cl  0  0  0  0  0  0  0  0  0  0  0  0
   -1.3159   -7.7697   31.2476 N   0  0  0  0  0  0  0  0  0  0  0  0
   -0.4077   -6.7732   31.2882 C   0  0  0  0  0  0  0  0  0  0  0  0
    0.0251   -6.1414   32.4563 C   0  0  0  0  0  0  0  0  0  0  0  0
    1.0628   -4.7864   32.2375 Cl  0  0  0  0  0  0  0  0  0  0  0  0
  1  2  2  0
  2  3  1  0
  3  4  1  0
  4  5  2  0
  5  6  1  0
  6  7  1  0
  6  8  2  0
  8  9  1  0
  9 10  2  0
 10 11  1  0
 11 12  1  0
 12 13  1  0
  2 14  1  0
 14 15  2  0
 15 16  1  0
 16 17  1  0
 16 18  2  0
 18 19  1  0
 19 20  2  0
 20 21  1  0
 10  4  1  0
 13 11  1  0
 20 14  1  0
M  END
>  <ref_mols>  (184) 
7gov-a

>  <gnina_score>  (184) 
5.184

>  <smina_score_min>  (184) 
-5.254

>  <ref_pdb>  (184) 
7gov-a

>  <inspiration_score>  (184) 
None

>  <inchikey>  (184) 
RYEADWOTTXTILT-UHFFFAOYSA-N

>  <tags>  (184) 
BulkDock Fragalysis export,openbind_d68ev3c_c2_elabs_scored,openbind_d68ev3c_c2_elabs_scored_4.5plus,openbind_d68ev3c_c2_elabs,openbind_d68ev3c_c2_elabs_scored_5plus,syndirella_product,openbind_d68ev3c_c2_elabs_scored_top80percent,syndirella_placed

>  <smiles>  (184) 
O=C(Nc1cc(F)ccc1C1CC1)c1cc(Cl)ncc1Cl

>  <subsites>  (184) 
None

>  <rmsd(smina/fragmenstein)>  (184) 
0.874

>  <alias>  (184) 
None

>  <energy_score>  (184) 
-22.34805

>  <HIPPO Pose ID>  (184) 
64795

>  <distance_score>  (184) 
0.848563

>  <HIPPO Compound ID>  (184) 
101472

>  <gnina_score_min>  (184) 
5.187

>  <name>  (184) 
P64795

>  <exports>  (184) 
['/opt/xchem-fragalysis-2/maxwin/BulkDock/OUTPUTS/openbind_d68ev3c_c2_elabs_1LOTQJ3.sdf', '/opt/xchem-fragalysis-2/maxwin/BulkDock/OUTPUTS/openbind_d68ev3c_c2_elabs_1LSYEHW.sdf', '/opt/xchem-fragalysis-2/maxwin/BulkDock/OUTPUTS/openbind_d68ev3c_c2_elabs_1LSYI5W.sdf']

$$$$
P64796
     RDKit          3D

 21 22  0  0  0  0  0  0  0  0999 V2000
    3.0653   -4.2385   34.0074 O   0  0  0  0  0  0  0  0  0  0  0  0
    3.3484   -3.6268   35.0317 C   0  0  0  0  0  0  0  0  0  0  0  0
    2.4436   -3.5489   36.1964 C   0  0  0  0  0  0  0  0  0  0  0  0
    2.8416   -2.7681   37.2810 C   0  0  0  0  0  0  0  0  0  0  0  0
    3.9884   -2.0722   37.2363 F   0  0  0  0  0  0  0  0  0  0  0  0
    2.0683   -2.6949   38.4343 C   0  0  0  0  0  0  0  0  0  0  0  0
    0.8829   -3.4116   38.4956 C   0  0  0  0  0  0  0  0  0  0  0  0
    0.1370   -3.3631   39.6063 F   0  0  0  0  0  0  0  0  0  0  0  0
    0.4520   -4.1773   37.4210 C   0  0  0  0  0  0  0  0  0  0  0  0
    1.2340   -4.2501   36.2646 C   0  0  0  0  0  0  0  0  0  0  0  0
    0.7963   -4.9997   35.1821 N   0  0  0  0  0  0  0  0  0  0  0  0
   -0.4388   -5.9002   35.0251 C   0  0  0  0  0  0  0  0  0  0  0  0
   -1.2468   -6.2189   35.8043 O   0  0  0  0  0  0  0  0  0  0  0  0
   -0.5826   -6.4478   33.6470 C   0  0  0  0  0  0  0  0  0  0  0  0
   -1.2391   -7.6748   33.5944 C   0  0  0  0  0  0  0  0  0  0  0  0
   -1.5536   -8.1700   32.3573 C   0  0  0  0  0  0  0  0  0  0  0  0
   -2.5065   -9.5442   32.2240 Cl  0  0  0  0  0  0  0  0  0  0  0  0
   -1.2353   -7.6172   31.1779 N   0  0  0  0  0  0  0  0  0  0  0  0
   -0.5448   -6.4624   31.2559 C   0  0  0  0  0  0  0  0  0  0  0  0
   -0.2418   -5.8116   32.4483 C   0  0  0  0  0  0  0  0  0  0  0  0
    0.3806   -4.2132   32.3218 Cl  0  0  0  0  0  0  0  0  0  0  0  0
  1  2  2  0
  2  3  1  0
  3  4  2  0
  4  5  1  0
  4  6  1  0
  6  7  2  0
  7  8  1  0
  7  9  1  0
  9 10  2  0
 10 11  1  0
 11 12  1  0
 12 13  2  0
 12 14  1  0
 14 15  2  0
 15 16  1  0
 16 17  1  0
 16 18  2  0
 18 19  1  0
 19 20  2  0
 20 21  1  0
 10  3  1  0
 20 14  1  0
M  END
>  <ref_mols>  (185) 
7gov-a

>  <gnina_score>  (185) 
5.183

>  <smina_score_min>  (185) 
-5.565

>  <ref_pdb>  (185) 
7gov-a

>  <inspiration_score>  (185) 
None

>  <inchikey>  (185) 
ZGIYDHVOHIKGGD-UHFFFAOYSA-N

>  <tags>  (185) 
BulkDock Fragalysis export,openbind_d68ev3c_c2_elabs_scored,openbind_d68ev3c_c2_elabs_scored_4.5plus,openbind_d68ev3c_c2_elabs,openbind_d68ev3c_c2_elabs_scored_5plus,syndirella_product,openbind_d68ev3c_c2_elabs_scored_top80percent,syndirella_placed

>  <smiles>  (185) 
O=Cc1c(F)cc(F)cc1NC(=O)c1cc(Cl)ncc1Cl

>  <subsites>  (185) 
None

>  <rmsd(smina/fragmenstein)>  (185) 
1.422

>  <alias>  (185) 
None

>  <energy_score>  (185) 
-25.538918

>  <HIPPO Pose ID>  (185) 
64796

>  <distance_score>  (185) 
0.948354

>  <HIPPO Compound ID>  (185) 
101476

>  <gnina_score_min>  (185) 
5.037

>  <name>  (185) 
P64796

>  <exports>  (185) 
['/opt/xchem-fragalysis-2/maxwin/BulkDock/OUTPUTS/openbind_d68ev3c_c2_elabs_1LOTQJ3.sdf', '/opt/xchem-fragalysis-2/maxwin/BulkDock/OUTPUTS/openbind_d68ev3c_c2_elabs_1LSYEHW.sdf', '/opt/xchem-fragalysis-2/maxwin/BulkDock/OUTPUTS/openbind_d68ev3c_c2_elabs_1LSYI5W.sdf']

$$$$
P64797
     RDKit          3D

 21 22  0  0  0  0  0  0  0  0999 V2000
    0.9859   -7.3686   35.1967 O   0  0  0  0  0  0  0  0  0  0  0  0
    0.1778   -6.6358   34.7900 C   0  0  0  0  0  0  0  0  0  0  0  0
   -0.1807   -5.2076   35.2255 N   0  0  0  0  0  0  0  0  0  0  0  0
    0.4182   -4.3730   36.1557 C   0  0  0  0  0  0  0  0  0  0  0  0
   -0.3377   -3.9903   37.2611 C   0  0  0  0  0  0  0  0  0  0  0  0
    0.2714   -3.2686   38.2794 C   0  0  0  0  0  0  0  0  0  0  0  0
   -0.4151   -3.0070   39.3981 F   0  0  0  0  0  0  0  0  0  0  0  0
    1.5822   -2.8363   38.1729 C   0  0  0  0  0  0  0  0  0  0  0  0
    2.3094   -3.1780   37.0413 C   0  0  0  0  0  0  0  0  0  0  0  0
    3.5685   -2.7238   36.9411 F   0  0  0  0  0  0  0  0  0  0  0  0
    1.7651   -3.9811   36.0293 C   0  0  0  0  0  0  0  0  0  0  0  0
    2.6544   -4.3971   34.8903 C   0  0  0  0  0  0  0  0  0  0  0  0
    2.0766   -4.0517   33.6320 O   0  0  0  0  0  0  0  0  0  0  0  0
   -0.5886   -7.0570   33.6069 C   0  0  0  0  0  0  0  0  0  0  0  0
   -0.1335   -6.6435   32.3547 C   0  0  0  0  0  0  0  0  0  0  0  0
   -0.7679   -7.1685   31.2506 C   0  0  0  0  0  0  0  0  0  0  0  0
   -0.3917   -6.6455   29.6667 Cl  0  0  0  0  0  0  0  0  0  0  0  0
   -1.7795   -8.0652   31.3049 N   0  0  0  0  0  0  0  0  0  0  0  0
   -2.1763   -8.4491   32.5401 C   0  0  0  0  0  0  0  0  0  0  0  0
   -1.6392   -7.9553   33.7143 C   0  0  0  0  0  0  0  0  0  0  0  0
   -2.3709   -8.3738   35.1971 Cl  0  0  0  0  0  0  0  0  0  0  0  0
  1  2  2  0
  2  3  1  0
  3  4  1  0
  4  5  2  0
  5  6  1  0
  6  7  1  0
  6  8  2  0
  8  9  1  0
  9 10  1  0
  9 11  2  0
 11 12  1  0
 12 13  1  0
  2 14  1  0
 14 15  2  0
 15 16  1  0
 16 17  1  0
 16 18  2  0
 18 19  1  0
 19 20  2  0
 20 21  1  0
 11  4  1  0
 20 14  1  0
M  END
>  <ref_mols>  (186) 
7gov-a

>  <gnina_score>  (186) 
5.066

>  <smina_score_min>  (186) 
-5.969

>  <ref_pdb>  (186) 
7gov-a

>  <inspiration_score>  (186) 
None

>  <inchikey>  (186) 
MRASRHPDXQNZKA-UHFFFAOYSA-N

>  <tags>  (186) 
BulkDock Fragalysis export,openbind_d68ev3c_c2_elabs_scored,openbind_d68ev3c_c2_elabs_scored_4.5plus,openbind_d68ev3c_c2_elabs,openbind_d68ev3c_c2_elabs_scored_5plus,syndirella_product,openbind_d68ev3c_c2_elabs_scored_top80percent,syndirella_placed

>  <smiles>  (186) 
O=C(Nc1cc(F)cc(F)c1CO)c1cc(Cl)ncc1Cl

>  <subsites>  (186) 
None

>  <rmsd(smina/fragmenstein)>  (186) 
1.041

>  <alias>  (186) 
None

>  <energy_score>  (186) 
-3.588261

>  <HIPPO Pose ID>  (186) 
64797

>  <distance_score>  (186) 
0.417943

>  <HIPPO Compound ID>  (186) 
101477

>  <gnina_score_min>  (186) 
5.053

>  <name>  (186) 
P64797

>  <exports>  (186) 
['/opt/xchem-fragalysis-2/maxwin/BulkDock/OUTPUTS/openbind_d68ev3c_c2_elabs_1LOTQJ3.sdf', '/opt/xchem-fragalysis-2/maxwin/BulkDock/OUTPUTS/openbind_d68ev3c_c2_elabs_1LSYEHW.sdf', '/opt/xchem-fragalysis-2/maxwin/BulkDock/OUTPUTS/openbind_d68ev3c_c2_elabs_1LSYI5W.sdf']

$$$$
P64798
     RDKit          3D

 21 22  0  0  0  0  0  0  0  0999 V2000
    2.9486   -0.3575   36.0345 C   0  0  0  0  0  0  0  0  0  0  0  0
    3.4493   -1.6518   36.6590 C   0  0  0  0  0  0  0  0  0  0  0  0
    2.3420   -2.6685   36.8250 C   0  0  0  0  0  0  0  0  0  0  0  0
    1.7441   -2.7727   38.0942 C   0  0  0  0  0  0  0  0  0  0  0  0
    0.7437   -3.7041   38.3306 C   0  0  0  0  0  0  0  0  0  0  0  0
    0.1870   -3.7793   39.5472 F   0  0  0  0  0  0  0  0  0  0  0  0
    0.3070   -4.5475   37.3253 C   0  0  0  0  0  0  0  0  0  0  0  0
    0.8654   -4.4427   36.0512 C   0  0  0  0  0  0  0  0  0  0  0  0
    0.3916   -5.2786   35.0439 N   0  0  0  0  0  0  0  0  0  0  0  0
   -0.2742   -6.6692   35.1253 C   0  0  0  0  0  0  0  0  0  0  0  0
   -0.4598   -7.3649   36.0416 O   0  0  0  0  0  0  0  0  0  0  0  0
   -0.7593   -7.1724   33.7905 C   0  0  0  0  0  0  0  0  0  0  0  0
   -0.1715   -6.7568   32.5874 C   0  0  0  0  0  0  0  0  0  0  0  0
   -0.7170   -7.2048   31.3981 C   0  0  0  0  0  0  0  0  0  0  0  0
   -0.2569   -6.5097   29.9041 Cl  0  0  0  0  0  0  0  0  0  0  0  0
   -1.7251   -8.0926   31.3038 N   0  0  0  0  0  0  0  0  0  0  0  0
   -2.2265   -8.5353   32.4757 C   0  0  0  0  0  0  0  0  0  0  0  0
   -1.8232   -8.0862   33.7246 C   0  0  0  0  0  0  0  0  0  0  0  0
   -2.8011   -8.6011   35.0456 Cl  0  0  0  0  0  0  0  0  0  0  0  0
    1.8877   -3.5055   35.7768 C   0  0  0  0  0  0  0  0  0  0  0  0
    2.5355   -3.5021   34.4140 C   0  0  0  0  0  0  0  0  0  0  0  0
  1  2  1  0
  2  3  1  0
  3  4  2  0
  4  5  1  0
  5  6  1  0
  5  7  2  0
  7  8  1  0
  8  9  1  0
  9 10  1  0
 10 11  2  0
 10 12  1  0
 12 13  2  0
 13 14  1  0
 14 15  1  0
 14 16  2  0
 16 17  1  0
 17 18  2  0
 18 19  1  0
  8 20  2  0
 20 21  1  0
 20  3  1  0
 18 12  1  0
M  END
>  <ref_mols>  (187) 
7gov-a

>  <gnina_score>  (187) 
5.295

>  <smina_score_min>  (187) 
-5.921

>  <ref_pdb>  (187) 
7gov-a

>  <inspiration_score>  (187) 
None

>  <inchikey>  (187) 
OXUOJAGNMFICTI-UHFFFAOYSA-N

>  <tags>  (187) 
BulkDock Fragalysis export,openbind_d68ev3c_c2_elabs_scored,openbind_d68ev3c_c2_elabs_scored_4.5plus,openbind_d68ev3c_c2_elabs,openbind_d68ev3c_c2_elabs_scored_5plus,syndirella_product,openbind_d68ev3c_c2_elabs_scored_top80percent,syndirella_placed

>  <smiles>  (187) 
CCc1cc(F)cc(NC(=O)c2cc(Cl)ncc2Cl)c1C

>  <subsites>  (187) 
None

>  <rmsd(smina/fragmenstein)>  (187) 
1.049

>  <alias>  (187) 
None

>  <energy_score>  (187) 
-17.435145

>  <HIPPO Pose ID>  (187) 
64798

>  <distance_score>  (187) 
0.558409

>  <HIPPO Compound ID>  (187) 
101478

>  <gnina_score_min>  (187) 
5.366

>  <name>  (187) 
P64798

>  <exports>  (187) 
['/opt/xchem-fragalysis-2/maxwin/BulkDock/OUTPUTS/openbind_d68ev3c_c2_elabs_1LOTQJ3.sdf', '/opt/xchem-fragalysis-2/maxwin/BulkDock/OUTPUTS/openbind_d68ev3c_c2_elabs_1LSYEHW.sdf', '/opt/xchem-fragalysis-2/maxwin/BulkDock/OUTPUTS/openbind_d68ev3c_c2_elabs_1LSYI5W.sdf']

$$$$
P64803
     RDKit          3D

 21 22  0  0  0  0  0  0  0  0999 V2000
   -2.4407   -8.7655   34.7764 C   0  0  0  0  0  0  0  0  0  0  0  0
   -1.7341   -8.1179   33.6253 C   0  0  0  0  0  0  0  0  0  0  0  0
   -2.1748   -8.5093   32.3671 C   0  0  0  0  0  0  0  0  0  0  0  0
   -1.7185   -8.0146   31.2030 N   0  0  0  0  0  0  0  0  0  0  0  0
   -0.7096   -7.1308   31.2982 C   0  0  0  0  0  0  0  0  0  0  0  0
   -0.2486   -6.4282   29.8072 Cl  0  0  0  0  0  0  0  0  0  0  0  0
   -0.1401   -6.7125   32.4828 C   0  0  0  0  0  0  0  0  0  0  0  0
   -0.6809   -7.1834   33.6839 C   0  0  0  0  0  0  0  0  0  0  0  0
   -0.1309   -6.7195   35.0103 C   0  0  0  0  0  0  0  0  0  0  0  0
   -0.2150   -7.4659   35.9010 O   0  0  0  0  0  0  0  0  0  0  0  0
    0.4264   -5.2813   34.9602 N   0  0  0  0  0  0  0  0  0  0  0  0
    0.8920   -4.4580   35.9780 C   0  0  0  0  0  0  0  0  0  0  0  0
    0.3247   -4.6035   37.2495 C   0  0  0  0  0  0  0  0  0  0  0  0
    0.7166   -3.7676   38.2848 C   0  0  0  0  0  0  0  0  0  0  0  0
    0.1447   -3.8913   39.4904 F   0  0  0  0  0  0  0  0  0  0  0  0
    1.6806   -2.7948   38.0842 C   0  0  0  0  0  0  0  0  0  0  0  0
    2.2635   -2.6596   36.8243 C   0  0  0  0  0  0  0  0  0  0  0  0
    1.8841   -3.4868   35.7444 C   0  0  0  0  0  0  0  0  0  0  0  0
    2.6588   -3.3209   34.4426 C   0  0  0  0  0  0  0  0  0  0  0  0
    1.8185   -2.6809   33.3351 C   0  0  0  0  0  0  0  0  0  0  0  0
    3.3551   -4.5994   33.9714 C   0  0  0  0  0  0  0  0  0  0  0  0
  1  2  1  0
  2  3  2  0
  3  4  1  0
  4  5  2  0
  5  6  1  0
  5  7  1  0
  7  8  2  0
  8  9  1  0
  9 10  2  0
  9 11  1  0
 11 12  1  0
 12 13  2  0
 13 14  1  0
 14 15  1  0
 14 16  2  0
 16 17  1  0
 17 18  2  0
 18 19  1  0
 19 20  1  0
 19 21  1  0
  8  2  1  0
 18 12  1  0
M  END
>  <ref_mols>  (188) 
7gov-a

>  <gnina_score>  (188) 
5.074

>  <smina_score_min>  (188) 
-5.768

>  <ref_pdb>  (188) 
7gov-a

>  <inspiration_score>  (188) 
None

>  <inchikey>  (188) 
ORZQQNSNDOMZAP-UHFFFAOYSA-N

>  <tags>  (188) 
BulkDock Fragalysis export,openbind_d68ev3c_c2_elabs_scored,openbind_d68ev3c_c2_elabs_scored_4.5plus,openbind_d68ev3c_c2_elabs,openbind_d68ev3c_c2_elabs_scored_5plus,syndirella_product,openbind_d68ev3c_c2_elabs_scored_top80percent,syndirella_placed

>  <smiles>  (188) 
Cc1cnc(Cl)cc1C(=O)Nc1cc(F)ccc1C(C)C

>  <subsites>  (188) 
None

>  <rmsd(smina/fragmenstein)>  (188) 
0.964

>  <alias>  (188) 
None

>  <energy_score>  (188) 
-32.793147

>  <HIPPO Pose ID>  (188) 
64803

>  <distance_score>  (188) 
0.515758

>  <HIPPO Compound ID>  (188) 
101492

>  <gnina_score_min>  (188) 
5.125

>  <name>  (188) 
P64803

>  <exports>  (188) 
['/opt/xchem-fragalysis-2/maxwin/BulkDock/OUTPUTS/openbind_d68ev3c_c2_elabs_1LOTQJ3.sdf', '/opt/xchem-fragalysis-2/maxwin/BulkDock/OUTPUTS/openbind_d68ev3c_c2_elabs_1LSYEHW.sdf', '/opt/xchem-fragalysis-2/maxwin/BulkDock/OUTPUTS/openbind_d68ev3c_c2_elabs_1LSYI5W.sdf']

$$$$
P64804
     RDKit          3D

 21 22  0  0  0  0  0  0  0  0999 V2000
   -2.4374   -8.7876   34.7499 C   0  0  0  0  0  0  0  0  0  0  0  0
   -1.7294   -8.1231   33.6101 C   0  0  0  0  0  0  0  0  0  0  0  0
   -2.1505   -8.4972   32.3420 C   0  0  0  0  0  0  0  0  0  0  0  0
   -1.6834   -7.9787   31.1916 N   0  0  0  0  0  0  0  0  0  0  0  0
   -0.6832   -7.0843   31.3145 C   0  0  0  0  0  0  0  0  0  0  0  0
   -0.2092   -6.3523   29.8417 Cl  0  0  0  0  0  0  0  0  0  0  0  0
   -0.1329   -6.6788   32.5122 C   0  0  0  0  0  0  0  0  0  0  0  0
   -0.6860   -7.1820   33.6932 C   0  0  0  0  0  0  0  0  0  0  0  0
   -0.1587   -6.7386   35.0286 C   0  0  0  0  0  0  0  0  0  0  0  0
   -0.1924   -7.5158   35.8946 O   0  0  0  0  0  0  0  0  0  0  0  0
    0.2564   -5.2557   35.0343 N   0  0  0  0  0  0  0  0  0  0  0  0
    0.7884   -4.4707   36.0510 C   0  0  0  0  0  0  0  0  0  0  0  0
    1.8012   -3.5452   35.7410 C   0  0  0  0  0  0  0  0  0  0  0  0
    2.4287   -3.5060   34.3715 C   0  0  0  0  0  0  0  0  0  0  0  0
    1.4200   -3.3128   33.3794 O   0  0  0  0  0  0  0  0  0  0  0  0
    2.3119   -2.7335   36.7684 C   0  0  0  0  0  0  0  0  0  0  0  0
    1.8036   -2.8244   38.0667 C   0  0  0  0  0  0  0  0  0  0  0  0
    0.7973   -3.7404   38.3499 C   0  0  0  0  0  0  0  0  0  0  0  0
    0.2927   -3.7966   39.5909 F   0  0  0  0  0  0  0  0  0  0  0  0
    0.2987   -4.5716   37.3570 C   0  0  0  0  0  0  0  0  0  0  0  0
   -0.7061   -5.4105   37.6536 F   0  0  0  0  0  0  0  0  0  0  0  0
  1  2  1  0
  2  3  2  0
  3  4  1  0
  4  5  2  0
  5  6  1  0
  5  7  1  0
  7  8  2  0
  8  9  1  0
  9 10  2  0
  9 11  1  0
 11 12  1  0
 12 13  2  0
 13 14  1  0
 14 15  1  0
 13 16  1  0
 16 17  2  0
 17 18  1  0
 18 19  1  0
 18 20  2  0
 20 21  1  0
  8  2  1  0
 20 12  1  0
M  END
>  <ref_mols>  (189) 
7gov-a

>  <gnina_score>  (189) 
4.991

>  <smina_score_min>  (189) 
-5.588

>  <ref_pdb>  (189) 
7gov-a

>  <inspiration_score>  (189) 
None

>  <inchikey>  (189) 
KWRMLGHWBCROEV-UHFFFAOYSA-N

>  <tags>  (189) 
BulkDock Fragalysis export,openbind_d68ev3c_c2_elabs_scored,openbind_d68ev3c_c2_elabs_scored_4.5plus,openbind_d68ev3c_c2_elabs,openbind_d68ev3c_c2_elabs_scored_5plus,syndirella_product,openbind_d68ev3c_c2_elabs_scored_top80percent,syndirella_placed

>  <smiles>  (189) 
Cc1cnc(Cl)cc1C(=O)Nc1c(CO)ccc(F)c1F

>  <subsites>  (189) 
None

>  <rmsd(smina/fragmenstein)>  (189) 
0.981

>  <alias>  (189) 
None

>  <energy_score>  (189) 
-22.912863

>  <HIPPO Pose ID>  (189) 
64804

>  <distance_score>  (189) 
0.506984

>  <HIPPO Compound ID>  (189) 
101495

>  <gnina_score_min>  (189) 
5.039

>  <name>  (189) 
P64804

>  <exports>  (189) 
['/opt/xchem-fragalysis-2/maxwin/BulkDock/OUTPUTS/openbind_d68ev3c_c2_elabs_1LOTQJ3.sdf', '/opt/xchem-fragalysis-2/maxwin/BulkDock/OUTPUTS/openbind_d68ev3c_c2_elabs_1LSYEHW.sdf', '/opt/xchem-fragalysis-2/maxwin/BulkDock/OUTPUTS/openbind_d68ev3c_c2_elabs_1LSYI5W.sdf']

$$$$
P64806
     RDKit          3D

 21 22  0  0  0  0  0  0  0  0999 V2000
   -2.4573   -8.7866   34.7653 C   0  0  0  0  0  0  0  0  0  0  0  0
   -1.7433   -8.1240   33.6277 C   0  0  0  0  0  0  0  0  0  0  0  0
   -2.1621   -8.5082   32.3602 C   0  0  0  0  0  0  0  0  0  0  0  0
   -1.6945   -7.9980   31.2068 N   0  0  0  0  0  0  0  0  0  0  0  0
   -0.6923   -7.1079   31.3246 C   0  0  0  0  0  0  0  0  0  0  0  0
   -0.2180   -6.3811   29.8495 Cl  0  0  0  0  0  0  0  0  0  0  0  0
   -0.1421   -6.6962   32.5210 C   0  0  0  0  0  0  0  0  0  0  0  0
   -0.7013   -7.1797   33.7080 C   0  0  0  0  0  0  0  0  0  0  0  0
   -0.1821   -6.7114   35.0428 C   0  0  0  0  0  0  0  0  0  0  0  0
   -0.2572   -7.4637   35.9291 O   0  0  0  0  0  0  0  0  0  0  0  0
    0.2966   -5.2448   35.0141 N   0  0  0  0  0  0  0  0  0  0  0  0
    0.8516   -4.4561   36.0162 C   0  0  0  0  0  0  0  0  0  0  0  0
    0.3228   -4.5801   37.2997 C   0  0  0  0  0  0  0  0  0  0  0  0
    0.7817   -3.7599   38.3190 C   0  0  0  0  0  0  0  0  0  0  0  0
    0.2172   -3.8768   39.5307 F   0  0  0  0  0  0  0  0  0  0  0  0
    1.7835   -2.8131   38.1029 C   0  0  0  0  0  0  0  0  0  0  0  0
    2.2396   -1.9617   39.2530 C   0  0  0  0  0  0  0  0  0  0  0  0
    2.3317   -2.7107   36.8078 C   0  0  0  0  0  0  0  0  0  0  0  0
    3.6959   -1.4041   36.4814 Br  0  0  0  0  0  0  0  0  0  0  0  0
    1.8831   -3.5396   35.7486 C   0  0  0  0  0  0  0  0  0  0  0  0
    2.5441   -3.4887   34.3938 C   0  0  0  0  0  0  0  0  0  0  0  0
  1  2  1  0
  2  3  2  0
  3  4  1  0
  4  5  2  0
  5  6  1  0
  5  7  1  0
  7  8  2  0
  8  9  1  0
  9 10  2  0
  9 11  1  0
 11 12  1  0
 12 13  2  0
 13 14  1  0
 14 15  1  0
 14 16  2  0
 16 17  1  0
 16 18  1  0
 18 19  1  0
 18 20  2  0
 20 21  1  0
  8  2  1  0
 20 12  1  0
M  END
>  <ref_mols>  (190) 
7gov-a

>  <gnina_score>  (190) 
5.088

>  <smina_score_min>  (190) 
-6.067

>  <ref_pdb>  (190) 
7gov-a

>  <inspiration_score>  (190) 
None

>  <inchikey>  (190) 
DKCQGPMMHTUGNI-UHFFFAOYSA-N

>  <tags>  (190) 
BulkDock Fragalysis export,openbind_d68ev3c_c2_elabs_scored,openbind_d68ev3c_c2_elabs_scored_4.5plus,openbind_d68ev3c_c2_elabs,openbind_d68ev3c_c2_elabs_scored_5plus,syndirella_product,openbind_d68ev3c_c2_elabs_scored_top80percent,syndirella_placed

>  <smiles>  (190) 
Cc1cnc(Cl)cc1C(=O)Nc1cc(F)c(C)c(Br)c1C

>  <subsites>  (190) 
None

>  <rmsd(smina/fragmenstein)>  (190) 
1.068

>  <alias>  (190) 
None

>  <energy_score>  (190) 
-16.04927

>  <HIPPO Pose ID>  (190) 
64806

>  <distance_score>  (190) 
0.510873

>  <HIPPO Compound ID>  (190) 
101498

>  <gnina_score_min>  (190) 
5.107

>  <name>  (190) 
P64806

>  <exports>  (190) 
['/opt/xchem-fragalysis-2/maxwin/BulkDock/OUTPUTS/openbind_d68ev3c_c2_elabs_1LOTQJ3.sdf', '/opt/xchem-fragalysis-2/maxwin/BulkDock/OUTPUTS/openbind_d68ev3c_c2_elabs_1LSYEHW.sdf', '/opt/xchem-fragalysis-2/maxwin/BulkDock/OUTPUTS/openbind_d68ev3c_c2_elabs_1LSYI5W.sdf']

$$$$
P64812
     RDKit          3D

 21 22  0  0  0  0  0  0  0  0999 V2000
    4.0109   -4.0239   34.5215 C   0  0  0  0  0  0  0  0  0  0  0  0
    2.8454   -3.0499   34.6216 C   0  0  0  0  0  0  0  0  0  0  0  0
    2.0837   -3.2167   35.9136 C   0  0  0  0  0  0  0  0  0  0  0  0
    2.5071   -2.4927   37.0430 C   0  0  0  0  0  0  0  0  0  0  0  0
    1.9154   -2.7057   38.2902 C   0  0  0  0  0  0  0  0  0  0  0  0
    2.5110   -1.7105   39.7842 Br  0  0  0  0  0  0  0  0  0  0  0  0
    0.9052   -3.6492   38.4259 C   0  0  0  0  0  0  0  0  0  0  0  0
    0.3016   -3.8503   39.6069 F   0  0  0  0  0  0  0  0  0  0  0  0
    0.4918   -4.3937   37.3309 C   0  0  0  0  0  0  0  0  0  0  0  0
    1.0691   -4.1688   36.0776 C   0  0  0  0  0  0  0  0  0  0  0  0
    0.5926   -4.9108   35.0089 N   0  0  0  0  0  0  0  0  0  0  0  0
    0.2136   -6.3961   34.9155 C   0  0  0  0  0  0  0  0  0  0  0  0
    0.1679   -7.2181   35.7413 O   0  0  0  0  0  0  0  0  0  0  0  0
   -0.2616   -6.7986   33.5536 C   0  0  0  0  0  0  0  0  0  0  0  0
   -1.3018   -7.7253   33.6119 C   0  0  0  0  0  0  0  0  0  0  0  0
   -1.8484   -8.1548   32.4343 C   0  0  0  0  0  0  0  0  0  0  0  0
   -3.1676   -9.2051   32.4632 Cl  0  0  0  0  0  0  0  0  0  0  0  0
   -1.4725   -7.7663   31.2074 N   0  0  0  0  0  0  0  0  0  0  0  0
   -0.4371   -6.9049   31.1720 C   0  0  0  0  0  0  0  0  0  0  0  0
    0.2119   -6.3853   32.2971 C   0  0  0  0  0  0  0  0  0  0  0  0
    1.3671   -5.4647   32.0563 C   0  0  0  0  0  0  0  0  0  0  0  0
  1  2  1  0
  2  3  1  0
  3  4  2  0
  4  5  1  0
  5  6  1  0
  5  7  2  0
  7  8  1  0
  7  9  1  0
  9 10  2  0
 10 11  1  0
 11 12  1  0
 12 13  2  0
 12 14  1  0
 14 15  2  0
 15 16  1  0
 16 17  1  0
 16 18  2  0
 18 19  1  0
 19 20  2  0
 20 21  1  0
 10  3  1  0
 20 14  1  0
M  END
>  <ref_mols>  (191) 
7gov-a

>  <gnina_score>  (191) 
5.135

>  <smina_score_min>  (191) 
-5.496

>  <ref_pdb>  (191) 
7gov-a

>  <inspiration_score>  (191) 
None

>  <inchikey>  (191) 
QAGWZQOFZHECAB-UHFFFAOYSA-N

>  <tags>  (191) 
BulkDock Fragalysis export,openbind_d68ev3c_c2_elabs_scored,openbind_d68ev3c_c2_elabs_scored_4.5plus,openbind_d68ev3c_c2_elabs,openbind_d68ev3c_c2_elabs_scored_5plus,syndirella_product,openbind_d68ev3c_c2_elabs_scored_top80percent,syndirella_placed

>  <smiles>  (191) 
CCc1cc(Br)c(F)cc1NC(=O)c1cc(Cl)ncc1C

>  <subsites>  (191) 
None

>  <rmsd(smina/fragmenstein)>  (191) 
1.278

>  <alias>  (191) 
None

>  <energy_score>  (191) 
-22.652863

>  <HIPPO Pose ID>  (191) 
64812

>  <distance_score>  (191) 
0.609842

>  <HIPPO Compound ID>  (191) 
101516

>  <gnina_score_min>  (191) 
5.0

>  <name>  (191) 
P64812

>  <exports>  (191) 
['/opt/xchem-fragalysis-2/maxwin/BulkDock/OUTPUTS/openbind_d68ev3c_c2_elabs_1LOTQJ3.sdf', '/opt/xchem-fragalysis-2/maxwin/BulkDock/OUTPUTS/openbind_d68ev3c_c2_elabs_1LSYEHW.sdf', '/opt/xchem-fragalysis-2/maxwin/BulkDock/OUTPUTS/openbind_d68ev3c_c2_elabs_1LSYI5W.sdf']

$$$$
P64813
     RDKit          3D

 21 22  0  0  0  0  0  0  0  0999 V2000
    3.9651   -0.9257   37.8044 C   0  0  0  0  0  0  0  0  0  0  0  0
    3.4274   -1.6767   36.5907 C   0  0  0  0  0  0  0  0  0  0  0  0
    2.3020   -2.6695   36.8203 C   0  0  0  0  0  0  0  0  0  0  0  0
    1.7094   -2.8099   38.0870 C   0  0  0  0  0  0  0  0  0  0  0  0
    0.7236   -3.7628   38.3097 C   0  0  0  0  0  0  0  0  0  0  0  0
    0.1737   -3.8669   39.5275 F   0  0  0  0  0  0  0  0  0  0  0  0
    0.2982   -4.6004   37.2952 C   0  0  0  0  0  0  0  0  0  0  0  0
    0.8417   -4.4590   36.0201 C   0  0  0  0  0  0  0  0  0  0  0  0
    0.3828   -5.2905   35.0030 N   0  0  0  0  0  0  0  0  0  0  0  0
   -0.1988   -6.7184   35.0617 C   0  0  0  0  0  0  0  0  0  0  0  0
   -0.3132   -7.4505   35.9607 O   0  0  0  0  0  0  0  0  0  0  0  0
   -0.7179   -7.1880   33.7251 C   0  0  0  0  0  0  0  0  0  0  0  0
   -0.1518   -6.7056   32.5397 C   0  0  0  0  0  0  0  0  0  0  0  0
   -0.6968   -7.1134   31.3398 C   0  0  0  0  0  0  0  0  0  0  0  0
   -0.2161   -6.3825   29.8688 Cl  0  0  0  0  0  0  0  0  0  0  0  0
   -1.6996   -8.0017   31.2160 N   0  0  0  0  0  0  0  0  0  0  0  0
   -2.1720   -8.5135   32.3669 C   0  0  0  0  0  0  0  0  0  0  0  0
   -1.7593   -8.1318   33.6379 C   0  0  0  0  0  0  0  0  0  0  0  0
   -2.4776   -8.8005   34.7690 C   0  0  0  0  0  0  0  0  0  0  0  0
    1.8359   -3.4902   35.7562 C   0  0  0  0  0  0  0  0  0  0  0  0
    2.5078   -3.4628   34.4022 C   0  0  0  0  0  0  0  0  0  0  0  0
  1  2  1  0
  2  3  1  0
  3  4  2  0
  4  5  1  0
  5  6  1  0
  5  7  2  0
  7  8  1  0
  8  9  1  0
  9 10  1  0
 10 11  2  0
 10 12  1  0
 12 13  2  0
 13 14  1  0
 14 15  1  0
 14 16  2  0
 16 17  1  0
 17 18  2  0
 18 19  1  0
  8 20  2  0
 20 21  1  0
 20  3  1  0
 18 12  1  0
M  END
>  <ref_mols>  (192) 
7gov-a

>  <gnina_score>  (192) 
5.035

>  <smina_score_min>  (192) 
-5.867

>  <ref_pdb>  (192) 
7gov-a

>  <inspiration_score>  (192) 
None

>  <inchikey>  (192) 
IUGCDPINZTYWEU-UHFFFAOYSA-N

>  <tags>  (192) 
BulkDock Fragalysis export,openbind_d68ev3c_c2_elabs_scored,openbind_d68ev3c_c2_elabs_scored_4.5plus,openbind_d68ev3c_c2_elabs,openbind_d68ev3c_c2_elabs_scored_5plus,syndirella_product,openbind_d68ev3c_c2_elabs_scored_top80percent,syndirella_placed

>  <smiles>  (192) 
CCc1cc(F)cc(NC(=O)c2cc(Cl)ncc2C)c1C

>  <subsites>  (192) 
None

>  <rmsd(smina/fragmenstein)>  (192) 
1.114

>  <alias>  (192) 
None

>  <energy_score>  (192) 
-2.969727

>  <HIPPO Pose ID>  (192) 
64813

>  <distance_score>  (192) 
0.533024

>  <HIPPO Compound ID>  (192) 
101518

>  <gnina_score_min>  (192) 
5.017

>  <name>  (192) 
P64813

>  <exports>  (192) 
['/opt/xchem-fragalysis-2/maxwin/BulkDock/OUTPUTS/openbind_d68ev3c_c2_elabs_1LOTQJ3.sdf', '/opt/xchem-fragalysis-2/maxwin/BulkDock/OUTPUTS/openbind_d68ev3c_c2_elabs_1LSYEHW.sdf', '/opt/xchem-fragalysis-2/maxwin/BulkDock/OUTPUTS/openbind_d68ev3c_c2_elabs_1LSYI5W.sdf']

$$$$
P64818
     RDKit          3D

 21 22  0  0  0  0  0  0  0  0999 V2000
    3.4204   -3.1682   33.5750 C   0  0  0  0  0  0  0  0  0  0  0  0
    2.8639   -3.2616   34.6351 C   0  0  0  0  0  0  0  0  0  0  0  0
    2.2034   -3.3661   35.9060 C   0  0  0  0  0  0  0  0  0  0  0  0
    2.6322   -2.5529   36.9606 C   0  0  0  0  0  0  0  0  0  0  0  0
    2.0327   -2.6632   38.2176 C   0  0  0  0  0  0  0  0  0  0  0  0
    2.5751   -1.6473   39.4992 Cl  0  0  0  0  0  0  0  0  0  0  0  0
    1.0000   -3.5708   38.4233 C   0  0  0  0  0  0  0  0  0  0  0  0
    0.3787   -3.6474   39.6108 F   0  0  0  0  0  0  0  0  0  0  0  0
    0.5840   -4.3919   37.3853 C   0  0  0  0  0  0  0  0  0  0  0  0
   -0.4539   -5.2125   37.6046 F   0  0  0  0  0  0  0  0  0  0  0  0
    1.1865   -4.3062   36.1234 C   0  0  0  0  0  0  0  0  0  0  0  0
    0.7887   -5.1279   35.0708 N   0  0  0  0  0  0  0  0  0  0  0  0
    0.0900   -6.4960   35.0815 C   0  0  0  0  0  0  0  0  0  0  0  0
   -0.1962   -7.1911   35.9717 O   0  0  0  0  0  0  0  0  0  0  0  0
   -0.3615   -6.9227   33.7262 C   0  0  0  0  0  0  0  0  0  0  0  0
    0.1807   -6.4972   32.5119 C   0  0  0  0  0  0  0  0  0  0  0  0
   -0.3820   -6.9747   31.3361 C   0  0  0  0  0  0  0  0  0  0  0  0
   -1.4372   -7.8104   31.2971 N   0  0  0  0  0  0  0  0  0  0  0  0
   -1.8957   -8.2133   32.4960 C   0  0  0  0  0  0  0  0  0  0  0  0
   -3.2482   -9.2161   32.4333 Cl  0  0  0  0  0  0  0  0  0  0  0  0
   -1.4117   -7.8279   33.7159 C   0  0  0  0  0  0  0  0  0  0  0  0
  1  2  3  0
  2  3  1  0
  3  4  2  0
  4  5  1  0
  5  6  1  0
  5  7  2  0
  7  8  1  0
  7  9  1  0
  9 10  1  0
  9 11  2  0
 11 12  1  0
 12 13  1  0
 13 14  2  0
 13 15  1  0
 15 16  2  0
 16 17  1  0
 17 18  2  0
 18 19  1  0
 19 20  1  0
 19 21  2  0
 11  3  1  0
 21 15  1  0
M  END
>  <ref_mols>  (193) 
7gov-a

>  <gnina_score>  (193) 
5.219

>  <smina_score_min>  (193) 
-5.268

>  <ref_pdb>  (193) 
7gov-a

>  <inspiration_score>  (193) 
None

>  <inchikey>  (193) 
GMDYXOVOSRTPTR-UHFFFAOYSA-N

>  <tags>  (193) 
BulkDock Fragalysis export,openbind_d68ev3c_c2_elabs_scored,openbind_d68ev3c_c2_elabs_scored_4.5plus,openbind_d68ev3c_c2_elabs,openbind_d68ev3c_c2_elabs_scored_5plus,syndirella_product,openbind_d68ev3c_c2_elabs_scored_top80percent,syndirella_placed

>  <smiles>  (193) 
C#Cc1cc(Cl)c(F)c(F)c1NC(=O)c1ccnc(Cl)c1

>  <subsites>  (193) 
None

>  <rmsd(smina/fragmenstein)>  (193) 
0.484

>  <alias>  (193) 
None

>  <energy_score>  (193) 
-4.025965

>  <HIPPO Pose ID>  (193) 
64818

>  <distance_score>  (193) 
0.63178

>  <HIPPO Compound ID>  (193) 
101524

>  <gnina_score_min>  (193) 
5.128

>  <name>  (193) 
P64818

>  <exports>  (193) 
['/opt/xchem-fragalysis-2/maxwin/BulkDock/OUTPUTS/openbind_d68ev3c_c2_elabs_1LOTQJ3.sdf', '/opt/xchem-fragalysis-2/maxwin/BulkDock/OUTPUTS/openbind_d68ev3c_c2_elabs_1LSYEHW.sdf', '/opt/xchem-fragalysis-2/maxwin/BulkDock/OUTPUTS/openbind_d68ev3c_c2_elabs_1LSYI5W.sdf']

$$$$
P64825
     RDKit          3D

 21 22  0  0  0  0  0  0  0  0999 V2000
   -2.3514   -8.7027   34.7664 C   0  0  0  0  0  0  0  0  0  0  0  0
   -1.6776   -8.0767   33.5850 C   0  0  0  0  0  0  0  0  0  0  0  0
   -2.1577   -8.4611   32.3425 C   0  0  0  0  0  0  0  0  0  0  0  0
   -1.7184   -7.9748   31.1679 N   0  0  0  0  0  0  0  0  0  0  0  0
   -0.6924   -7.1044   31.2336 C   0  0  0  0  0  0  0  0  0  0  0  0
   -0.2581   -6.4242   29.7250 Cl  0  0  0  0  0  0  0  0  0  0  0  0
   -0.0877   -6.6891   32.4008 C   0  0  0  0  0  0  0  0  0  0  0  0
   -0.6066   -7.1635   33.6083 C   0  0  0  0  0  0  0  0  0  0  0  0
    0.0010   -6.7386   34.9108 C   0  0  0  0  0  0  0  0  0  0  0  0
    0.0317   -7.5344   35.7596 O   0  0  0  0  0  0  0  0  0  0  0  0
    0.4456   -5.2644   34.9087 N   0  0  0  0  0  0  0  0  0  0  0  0
    0.9190   -4.4583   35.9462 C   0  0  0  0  0  0  0  0  0  0  0  0
    1.9256   -3.5105   35.7128 C   0  0  0  0  0  0  0  0  0  0  0  0
    2.5474   -3.4007   34.4254 C   0  0  0  0  0  0  0  0  0  0  0  0
    3.0023   -3.2979   33.3624 N   0  0  0  0  0  0  0  0  0  0  0  0
    2.3805   -2.7004   36.7656 C   0  0  0  0  0  0  0  0  0  0  0  0
    1.8232   -2.8215   38.0406 C   0  0  0  0  0  0  0  0  0  0  0  0
    0.8219   -3.7592   38.2639 C   0  0  0  0  0  0  0  0  0  0  0  0
    0.2660   -3.8461   39.4807 F   0  0  0  0  0  0  0  0  0  0  0  0
    0.3801   -4.5816   37.2335 C   0  0  0  0  0  0  0  0  0  0  0  0
   -0.6237   -5.4392   37.4758 F   0  0  0  0  0  0  0  0  0  0  0  0
  1  2  1  0
  2  3  2  0
  3  4  1  0
  4  5  2  0
  5  6  1  0
  5  7  1  0
  7  8  2  0
  8  9  1  0
  9 10  2  0
  9 11  1  0
 11 12  1  0
 12 13  2  0
 13 14  1  0
 14 15  3  0
 13 16  1  0
 16 17  2  0
 17 18  1  0
 18 19  1  0
 18 20  2  0
 20 21  1  0
  8  2  1  0
 20 12  1  0
M  END
>  <ref_mols>  (194) 
7gov-a

>  <gnina_score>  (194) 
5.121

>  <smina_score_min>  (194) 
-5.404

>  <ref_pdb>  (194) 
7gov-a

>  <inspiration_score>  (194) 
None

>  <inchikey>  (194) 
JXOQRBXMIFKZPO-UHFFFAOYSA-N

>  <tags>  (194) 
BulkDock Fragalysis export,openbind_d68ev3c_c2_elabs_scored,openbind_d68ev3c_c2_elabs_scored_4.5plus,openbind_d68ev3c_c2_elabs,openbind_d68ev3c_c2_elabs_scored_5plus,syndirella_product,openbind_d68ev3c_c2_elabs_scored_top80percent,syndirella_placed

>  <smiles>  (194) 
Cc1cnc(Cl)cc1C(=O)Nc1c(C#N)ccc(F)c1F

>  <subsites>  (194) 
None

>  <rmsd(smina/fragmenstein)>  (194) 
0.362

>  <alias>  (194) 
None

>  <energy_score>  (194) 
-10.75231

>  <HIPPO Pose ID>  (194) 
64825

>  <distance_score>  (194) 
0.461874

>  <HIPPO Compound ID>  (194) 
101536

>  <gnina_score_min>  (194) 
5.028

>  <name>  (194) 
P64825

>  <exports>  (194) 
['/opt/xchem-fragalysis-2/maxwin/BulkDock/OUTPUTS/openbind_d68ev3c_c2_elabs_1LOTQJ3.sdf', '/opt/xchem-fragalysis-2/maxwin/BulkDock/OUTPUTS/openbind_d68ev3c_c2_elabs_1LSYEHW.sdf', '/opt/xchem-fragalysis-2/maxwin/BulkDock/OUTPUTS/openbind_d68ev3c_c2_elabs_1LSYI5W.sdf']

$$$$
P64829
     RDKit          3D

 21 22  0  0  0  0  0  0  0  0999 V2000
    2.9117   -3.3388   33.3344 C   0  0  0  0  0  0  0  0  0  0  0  0
    2.4314   -3.4209   34.4321 C   0  0  0  0  0  0  0  0  0  0  0  0
    1.8556   -3.5188   35.7432 C   0  0  0  0  0  0  0  0  0  0  0  0
    2.3645   -2.7142   36.7674 C   0  0  0  0  0  0  0  0  0  0  0  0
    1.8499   -2.8312   38.0554 C   0  0  0  0  0  0  0  0  0  0  0  0
    2.3264   -2.0384   39.0262 F   0  0  0  0  0  0  0  0  0  0  0  0
    0.8434   -3.7476   38.3336 C   0  0  0  0  0  0  0  0  0  0  0  0
    0.3258   -3.8292   39.5675 F   0  0  0  0  0  0  0  0  0  0  0  0
    0.3472   -4.5729   37.3323 C   0  0  0  0  0  0  0  0  0  0  0  0
    0.8447   -4.4516   36.0321 C   0  0  0  0  0  0  0  0  0  0  0  0
    0.3031   -5.2492   35.0293 N   0  0  0  0  0  0  0  0  0  0  0  0
   -0.2252   -6.6979   35.0771 C   0  0  0  0  0  0  0  0  0  0  0  0
   -0.3603   -7.4225   35.9790 O   0  0  0  0  0  0  0  0  0  0  0  0
   -0.7158   -7.1836   33.7324 C   0  0  0  0  0  0  0  0  0  0  0  0
   -0.1461   -6.7013   32.5486 C   0  0  0  0  0  0  0  0  0  0  0  0
   -0.6860   -7.1097   31.3457 C   0  0  0  0  0  0  0  0  0  0  0  0
   -0.2055   -6.3703   29.8785 Cl  0  0  0  0  0  0  0  0  0  0  0  0
   -1.6843   -8.0019   31.2160 N   0  0  0  0  0  0  0  0  0  0  0  0
   -2.1578   -8.5170   32.3644 C   0  0  0  0  0  0  0  0  0  0  0  0
   -1.7528   -8.1334   33.6378 C   0  0  0  0  0  0  0  0  0  0  0  0
   -2.4784   -8.8075   34.7617 C   0  0  0  0  0  0  0  0  0  0  0  0
  1  2  3  0
  2  3  1  0
  3  4  2  0
  4  5  1  0
  5  6  1  0
  5  7  2  0
  7  8  1  0
  7  9  1  0
  9 10  2  0
 10 11  1  0
 11 12  1  0
 12 13  2  0
 12 14  1  0
 14 15  2  0
 15 16  1  0
 16 17  1  0
 16 18  2  0
 18 19  1  0
 19 20  2  0
 20 21  1  0
 10  3  1  0
 20 14  1  0
M  END
>  <ref_mols>  (195) 
7gov-a

>  <gnina_score>  (195) 
5.073

>  <smina_score_min>  (195) 
-5.789

>  <ref_pdb>  (195) 
7gov-a

>  <inspiration_score>  (195) 
None

>  <inchikey>  (195) 
KQEMBTBGDTUJPN-UHFFFAOYSA-N

>  <tags>  (195) 
BulkDock Fragalysis export,openbind_d68ev3c_c2_elabs_scored,openbind_d68ev3c_c2_elabs_scored_4.5plus,openbind_d68ev3c_c2_elabs,openbind_d68ev3c_c2_elabs_scored_5plus,syndirella_product,openbind_d68ev3c_c2_elabs_scored_top80percent,syndirella_placed

>  <smiles>  (195) 
C#Cc1cc(F)c(F)cc1NC(=O)c1cc(Cl)ncc1C

>  <subsites>  (195) 
None

>  <rmsd(smina/fragmenstein)>  (195) 
1.133

>  <alias>  (195) 
None

>  <energy_score>  (195) 
-10.400971

>  <HIPPO Pose ID>  (195) 
64829

>  <distance_score>  (195) 
0.546209

>  <HIPPO Compound ID>  (195) 
101551

>  <gnina_score_min>  (195) 
5.068

>  <name>  (195) 
P64829

>  <exports>  (195) 
['/opt/xchem-fragalysis-2/maxwin/BulkDock/OUTPUTS/openbind_d68ev3c_c2_elabs_1LOTQJ3.sdf', '/opt/xchem-fragalysis-2/maxwin/BulkDock/OUTPUTS/openbind_d68ev3c_c2_elabs_1LSYEHW.sdf', '/opt/xchem-fragalysis-2/maxwin/BulkDock/OUTPUTS/openbind_d68ev3c_c2_elabs_1LSYI5W.sdf']

$$$$
P64833
     RDKit          3D

 21 22  0  0  0  0  0  0  0  0999 V2000
    3.3653   -2.5638   34.1425 O   0  0  0  0  0  0  0  0  0  0  0  0
    2.6934   -3.5264   34.4937 C   0  0  0  0  0  0  0  0  0  0  0  0
    1.9766   -3.5495   35.7851 C   0  0  0  0  0  0  0  0  0  0  0  0
    2.4186   -2.6958   36.8054 C   0  0  0  0  0  0  0  0  0  0  0  0
    1.8408   -2.7771   38.0717 C   0  0  0  0  0  0  0  0  0  0  0  0
    2.4502   -1.6335   39.4486 Br  0  0  0  0  0  0  0  0  0  0  0  0
    0.8288   -3.7014   38.3154 C   0  0  0  0  0  0  0  0  0  0  0  0
    0.2459   -3.7806   39.5208 F   0  0  0  0  0  0  0  0  0  0  0  0
    0.3888   -4.5536   37.3064 C   0  0  0  0  0  0  0  0  0  0  0  0
    0.9518   -4.4748   36.0290 C   0  0  0  0  0  0  0  0  0  0  0  0
    0.4527   -5.3038   35.0248 N   0  0  0  0  0  0  0  0  0  0  0  0
   -0.2489   -6.6758   35.1141 C   0  0  0  0  0  0  0  0  0  0  0  0
   -0.4502   -7.3618   36.0335 O   0  0  0  0  0  0  0  0  0  0  0  0
   -0.7523   -7.1702   33.7825 C   0  0  0  0  0  0  0  0  0  0  0  0
   -0.1679   -6.7540   32.5780 C   0  0  0  0  0  0  0  0  0  0  0  0
   -0.7174   -7.2015   31.3901 C   0  0  0  0  0  0  0  0  0  0  0  0
   -0.2591   -6.5097   29.8947 Cl  0  0  0  0  0  0  0  0  0  0  0  0
   -1.7278   -8.0867   31.3003 N   0  0  0  0  0  0  0  0  0  0  0  0
   -2.2274   -8.5290   32.4730 C   0  0  0  0  0  0  0  0  0  0  0  0
   -1.8188   -8.0813   33.7204 C   0  0  0  0  0  0  0  0  0  0  0  0
   -2.7914   -8.5949   35.0452 Cl  0  0  0  0  0  0  0  0  0  0  0  0
  1  2  2  0
  2  3  1  0
  3  4  2  0
  4  5  1  0
  5  6  1  0
  5  7  2  0
  7  8  1  0
  7  9  1  0
  9 10  2  0
 10 11  1  0
 11 12  1  0
 12 13  2  0
 12 14  1  0
 14 15  2  0
 15 16  1  0
 16 17  1  0
 16 18  2  0
 18 19  1  0
 19 20  2  0
 20 21  1  0
 10  3  1  0
 20 14  1  0
M  END
>  <ref_mols>  (196) 
7gov-a

>  <gnina_score>  (196) 
5.285

>  <smina_score_min>  (196) 
-6.133

>  <ref_pdb>  (196) 
7gov-a

>  <inspiration_score>  (196) 
None

>  <inchikey>  (196) 
VHZOGTVAHIWJLY-UHFFFAOYSA-N

>  <tags>  (196) 
BulkDock Fragalysis export,openbind_d68ev3c_c2_elabs_scored,openbind_d68ev3c_c2_elabs_scored_4.5plus,openbind_d68ev3c_c2_elabs,openbind_d68ev3c_c2_elabs_scored_5plus,syndirella_product,openbind_d68ev3c_c2_elabs_scored_top80percent,syndirella_placed

>  <smiles>  (196) 
O=Cc1cc(Br)c(F)cc1NC(=O)c1cc(Cl)ncc1Cl

>  <subsites>  (196) 
None

>  <rmsd(smina/fragmenstein)>  (196) 
1.135

>  <alias>  (196) 
None

>  <energy_score>  (196) 
-7.091196

>  <HIPPO Pose ID>  (196) 
64833

>  <distance_score>  (196) 
0.550004

>  <HIPPO Compound ID>  (196) 
101557

>  <gnina_score_min>  (196) 
5.295

>  <name>  (196) 
P64833

>  <exports>  (196) 
['/opt/xchem-fragalysis-2/maxwin/BulkDock/OUTPUTS/openbind_d68ev3c_c2_elabs_1LOTQJ3.sdf', '/opt/xchem-fragalysis-2/maxwin/BulkDock/OUTPUTS/openbind_d68ev3c_c2_elabs_1LSYEHW.sdf', '/opt/xchem-fragalysis-2/maxwin/BulkDock/OUTPUTS/openbind_d68ev3c_c2_elabs_1LSYI5W.sdf']

$$$$
P64834
     RDKit          3D

 21 22  0  0  0  0  0  0  0  0999 V2000
   -1.7083   -6.3289   35.8395 O   0  0  0  0  0  0  0  0  0  0  0  0
   -0.7834   -6.2963   35.1306 C   0  0  0  0  0  0  0  0  0  0  0  0
    0.5573   -5.5386   35.2676 N   0  0  0  0  0  0  0  0  0  0  0  0
    0.9854   -4.6189   36.2280 C   0  0  0  0  0  0  0  0  0  0  0  0
    0.1988   -4.4048   37.3654 C   0  0  0  0  0  0  0  0  0  0  0  0
    0.6128   -3.5118   38.3466 C   0  0  0  0  0  0  0  0  0  0  0  0
   -0.1401   -3.3714   39.4473 F   0  0  0  0  0  0  0  0  0  0  0  0
    1.7892   -2.7916   38.1945 C   0  0  0  0  0  0  0  0  0  0  0  0
    2.3630   -1.5826   39.5297 Br  0  0  0  0  0  0  0  0  0  0  0  0
    2.5680   -2.9756   37.0541 C   0  0  0  0  0  0  0  0  0  0  0  0
    2.1850   -3.9032   36.0644 C   0  0  0  0  0  0  0  0  0  0  0  0
    3.1399   -4.1644   34.9329 C   0  0  0  0  0  0  0  0  0  0  0  0
    3.8474   -5.3697   35.1833 O   0  0  0  0  0  0  0  0  0  0  0  0
   -0.9300   -7.0182   33.8222 C   0  0  0  0  0  0  0  0  0  0  0  0
   -0.3839   -6.4722   32.6528 C   0  0  0  0  0  0  0  0  0  0  0  0
   -0.6986   -7.0610   31.4406 C   0  0  0  0  0  0  0  0  0  0  0  0
   -0.2065   -6.3303   29.9733 Cl  0  0  0  0  0  0  0  0  0  0  0  0
   -1.5019   -8.1345   31.2937 N   0  0  0  0  0  0  0  0  0  0  0  0
   -2.0044   -8.6487   32.4371 C   0  0  0  0  0  0  0  0  0  0  0  0
   -1.7840   -8.1235   33.7022 C   0  0  0  0  0  0  0  0  0  0  0  0
   -2.7105   -8.8142   34.9741 Cl  0  0  0  0  0  0  0  0  0  0  0  0
  1  2  2  0
  2  3  1  0
  3  4  1  0
  4  5  2  0
  5  6  1  0
  6  7  1  0
  6  8  2  0
  8  9  1  0
  8 10  1  0
 10 11  2  0
 11 12  1  0
 12 13  1  0
  2 14  1  0
 14 15  2  0
 15 16  1  0
 16 17  1  0
 16 18  2  0
 18 19  1  0
 19 20  2  0
 20 21  1  0
 11  4  1  0
 20 14  1  0
M  END
>  <ref_mols>  (197) 
7gov-a

>  <gnina_score>  (197) 
5.254

>  <smina_score_min>  (197) 
-6.172

>  <ref_pdb>  (197) 
7gov-a

>  <inspiration_score>  (197) 
None

>  <inchikey>  (197) 
KBJURDQQKUAINQ-UHFFFAOYSA-N

>  <tags>  (197) 
BulkDock Fragalysis export,openbind_d68ev3c_c2_elabs_scored,openbind_d68ev3c_c2_elabs_scored_4.5plus,openbind_d68ev3c_c2_elabs,openbind_d68ev3c_c2_elabs_scored_5plus,syndirella_product,openbind_d68ev3c_c2_elabs_scored_top80percent,syndirella_placed

>  <smiles>  (197) 
O=C(Nc1cc(F)c(Br)cc1CO)c1cc(Cl)ncc1Cl

>  <subsites>  (197) 
None

>  <rmsd(smina/fragmenstein)>  (197) 
1.062

>  <alias>  (197) 
None

>  <energy_score>  (197) 
-8.824433

>  <HIPPO Pose ID>  (197) 
64834

>  <distance_score>  (197) 
0.857638

>  <HIPPO Compound ID>  (197) 
101558

>  <gnina_score_min>  (197) 
5.313

>  <name>  (197) 
P64834

>  <exports>  (197) 
['/opt/xchem-fragalysis-2/maxwin/BulkDock/OUTPUTS/openbind_d68ev3c_c2_elabs_1LOTQJ3.sdf', '/opt/xchem-fragalysis-2/maxwin/BulkDock/OUTPUTS/openbind_d68ev3c_c2_elabs_1LSYEHW.sdf', '/opt/xchem-fragalysis-2/maxwin/BulkDock/OUTPUTS/openbind_d68ev3c_c2_elabs_1LSYI5W.sdf']

$$$$
P64835
     RDKit          3D

 21 22  0  0  0  0  0  0  0  0999 V2000
    3.0267   -4.2344   33.9831 O   0  0  0  0  0  0  0  0  0  0  0  0
    3.3220   -3.6320   35.0080 C   0  0  0  0  0  0  0  0  0  0  0  0
    2.4284   -3.5462   36.1880 C   0  0  0  0  0  0  0  0  0  0  0  0
    2.8555   -2.7717   37.2722 C   0  0  0  0  0  0  0  0  0  0  0  0
    2.0842   -2.7294   38.4340 C   0  0  0  0  0  0  0  0  0  0  0  0
    2.6394   -1.8064   39.7782 Cl  0  0  0  0  0  0  0  0  0  0  0  0
    0.8856   -3.4347   38.5044 C   0  0  0  0  0  0  0  0  0  0  0  0
    0.1367   -3.4082   39.6163 F   0  0  0  0  0  0  0  0  0  0  0  0
    0.4409   -4.1811   37.4217 C   0  0  0  0  0  0  0  0  0  0  0  0
    1.2147   -4.2450   36.2603 C   0  0  0  0  0  0  0  0  0  0  0  0
    0.7734   -4.9893   35.1771 N   0  0  0  0  0  0  0  0  0  0  0  0
   -0.4596   -5.8927   35.0221 C   0  0  0  0  0  0  0  0  0  0  0  0
   -1.2621   -6.2182   35.8041 O   0  0  0  0  0  0  0  0  0  0  0  0
   -0.6020   -6.4389   33.6436 C   0  0  0  0  0  0  0  0  0  0  0  0
   -1.2450   -7.6727   33.5898 C   0  0  0  0  0  0  0  0  0  0  0  0
   -1.5512   -8.1707   32.3518 C   0  0  0  0  0  0  0  0  0  0  0  0
   -2.4855   -9.5569   32.2148 Cl  0  0  0  0  0  0  0  0  0  0  0  0
   -1.2367   -7.6136   31.1732 N   0  0  0  0  0  0  0  0  0  0  0  0
   -0.5597   -6.4512   31.2528 C   0  0  0  0  0  0  0  0  0  0  0  0
   -0.2673   -5.7976   32.4461 C   0  0  0  0  0  0  0  0  0  0  0  0
    0.3336   -4.1906   32.3221 Cl  0  0  0  0  0  0  0  0  0  0  0  0
  1  2  2  0
  2  3  1  0
  3  4  2  0
  4  5  1  0
  5  6  1  0
  5  7  2  0
  7  8  1  0
  7  9  1  0
  9 10  2  0
 10 11  1  0
 11 12  1  0
 12 13  2  0
 12 14  1  0
 14 15  2  0
 15 16  1  0
 16 17  1  0
 16 18  2  0
 18 19  1  0
 19 20  2  0
 20 21  1  0
 10  3  1  0
 20 14  1  0
M  END
>  <ref_mols>  (198) 
7gov-a

>  <gnina_score>  (198) 
5.234

>  <smina_score_min>  (198) 
-5.934

>  <ref_pdb>  (198) 
7gov-a

>  <inspiration_score>  (198) 
None

>  <inchikey>  (198) 
GBUGVOARCSBWOC-UHFFFAOYSA-N

>  <tags>  (198) 
BulkDock Fragalysis export,openbind_d68ev3c_c2_elabs_scored,openbind_d68ev3c_c2_elabs_scored_4.5plus,openbind_d68ev3c_c2_elabs,openbind_d68ev3c_c2_elabs_scored_5plus,syndirella_product,openbind_d68ev3c_c2_elabs_scored_top80percent,syndirella_placed

>  <smiles>  (198) 
O=Cc1cc(Cl)c(F)cc1NC(=O)c1cc(Cl)ncc1Cl

>  <subsites>  (198) 
None

>  <rmsd(smina/fragmenstein)>  (198) 
1.354

>  <alias>  (198) 
None

>  <energy_score>  (198) 
-20.225545

>  <HIPPO Pose ID>  (198) 
64835

>  <distance_score>  (198) 
0.948117

>  <HIPPO Compound ID>  (198) 
101559

>  <gnina_score_min>  (198) 
5.065

>  <name>  (198) 
P64835

>  <exports>  (198) 
['/opt/xchem-fragalysis-2/maxwin/BulkDock/OUTPUTS/openbind_d68ev3c_c2_elabs_1LOTQJ3.sdf', '/opt/xchem-fragalysis-2/maxwin/BulkDock/OUTPUTS/openbind_d68ev3c_c2_elabs_1LSYEHW.sdf', '/opt/xchem-fragalysis-2/maxwin/BulkDock/OUTPUTS/openbind_d68ev3c_c2_elabs_1LSYI5W.sdf']

$$$$
P64838
     RDKit          3D

 21 22  0  0  0  0  0  0  0  0999 V2000
    2.8809   -2.2618   33.8885 C   0  0  0  0  0  0  0  0  0  0  0  0
    3.2849   -3.3850   34.8317 C   0  0  0  0  0  0  0  0  0  0  0  0
    2.4107   -3.4188   36.0623 C   0  0  0  0  0  0  0  0  0  0  0  0
    2.7760   -2.6145   37.1584 C   0  0  0  0  0  0  0  0  0  0  0  0
    2.0365   -2.6407   38.3415 C   0  0  0  0  0  0  0  0  0  0  0  0
    2.5818   -1.5726   39.8036 Br  0  0  0  0  0  0  0  0  0  0  0  0
    0.9137   -3.4506   38.4361 C   0  0  0  0  0  0  0  0  0  0  0  0
    0.1817   -3.4899   39.5596 F   0  0  0  0  0  0  0  0  0  0  0  0
    0.5245   -4.2362   37.3611 C   0  0  0  0  0  0  0  0  0  0  0  0
    1.2716   -4.2302   36.1772 C   0  0  0  0  0  0  0  0  0  0  0  0
    0.8662   -5.0396   35.1225 N   0  0  0  0  0  0  0  0  0  0  0  0
   -0.2156   -6.1276   35.0582 C   0  0  0  0  0  0  0  0  0  0  0  0
   -0.8894   -6.5750   35.8992 O   0  0  0  0  0  0  0  0  0  0  0  0
   -0.4476   -6.6808   33.6742 C   0  0  0  0  0  0  0  0  0  0  0  0
   -1.3769   -7.7257   33.6598 C   0  0  0  0  0  0  0  0  0  0  0  0
   -1.8059   -8.2097   32.4525 C   0  0  0  0  0  0  0  0  0  0  0  0
   -3.1037   -9.2777   32.4100 Cl  0  0  0  0  0  0  0  0  0  0  0  0
   -1.3660   -7.8199   31.2493 N   0  0  0  0  0  0  0  0  0  0  0  0
   -0.4120   -6.8672   31.2790 C   0  0  0  0  0  0  0  0  0  0  0  0
    0.0590   -6.2491   32.4407 C   0  0  0  0  0  0  0  0  0  0  0  0
    1.1935   -4.9799   32.1999 Cl  0  0  0  0  0  0  0  0  0  0  0  0
  1  2  1  0
  2  3  1  0
  3  4  2  0
  4  5  1  0
  5  6  1  0
  5  7  2  0
  7  8  1  0
  7  9  1  0
  9 10  2  0
 10 11  1  0
 11 12  1  0
 12 13  2  0
 12 14  1  0
 14 15  2  0
 15 16  1  0
 16 17  1  0
 16 18  2  0
 18 19  1  0
 19 20  2  0
 20 21  1  0
 10  3  1  0
 20 14  1  0
M  END
>  <ref_mols>  (199) 
7gov-a

>  <gnina_score>  (199) 
5.286

>  <smina_score_min>  (199) 
-5.225

>  <ref_pdb>  (199) 
7gov-a

>  <inspiration_score>  (199) 
None

>  <inchikey>  (199) 
NGEXZWMGEJMRSL-UHFFFAOYSA-N

>  <tags>  (199) 
BulkDock Fragalysis export,openbind_d68ev3c_c2_elabs_scored,openbind_d68ev3c_c2_elabs_scored_4.5plus,openbind_d68ev3c_c2_elabs,openbind_d68ev3c_c2_elabs_scored_5plus,syndirella_product,openbind_d68ev3c_c2_elabs_scored_top80percent,syndirella_placed

>  <smiles>  (199) 
CCc1cc(Br)c(F)cc1NC(=O)c1cc(Cl)ncc1Cl

>  <subsites>  (199) 
None

>  <rmsd(smina/fragmenstein)>  (199) 
1.296

>  <alias>  (199) 
None

>  <energy_score>  (199) 
-19.62581

>  <HIPPO Pose ID>  (199) 
64838

>  <distance_score>  (199) 
0.795277

>  <HIPPO Compound ID>  (199) 
101563

>  <gnina_score_min>  (199) 
5.157

>  <name>  (199) 
P64838

>  <exports>  (199) 
['/opt/xchem-fragalysis-2/maxwin/BulkDock/OUTPUTS/openbind_d68ev3c_c2_elabs_1LOTQJ3.sdf', '/opt/xchem-fragalysis-2/maxwin/BulkDock/OUTPUTS/openbind_d68ev3c_c2_elabs_1LSYEHW.sdf', '/opt/xchem-fragalysis-2/maxwin/BulkDock/OUTPUTS/openbind_d68ev3c_c2_elabs_1LSYI5W.sdf']

$$$$
P64842
     RDKit          3D

 21 23  0  0  0  0  0  0  0  0999 V2000
   -1.2615   -6.2500   35.9717 O   0  0  0  0  0  0  0  0  0  0  0  0
   -0.4375   -5.9517   35.2011 C   0  0  0  0  0  0  0  0  0  0  0  0
    0.7203   -4.9428   35.3176 N   0  0  0  0  0  0  0  0  0  0  0  0
    1.1507   -4.1853   36.3973 C   0  0  0  0  0  0  0  0  0  0  0  0
    0.4274   -4.2056   37.5907 C   0  0  0  0  0  0  0  0  0  0  0  0
    0.8555   -3.4326   38.6540 C   0  0  0  0  0  0  0  0  0  0  0  0
    0.1661   -3.4563   39.8014 F   0  0  0  0  0  0  0  0  0  0  0  0
    1.9848   -2.6366   38.5466 C   0  0  0  0  0  0  0  0  0  0  0  0
    2.7003   -2.6146   37.3477 C   0  0  0  0  0  0  0  0  0  0  0  0
    2.3000   -3.3791   36.2370 C   0  0  0  0  0  0  0  0  0  0  0  0
    3.1252   -3.3719   34.9610 C   0  0  0  0  0  0  0  0  0  0  0  0
    2.5514   -2.7968   33.6841 C   0  0  0  0  0  0  0  0  0  0  0  0
    3.6528   -2.0726   34.3925 C   0  0  0  0  0  0  0  0  0  0  0  0
   -0.5398   -6.5457   33.8379 C   0  0  0  0  0  0  0  0  0  0  0  0
   -1.2784   -7.7140   33.7323 C   0  0  0  0  0  0  0  0  0  0  0  0
   -1.5781   -8.1449   32.4652 C   0  0  0  0  0  0  0  0  0  0  0  0
   -2.6157   -9.4519   32.2568 Cl  0  0  0  0  0  0  0  0  0  0  0  0
   -1.1948   -7.5716   31.3145 N   0  0  0  0  0  0  0  0  0  0  0  0
   -0.4245   -6.4846   31.4612 C   0  0  0  0  0  0  0  0  0  0  0  0
    0.0376   -5.7136   30.0040 Cl  0  0  0  0  0  0  0  0  0  0  0  0
   -0.0950   -5.9140   32.6756 C   0  0  0  0  0  0  0  0  0  0  0  0
  1  2  2  0
  2  3  1  0
  3  4  1  0
  4  5  2  0
  5  6  1  0
  6  7  1  0
  6  8  2  0
  8  9  1  0
  9 10  2  0
 10 11  1  0
 11 12  1  0
 12 13  1  0
  2 14  1  0
 14 15  2  0
 15 16  1  0
 16 17  1  0
 16 18  2  0
 18 19  1  0
 19 20  1  0
 19 21  2  0
 10  4  1  0
 13 11  1  0
 21 14  1  0
M  END
>  <ref_mols>  (200) 
7gov-a

>  <gnina_score>  (200) 
5.129

>  <smina_score_min>  (200) 
-5.444

>  <ref_pdb>  (200) 
7gov-a

>  <inspiration_score>  (200) 
None

>  <inchikey>  (200) 
DBFCJPUODSZYHD-UHFFFAOYSA-N

>  <tags>  (200) 
BulkDock Fragalysis export,openbind_d68ev3c_c2_elabs_scored,openbind_d68ev3c_c2_elabs_scored_4.5plus,openbind_d68ev3c_c2_elabs,openbind_d68ev3c_c2_elabs_scored_5plus,syndirella_product,openbind_d68ev3c_c2_elabs_scored_top80percent,syndirella_placed

>  <smiles>  (200) 
O=C(Nc1cc(F)ccc1C1CC1)c1cc(Cl)nc(Cl)c1

>  <subsites>  (200) 
None

>  <rmsd(smina/fragmenstein)>  (200) 
1.181

>  <alias>  (200) 
None

>  <energy_score>  (200) 
-20.107236

>  <HIPPO Pose ID>  (200) 
64842

>  <distance_score>  (200) 
0.97521

>  <HIPPO Compound ID>  (200) 
101574

>  <gnina_score_min>  (200) 
5.153

>  <name>  (200) 
P64842

>  <exports>  (200) 
['/opt/xchem-fragalysis-2/maxwin/BulkDock/OUTPUTS/openbind_d68ev3c_c2_elabs_1LOTQJ3.sdf', '/opt/xchem-fragalysis-2/maxwin/BulkDock/OUTPUTS/openbind_d68ev3c_c2_elabs_1LSYEHW.sdf', '/opt/xchem-fragalysis-2/maxwin/BulkDock/OUTPUTS/openbind_d68ev3c_c2_elabs_1LSYI5W.sdf']

$$$$
P64843
     RDKit          3D

 21 22  0  0  0  0  0  0  0  0999 V2000
    4.6266   -3.1371   35.0217 C   0  0  0  0  0  0  0  0  0  0  0  0
    3.1835   -3.5684   34.9790 C   0  0  0  0  0  0  0  0  0  0  0  0
    2.6728   -3.9650   33.9300 O   0  0  0  0  0  0  0  0  0  0  0  0
    2.3690   -3.4858   36.2352 C   0  0  0  0  0  0  0  0  0  0  0  0
    2.7501   -2.6338   37.2804 C   0  0  0  0  0  0  0  0  0  0  0  0
    1.9964   -2.5883   38.4562 C   0  0  0  0  0  0  0  0  0  0  0  0
    0.8616   -3.3804   38.5816 C   0  0  0  0  0  0  0  0  0  0  0  0
    0.1465   -3.3385   39.7125 F   0  0  0  0  0  0  0  0  0  0  0  0
    0.4533   -4.2120   37.5527 C   0  0  0  0  0  0  0  0  0  0  0  0
    1.2094   -4.2710   36.3819 C   0  0  0  0  0  0  0  0  0  0  0  0
    0.8126   -5.0938   35.3402 N   0  0  0  0  0  0  0  0  0  0  0  0
   -0.3574   -6.0842   35.2402 C   0  0  0  0  0  0  0  0  0  0  0  0
   -1.1304   -6.4249   36.0439 O   0  0  0  0  0  0  0  0  0  0  0  0
   -0.5250   -6.6116   33.8570 C   0  0  0  0  0  0  0  0  0  0  0  0
   -0.0778   -5.9622   32.7048 C   0  0  0  0  0  0  0  0  0  0  0  0
   -0.4341   -6.4968   31.4818 C   0  0  0  0  0  0  0  0  0  0  0  0
    0.0344   -5.7129   30.0332 Cl  0  0  0  0  0  0  0  0  0  0  0  0
   -1.2316   -7.5641   31.3200 N   0  0  0  0  0  0  0  0  0  0  0  0
   -1.6157   -8.1522   32.4628 C   0  0  0  0  0  0  0  0  0  0  0  0
   -2.6783   -9.4368   32.2476 Cl  0  0  0  0  0  0  0  0  0  0  0  0
   -1.2942   -7.7567   33.7345 C   0  0  0  0  0  0  0  0  0  0  0  0
  1  2  1  0
  2  3  2  0
  2  4  1  0
  4  5  2  0
  5  6  1  0
  6  7  2  0
  7  8  1  0
  7  9  1  0
  9 10  2  0
 10 11  1  0
 11 12  1  0
 12 13  2  0
 12 14  1  0
 14 15  2  0
 15 16  1  0
 16 17  1  0
 16 18  2  0
 18 19  1  0
 19 20  1  0
 19 21  2  0
 10  4  1  0
 21 14  1  0
M  END
>  <ref_mols>  (201) 
7gov-a

>  <gnina_score>  (201) 
4.984

>  <smina_score_min>  (201) 
-5.309

>  <ref_pdb>  (201) 
7gov-a

>  <inspiration_score>  (201) 
None

>  <inchikey>  (201) 
BNJPEWSKDNRXDM-UHFFFAOYSA-N

>  <tags>  (201) 
BulkDock Fragalysis export,openbind_d68ev3c_c2_elabs_scored,openbind_d68ev3c_c2_elabs_scored_4.5plus,openbind_d68ev3c_c2_elabs,openbind_d68ev3c_c2_elabs_scored_5plus,syndirella_product,openbind_d68ev3c_c2_elabs_scored_top80percent,syndirella_placed

>  <smiles>  (201) 
CC(=O)c1ccc(F)cc1NC(=O)c1cc(Cl)nc(Cl)c1

>  <subsites>  (201) 
None

>  <rmsd(smina/fragmenstein)>  (201) 
0.831

>  <alias>  (201) 
None

>  <energy_score>  (201) 
-25.485355

>  <HIPPO Pose ID>  (201) 
64843

>  <distance_score>  (201) 
0.926456

>  <HIPPO Compound ID>  (201) 
101575

>  <gnina_score_min>  (201) 
5.031

>  <name>  (201) 
P64843

>  <exports>  (201) 
['/opt/xchem-fragalysis-2/maxwin/BulkDock/OUTPUTS/openbind_d68ev3c_c2_elabs_1LOTQJ3.sdf', '/opt/xchem-fragalysis-2/maxwin/BulkDock/OUTPUTS/openbind_d68ev3c_c2_elabs_1LSYEHW.sdf', '/opt/xchem-fragalysis-2/maxwin/BulkDock/OUTPUTS/openbind_d68ev3c_c2_elabs_1LSYI5W.sdf']

$$$$
P64844
     RDKit          3D

 21 22  0  0  0  0  0  0  0  0999 V2000
    2.7737   -4.0202   33.9680 O   0  0  0  0  0  0  0  0  0  0  0  0
    3.1759   -3.5058   35.0084 C   0  0  0  0  0  0  0  0  0  0  0  0
    2.3667   -3.4925   36.2454 C   0  0  0  0  0  0  0  0  0  0  0  0
    2.8063   -2.7249   37.3201 C   0  0  0  0  0  0  0  0  0  0  0  0
    3.9296   -1.9975   37.2246 F   0  0  0  0  0  0  0  0  0  0  0  0
    2.0876   -2.6873   38.5105 C   0  0  0  0  0  0  0  0  0  0  0  0
    0.9183   -3.4282   38.6178 C   0  0  0  0  0  0  0  0  0  0  0  0
    0.2187   -3.4003   39.7586 F   0  0  0  0  0  0  0  0  0  0  0  0
    0.4540   -4.1953   37.5594 C   0  0  0  0  0  0  0  0  0  0  0  0
    1.1841   -4.2328   36.3715 C   0  0  0  0  0  0  0  0  0  0  0  0
    0.7300   -4.9779   35.2962 N   0  0  0  0  0  0  0  0  0  0  0  0
   -0.4021   -6.0126   35.2053 C   0  0  0  0  0  0  0  0  0  0  0  0
   -1.1850   -6.3487   36.0015 O   0  0  0  0  0  0  0  0  0  0  0  0
   -0.5366   -6.5756   33.8316 C   0  0  0  0  0  0  0  0  0  0  0  0
   -0.0846   -5.9422   32.6725 C   0  0  0  0  0  0  0  0  0  0  0  0
   -0.4302   -6.4974   31.4555 C   0  0  0  0  0  0  0  0  0  0  0  0
    0.0315   -5.7247   29.9990 Cl  0  0  0  0  0  0  0  0  0  0  0  0
   -1.2190   -7.5725   31.3050 N   0  0  0  0  0  0  0  0  0  0  0  0
   -1.6019   -8.1494   32.4534 C   0  0  0  0  0  0  0  0  0  0  0  0
   -2.6522   -9.4460   32.2486 Cl  0  0  0  0  0  0  0  0  0  0  0  0
   -1.2915   -7.7320   33.7212 C   0  0  0  0  0  0  0  0  0  0  0  0
  1  2  2  0
  2  3  1  0
  3  4  2  0
  4  5  1  0
  4  6  1  0
  6  7  2  0
  7  8  1  0
  7  9  1  0
  9 10  2  0
 10 11  1  0
 11 12  1  0
 12 13  2  0
 12 14  1  0
 14 15  2  0
 15 16  1  0
 16 17  1  0
 16 18  2  0
 18 19  1  0
 19 20  1  0
 19 21  2  0
 10  3  1  0
 21 14  1  0
M  END
>  <ref_mols>  (202) 
7gov-a

>  <gnina_score>  (202) 
5.04

>  <smina_score_min>  (202) 
-5.191

>  <ref_pdb>  (202) 
7gov-a

>  <inspiration_score>  (202) 
None

>  <inchikey>  (202) 
YIRHOWFTJOZAOI-UHFFFAOYSA-N

>  <tags>  (202) 
BulkDock Fragalysis export,openbind_d68ev3c_c2_elabs_scored,openbind_d68ev3c_c2_elabs_scored_4.5plus,openbind_d68ev3c_c2_elabs,openbind_d68ev3c_c2_elabs_scored_5plus,syndirella_product,openbind_d68ev3c_c2_elabs_scored_top80percent,syndirella_placed

>  <smiles>  (202) 
O=Cc1c(F)cc(F)cc1NC(=O)c1cc(Cl)nc(Cl)c1

>  <subsites>  (202) 
None

>  <rmsd(smina/fragmenstein)>  (202) 
0.815

>  <alias>  (202) 
None

>  <energy_score>  (202) 
-25.679863

>  <HIPPO Pose ID>  (202) 
64844

>  <distance_score>  (202) 
0.940674

>  <HIPPO Compound ID>  (202) 
101578

>  <gnina_score_min>  (202) 
5.038

>  <name>  (202) 
P64844

>  <exports>  (202) 
['/opt/xchem-fragalysis-2/maxwin/BulkDock/OUTPUTS/openbind_d68ev3c_c2_elabs_1LOTQJ3.sdf', '/opt/xchem-fragalysis-2/maxwin/BulkDock/OUTPUTS/openbind_d68ev3c_c2_elabs_1LSYEHW.sdf', '/opt/xchem-fragalysis-2/maxwin/BulkDock/OUTPUTS/openbind_d68ev3c_c2_elabs_1LSYI5W.sdf']

$$$$
P64846
     RDKit          3D

 21 22  0  0  0  0  0  0  0  0999 V2000
    3.6598   -0.3809   36.4889 C   0  0  0  0  0  0  0  0  0  0  0  0
    3.9479   -1.6901   37.2090 C   0  0  0  0  0  0  0  0  0  0  0  0
    2.7335   -2.5897   37.2605 C   0  0  0  0  0  0  0  0  0  0  0  0
    1.9556   -2.5618   38.4326 C   0  0  0  0  0  0  0  0  0  0  0  0
    0.8325   -3.3660   38.5576 C   0  0  0  0  0  0  0  0  0  0  0  0
    0.1135   -3.3318   39.6869 F   0  0  0  0  0  0  0  0  0  0  0  0
    0.4440   -4.2050   37.5334 C   0  0  0  0  0  0  0  0  0  0  0  0
    1.2056   -4.2565   36.3672 C   0  0  0  0  0  0  0  0  0  0  0  0
    0.8174   -5.1047   35.3379 N   0  0  0  0  0  0  0  0  0  0  0  0
   -0.3691   -6.0795   35.2394 C   0  0  0  0  0  0  0  0  0  0  0  0
   -1.1660   -6.3836   36.0348 O   0  0  0  0  0  0  0  0  0  0  0  0
   -0.5298   -6.6196   33.8626 C   0  0  0  0  0  0  0  0  0  0  0  0
   -0.0887   -5.9636   32.7121 C   0  0  0  0  0  0  0  0  0  0  0  0
   -0.4388   -6.4999   31.4884 C   0  0  0  0  0  0  0  0  0  0  0  0
    0.0336   -5.7123   30.0434 Cl  0  0  0  0  0  0  0  0  0  0  0  0
   -1.2275   -7.5718   31.3257 N   0  0  0  0  0  0  0  0  0  0  0  0
   -1.6128   -8.1618   32.4679 C   0  0  0  0  0  0  0  0  0  0  0  0
   -2.6750   -9.4449   32.2471 Cl  0  0  0  0  0  0  0  0  0  0  0  0
   -1.2937   -7.7674   33.7409 C   0  0  0  0  0  0  0  0  0  0  0  0
    2.3519   -3.4452   36.2009 C   0  0  0  0  0  0  0  0  0  0  0  0
    3.1523   -3.5453   34.9240 C   0  0  0  0  0  0  0  0  0  0  0  0
  1  2  1  0
  2  3  1  0
  3  4  2  0
  4  5  1  0
  5  6  1  0
  5  7  2  0
  7  8  1  0
  8  9  1  0
  9 10  1  0
 10 11  2  0
 10 12  1  0
 12 13  2  0
 13 14  1  0
 14 15  1  0
 14 16  2  0
 16 17  1  0
 17 18  1  0
 17 19  2  0
  8 20  2  0
 20 21  1  0
 20  3  1  0
 19 12  1  0
M  END
>  <ref_mols>  (203) 
7gov-a

>  <gnina_score>  (203) 
5.064

>  <smina_score_min>  (203) 
-5.261

>  <ref_pdb>  (203) 
7gov-a

>  <inspiration_score>  (203) 
None

>  <inchikey>  (203) 
HOCKGSZHUDLMHD-UHFFFAOYSA-N

>  <tags>  (203) 
BulkDock Fragalysis export,openbind_d68ev3c_c2_elabs_scored,openbind_d68ev3c_c2_elabs_scored_4.5plus,openbind_d68ev3c_c2_elabs,openbind_d68ev3c_c2_elabs_scored_5plus,syndirella_product,openbind_d68ev3c_c2_elabs_scored_top80percent,syndirella_placed

>  <smiles>  (203) 
CCc1cc(F)cc(NC(=O)c2cc(Cl)nc(Cl)c2)c1C

>  <subsites>  (203) 
None

>  <rmsd(smina/fragmenstein)>  (203) 
1.253

>  <alias>  (203) 
None

>  <energy_score>  (203) 
-10.075414

>  <HIPPO Pose ID>  (203) 
64846

>  <distance_score>  (203) 
0.930207

>  <HIPPO Compound ID>  (203) 
101580

>  <gnina_score_min>  (203) 
5.118

>  <name>  (203) 
P64846

>  <exports>  (203) 
['/opt/xchem-fragalysis-2/maxwin/BulkDock/OUTPUTS/openbind_d68ev3c_c2_elabs_1LOTQJ3.sdf', '/opt/xchem-fragalysis-2/maxwin/BulkDock/OUTPUTS/openbind_d68ev3c_c2_elabs_1LSYEHW.sdf', '/opt/xchem-fragalysis-2/maxwin/BulkDock/OUTPUTS/openbind_d68ev3c_c2_elabs_1LSYI5W.sdf']

$$$$
P64852
     RDKit          3D

 21 22  0  0  0  0  0  0  0  0999 V2000
    2.7814   -4.0699   33.9563 O   0  0  0  0  0  0  0  0  0  0  0  0
    3.1810   -3.5394   34.9883 C   0  0  0  0  0  0  0  0  0  0  0  0
    2.3737   -3.5042   36.2322 C   0  0  0  0  0  0  0  0  0  0  0  0
    2.8005   -2.6832   37.2770 C   0  0  0  0  0  0  0  0  0  0  0  0
    2.0630   -2.6530   38.4568 C   0  0  0  0  0  0  0  0  0  0  0  0
    2.4790   -1.8720   39.4638 F   0  0  0  0  0  0  0  0  0  0  0  0
    0.9068   -3.4132   38.5955 C   0  0  0  0  0  0  0  0  0  0  0  0
    0.2016   -3.3731   39.7335 F   0  0  0  0  0  0  0  0  0  0  0  0
    0.4685   -4.2228   37.5591 C   0  0  0  0  0  0  0  0  0  0  0  0
    1.2120   -4.2807   36.3799 C   0  0  0  0  0  0  0  0  0  0  0  0
    0.8117   -5.1000   35.3389 N   0  0  0  0  0  0  0  0  0  0  0  0
   -0.3718   -6.0732   35.2328 C   0  0  0  0  0  0  0  0  0  0  0  0
   -1.1560   -6.3996   36.0314 O   0  0  0  0  0  0  0  0  0  0  0  0
   -0.5323   -6.6065   33.8521 C   0  0  0  0  0  0  0  0  0  0  0  0
   -1.2993   -7.7530   33.7308 C   0  0  0  0  0  0  0  0  0  0  0  0
   -1.6156   -8.1522   32.4591 C   0  0  0  0  0  0  0  0  0  0  0  0
   -2.6734   -9.4406   32.2440 Cl  0  0  0  0  0  0  0  0  0  0  0  0
   -1.2297   -7.5652   31.3164 N   0  0  0  0  0  0  0  0  0  0  0  0
   -0.4332   -6.4971   31.4777 C   0  0  0  0  0  0  0  0  0  0  0  0
    0.0359   -5.7137   30.0292 Cl  0  0  0  0  0  0  0  0  0  0  0  0
   -0.0803   -5.9598   32.7005 C   0  0  0  0  0  0  0  0  0  0  0  0
  1  2  2  0
  2  3  1  0
  3  4  2  0
  4  5  1  0
  5  6  1  0
  5  7  2  0
  7  8  1  0
  7  9  1  0
  9 10  2  0
 10 11  1  0
 11 12  1  0
 12 13  2  0
 12 14  1  0
 14 15  2  0
 15 16  1  0
 16 17  1  0
 16 18  2  0
 18 19  1  0
 19 20  1  0
 19 21  2  0
 10  3  1  0
 21 14  1  0
M  END
>  <ref_mols>  (204) 
7gov-a

>  <gnina_score>  (204) 
5.023

>  <smina_score_min>  (204) 
-5.328

>  <ref_pdb>  (204) 
7gov-a

>  <inspiration_score>  (204) 
None

>  <inchikey>  (204) 
UCGDYOCJYJJPAV-UHFFFAOYSA-N

>  <tags>  (204) 
BulkDock Fragalysis export,openbind_d68ev3c_c2_elabs_scored,openbind_d68ev3c_c2_elabs_scored_4.5plus,openbind_d68ev3c_c2_elabs,openbind_d68ev3c_c2_elabs_scored_5plus,syndirella_product,openbind_d68ev3c_c2_elabs_scored_top80percent,syndirella_placed

>  <smiles>  (204) 
O=Cc1cc(F)c(F)cc1NC(=O)c1cc(Cl)nc(Cl)c1

>  <subsites>  (204) 
None

>  <rmsd(smina/fragmenstein)>  (204) 
1.254

>  <alias>  (204) 
None

>  <energy_score>  (204) 
-27.036667

>  <HIPPO Pose ID>  (204) 
64852

>  <distance_score>  (204) 
0.930551

>  <HIPPO Compound ID>  (204) 
101594

>  <gnina_score_min>  (204) 
5.0

>  <name>  (204) 
P64852

>  <exports>  (204) 
['/opt/xchem-fragalysis-2/maxwin/BulkDock/OUTPUTS/openbind_d68ev3c_c2_elabs_1LOTQJ3.sdf', '/opt/xchem-fragalysis-2/maxwin/BulkDock/OUTPUTS/openbind_d68ev3c_c2_elabs_1LSYEHW.sdf', '/opt/xchem-fragalysis-2/maxwin/BulkDock/OUTPUTS/openbind_d68ev3c_c2_elabs_1LSYI5W.sdf']

$$$$
P64854
     RDKit          3D

 21 22  0  0  0  0  0  0  0  0999 V2000
    3.4583   -3.3114   33.4604 N   0  0  0  0  0  0  0  0  0  0  0  0
    3.0168   -3.3211   34.5341 C   0  0  0  0  0  0  0  0  0  0  0  0
    2.3975   -3.3195   35.8279 C   0  0  0  0  0  0  0  0  0  0  0  0
    2.9424   -2.5306   36.8502 C   0  0  0  0  0  0  0  0  0  0  0  0
    2.3775   -2.5448   38.1258 C   0  0  0  0  0  0  0  0  0  0  0  0
    1.2693   -3.3429   38.3762 C   0  0  0  0  0  0  0  0  0  0  0  0
    0.7087   -3.3042   39.5956 F   0  0  0  0  0  0  0  0  0  0  0  0
    0.7194   -4.1371   37.3717 C   0  0  0  0  0  0  0  0  0  0  0  0
   -0.8915   -5.0262   37.7908 Br  0  0  0  0  0  0  0  0  0  0  0  0
    1.2862   -4.1360   36.0866 C   0  0  0  0  0  0  0  0  0  0  0  0
    0.7524   -4.8997   35.0448 N   0  0  0  0  0  0  0  0  0  0  0  0
    0.3849   -6.3935   34.9866 C   0  0  0  0  0  0  0  0  0  0  0  0
    0.3966   -7.2074   35.8206 O   0  0  0  0  0  0  0  0  0  0  0  0
   -0.1556   -6.7928   33.6634 C   0  0  0  0  0  0  0  0  0  0  0  0
   -1.1547   -7.7585   33.6829 C   0  0  0  0  0  0  0  0  0  0  0  0
   -1.7182   -8.0976   32.4801 C   0  0  0  0  0  0  0  0  0  0  0  0
   -2.9941   -9.2029   32.4338 Cl  0  0  0  0  0  0  0  0  0  0  0  0
   -1.3990   -7.5748   31.2855 N   0  0  0  0  0  0  0  0  0  0  0  0
   -0.3978   -6.6760   31.3116 C   0  0  0  0  0  0  0  0  0  0  0  0
   -0.0564   -5.9428   29.8042 Cl  0  0  0  0  0  0  0  0  0  0  0  0
    0.2586   -6.2518   32.4511 C   0  0  0  0  0  0  0  0  0  0  0  0
  1  2  3  0
  2  3  1  0
  3  4  2  0
  4  5  1  0
  5  6  2  0
  6  7  1  0
  6  8  1  0
  8  9  1  0
  8 10  2  0
 10 11  1  0
 11 12  1  0
 12 13  2  0
 12 14  1  0
 14 15  2  0
 15 16  1  0
 16 17  1  0
 16 18  2  0
 18 19  1  0
 19 20  1  0
 19 21  2  0
 10  3  1  0
 21 14  1  0
M  END
>  <ref_mols>  (205) 
7gov-a

>  <gnina_score>  (205) 
5.334

>  <smina_score_min>  (205) 
-5.296

>  <ref_pdb>  (205) 
7gov-a

>  <inspiration_score>  (205) 
None

>  <inchikey>  (205) 
HKYAXDQALYHVNA-UHFFFAOYSA-N

>  <tags>  (205) 
BulkDock Fragalysis export,openbind_d68ev3c_c2_elabs_scored,openbind_d68ev3c_c2_elabs_scored_4.5plus,openbind_d68ev3c_c2_elabs,openbind_d68ev3c_c2_elabs_scored_5plus,syndirella_product,openbind_d68ev3c_c2_elabs_scored_top80percent,syndirella_placed

>  <smiles>  (205) 
N#Cc1ccc(F)c(Br)c1NC(=O)c1cc(Cl)nc(Cl)c1

>  <subsites>  (205) 
None

>  <rmsd(smina/fragmenstein)>  (205) 
0.908

>  <alias>  (205) 
None

>  <energy_score>  (205) 
-0.085871

>  <HIPPO Pose ID>  (205) 
64854

>  <distance_score>  (205) 
0.714587

>  <HIPPO Compound ID>  (205) 
101598

>  <gnina_score_min>  (205) 
5.288

>  <name>  (205) 
P64854

>  <exports>  (205) 
['/opt/xchem-fragalysis-2/maxwin/BulkDock/OUTPUTS/openbind_d68ev3c_c2_elabs_1LOTQJ3.sdf', '/opt/xchem-fragalysis-2/maxwin/BulkDock/OUTPUTS/openbind_d68ev3c_c2_elabs_1LSYEHW.sdf', '/opt/xchem-fragalysis-2/maxwin/BulkDock/OUTPUTS/openbind_d68ev3c_c2_elabs_1LSYI5W.sdf']

$$$$
P64855
     RDKit          3D

 21 22  0  0  0  0  0  0  0  0999 V2000
    2.3193   -1.6522   39.6057 C   0  0  0  0  0  0  0  0  0  0  0  0
    1.9781   -2.5573   38.4551 C   0  0  0  0  0  0  0  0  0  0  0  0
    0.8676   -3.3945   38.5678 C   0  0  0  0  0  0  0  0  0  0  0  0
    0.1263   -3.3878   39.6854 F   0  0  0  0  0  0  0  0  0  0  0  0
    0.4888   -4.2416   37.5432 C   0  0  0  0  0  0  0  0  0  0  0  0
    1.2441   -4.2908   36.3754 C   0  0  0  0  0  0  0  0  0  0  0  0
    0.8447   -5.1331   35.3439 N   0  0  0  0  0  0  0  0  0  0  0  0
   -0.3814   -6.0563   35.2243 C   0  0  0  0  0  0  0  0  0  0  0  0
   -1.2110   -6.3165   36.0021 O   0  0  0  0  0  0  0  0  0  0  0  0
   -0.5387   -6.6022   33.8498 C   0  0  0  0  0  0  0  0  0  0  0  0
   -0.0955   -5.9549   32.6955 C   0  0  0  0  0  0  0  0  0  0  0  0
   -0.4430   -6.5012   31.4752 C   0  0  0  0  0  0  0  0  0  0  0  0
    0.0287   -5.7222   30.0255 Cl  0  0  0  0  0  0  0  0  0  0  0  0
   -1.2299   -7.5752   31.3191 N   0  0  0  0  0  0  0  0  0  0  0  0
   -1.6161   -8.1576   32.4647 C   0  0  0  0  0  0  0  0  0  0  0  0
   -2.6751   -9.4445   32.2511 Cl  0  0  0  0  0  0  0  0  0  0  0  0
   -1.3004   -7.7525   33.7351 C   0  0  0  0  0  0  0  0  0  0  0  0
    2.3898   -3.4847   36.2129 C   0  0  0  0  0  0  0  0  0  0  0  0
    3.1965   -3.5930   34.9402 C   0  0  0  0  0  0  0  0  0  0  0  0
    2.7309   -2.5989   37.2614 C   0  0  0  0  0  0  0  0  0  0  0  0
    4.2239   -1.4112   37.0845 Br  0  0  0  0  0  0  0  0  0  0  0  0
  1  2  1  0
  2  3  2  0
  3  4  1  0
  3  5  1  0
  5  6  2  0
  6  7  1  0
  7  8  1  0
  8  9  2  0
  8 10  1  0
 10 11  2  0
 11 12  1  0
 12 13  1  0
 12 14  2  0
 14 15  1  0
 15 16  1  0
 15 17  2  0
  6 18  1  0
 18 19  1  0
 18 20  2  0
 20 21  1  0
 20  2  1  0
 17 10  1  0
M  END
>  <ref_mols>  (206) 
7gov-a

>  <gnina_score>  (206) 
5.177

>  <smina_score_min>  (206) 
-5.533

>  <ref_pdb>  (206) 
7gov-a

>  <inspiration_score>  (206) 
None

>  <inchikey>  (206) 
NKPKPGMDKVZDDY-UHFFFAOYSA-N

>  <tags>  (206) 
BulkDock Fragalysis export,openbind_d68ev3c_c2_elabs_scored,openbind_d68ev3c_c2_elabs_scored_4.5plus,openbind_d68ev3c_c2_elabs,openbind_d68ev3c_c2_elabs_scored_5plus,syndirella_product,openbind_d68ev3c_c2_elabs_scored_top80percent,syndirella_placed

>  <smiles>  (206) 
Cc1c(F)cc(NC(=O)c2cc(Cl)nc(Cl)c2)c(C)c1Br

>  <subsites>  (206) 
None

>  <rmsd(smina/fragmenstein)>  (206) 
1.281

>  <alias>  (206) 
None

>  <energy_score>  (206) 
-19.219965

>  <HIPPO Pose ID>  (206) 
64855

>  <distance_score>  (206) 
0.942543

>  <HIPPO Compound ID>  (206) 
101600

>  <gnina_score_min>  (206) 
5.171

>  <name>  (206) 
P64855

>  <exports>  (206) 
['/opt/xchem-fragalysis-2/maxwin/BulkDock/OUTPUTS/openbind_d68ev3c_c2_elabs_1LOTQJ3.sdf', '/opt/xchem-fragalysis-2/maxwin/BulkDock/OUTPUTS/openbind_d68ev3c_c2_elabs_1LSYEHW.sdf', '/opt/xchem-fragalysis-2/maxwin/BulkDock/OUTPUTS/openbind_d68ev3c_c2_elabs_1LSYI5W.sdf']

$$$$
P64857
     RDKit          3D

 21 22  0  0  0  0  0  0  0  0999 V2000
   -1.3603   -6.2727   35.9876 O   0  0  0  0  0  0  0  0  0  0  0  0
   -0.4518   -6.0719   35.2852 C   0  0  0  0  0  0  0  0  0  0  0  0
    0.8017   -5.2040   35.4980 N   0  0  0  0  0  0  0  0  0  0  0  0
    1.1471   -4.3507   36.5484 C   0  0  0  0  0  0  0  0  0  0  0  0
    2.2908   -3.5373   36.3888 C   0  0  0  0  0  0  0  0  0  0  0  0
    3.2094   -3.6719   35.2011 C   0  0  0  0  0  0  0  0  0  0  0  0
    3.7822   -4.9715   35.1883 O   0  0  0  0  0  0  0  0  0  0  0  0
    2.6314   -2.6239   37.4013 C   0  0  0  0  0  0  0  0  0  0  0  0
    1.8687   -2.5377   38.5631 C   0  0  0  0  0  0  0  0  0  0  0  0
    0.7667   -3.3657   38.7190 C   0  0  0  0  0  0  0  0  0  0  0  0
    0.0550   -3.3020   39.8519 F   0  0  0  0  0  0  0  0  0  0  0  0
    0.3991   -4.2612   37.7267 C   0  0  0  0  0  0  0  0  0  0  0  0
   -0.6563   -5.0484   37.9657 F   0  0  0  0  0  0  0  0  0  0  0  0
   -0.5189   -6.6483   33.9200 C   0  0  0  0  0  0  0  0  0  0  0  0
   -0.0445   -5.9850   32.7877 C   0  0  0  0  0  0  0  0  0  0  0  0
   -0.3814   -6.5023   31.5519 C   0  0  0  0  0  0  0  0  0  0  0  0
    0.0878   -5.6808   30.1241 Cl  0  0  0  0  0  0  0  0  0  0  0  0
   -1.1735   -7.5684   31.3632 N   0  0  0  0  0  0  0  0  0  0  0  0
   -1.5799   -8.1724   32.4911 C   0  0  0  0  0  0  0  0  0  0  0  0
   -2.6425   -9.4494   32.2337 Cl  0  0  0  0  0  0  0  0  0  0  0  0
   -1.2848   -7.7920   33.7740 C   0  0  0  0  0  0  0  0  0  0  0  0
  1  2  2  0
  2  3  1  0
  3  4  1  0
  4  5  2  0
  5  6  1  0
  6  7  1  0
  5  8  1  0
  8  9  2  0
  9 10  1  0
 10 11  1  0
 10 12  2  0
 12 13  1  0
  2 14  1  0
 14 15  2  0
 15 16  1  0
 16 17  1  0
 16 18  2  0
 18 19  1  0
 19 20  1  0
 19 21  2  0
 12  4  1  0
 21 14  1  0
M  END
>  <ref_mols>  (207) 
7gov-a

>  <gnina_score>  (207) 
5.003

>  <smina_score_min>  (207) 
-5.827

>  <ref_pdb>  (207) 
7gov-a

>  <inspiration_score>  (207) 
None

>  <inchikey>  (207) 
LKDLWPIGNHIZJG-UHFFFAOYSA-N

>  <tags>  (207) 
BulkDock Fragalysis export,openbind_d68ev3c_c2_elabs_scored,openbind_d68ev3c_c2_elabs_scored_4.5plus,openbind_d68ev3c_c2_elabs,openbind_d68ev3c_c2_elabs_scored_5plus,syndirella_product,openbind_d68ev3c_c2_elabs_scored_top80percent,syndirella_placed

>  <smiles>  (207) 
O=C(Nc1c(CO)ccc(F)c1F)c1cc(Cl)nc(Cl)c1

>  <subsites>  (207) 
None

>  <rmsd(smina/fragmenstein)>  (207) 
1.164

>  <alias>  (207) 
None

>  <energy_score>  (207) 
-8.547603

>  <HIPPO Pose ID>  (207) 
64857

>  <distance_score>  (207) 
1.005759

>  <HIPPO Compound ID>  (207) 
101603

>  <gnina_score_min>  (207) 
5.09

>  <name>  (207) 
P64857

>  <exports>  (207) 
['/opt/xchem-fragalysis-2/maxwin/BulkDock/OUTPUTS/openbind_d68ev3c_c2_elabs_1LOTQJ3.sdf', '/opt/xchem-fragalysis-2/maxwin/BulkDock/OUTPUTS/openbind_d68ev3c_c2_elabs_1LSYEHW.sdf', '/opt/xchem-fragalysis-2/maxwin/BulkDock/OUTPUTS/openbind_d68ev3c_c2_elabs_1LSYI5W.sdf']

$$$$
P64858
     RDKit          3D

 21 22  0  0  0  0  0  0  0  0999 V2000
    3.3854   -3.2236   33.7154 N   0  0  0  0  0  0  0  0  0  0  0  0
    2.9031   -3.2814   34.7697 C   0  0  0  0  0  0  0  0  0  0  0  0
    2.2324   -3.3548   36.0353 C   0  0  0  0  0  0  0  0  0  0  0  0
    2.6767   -2.5631   37.1033 C   0  0  0  0  0  0  0  0  0  0  0  0
    2.0525   -2.6501   38.3508 C   0  0  0  0  0  0  0  0  0  0  0  0
    0.9914   -3.5304   38.5294 C   0  0  0  0  0  0  0  0  0  0  0  0
    0.3715   -3.5844   39.7160 F   0  0  0  0  0  0  0  0  0  0  0  0
    0.5525   -4.3277   37.4828 C   0  0  0  0  0  0  0  0  0  0  0  0
   -0.5168   -5.1134   37.6796 F   0  0  0  0  0  0  0  0  0  0  0  0
    1.1656   -4.2433   36.2269 C   0  0  0  0  0  0  0  0  0  0  0  0
    0.6844   -5.0035   35.1628 N   0  0  0  0  0  0  0  0  0  0  0  0
    0.0841   -6.4182   35.1373 C   0  0  0  0  0  0  0  0  0  0  0  0
   -0.1749   -7.1447   36.0106 O   0  0  0  0  0  0  0  0  0  0  0  0
   -0.3042   -6.8568   33.7653 C   0  0  0  0  0  0  0  0  0  0  0  0
   -1.2890   -7.8354   33.7201 C   0  0  0  0  0  0  0  0  0  0  0  0
   -1.7916   -8.1683   32.4905 C   0  0  0  0  0  0  0  0  0  0  0  0
   -3.0931   -9.2350   32.3984 Cl  0  0  0  0  0  0  0  0  0  0  0  0
   -1.4190   -7.6423   31.3147 N   0  0  0  0  0  0  0  0  0  0  0  0
   -0.4253   -6.7408   31.3953 C   0  0  0  0  0  0  0  0  0  0  0  0
   -0.0302   -5.9798   29.9140 Cl  0  0  0  0  0  0  0  0  0  0  0  0
    0.1708   -6.3193   32.5709 C   0  0  0  0  0  0  0  0  0  0  0  0
  1  2  3  0
  2  3  1  0
  3  4  2  0
  4  5  1  0
  5  6  2  0
  6  7  1  0
  6  8  1  0
  8  9  1  0
  8 10  2  0
 10 11  1  0
 11 12  1  0
 12 13  2  0
 12 14  1  0
 14 15  2  0
 15 16  1  0
 16 17  1  0
 16 18  2  0
 18 19  1  0
 19 20  1  0
 19 21  2  0
 10  3  1  0
 21 14  1  0
M  END
>  <ref_mols>  (208) 
7gov-a

>  <gnina_score>  (208) 
5.207

>  <smina_score_min>  (208) 
-5.562

>  <ref_pdb>  (208) 
7gov-a

>  <inspiration_score>  (208) 
None

>  <inchikey>  (208) 
KYSFSGQXOYLEEC-UHFFFAOYSA-N

>  <tags>  (208) 
BulkDock Fragalysis export,openbind_d68ev3c_c2_elabs_scored,openbind_d68ev3c_c2_elabs_scored_4.5plus,openbind_d68ev3c_c2_elabs,openbind_d68ev3c_c2_elabs_scored_5plus,syndirella_product,openbind_d68ev3c_c2_elabs_scored_top80percent,syndirella_placed

>  <smiles>  (208) 
N#Cc1ccc(F)c(F)c1NC(=O)c1cc(Cl)nc(Cl)c1

>  <subsites>  (208) 
None

>  <rmsd(smina/fragmenstein)>  (208) 
1.057

>  <alias>  (208) 
None

>  <energy_score>  (208) 
-3.374289

>  <HIPPO Pose ID>  (208) 
64858

>  <distance_score>  (208) 
0.681894

>  <HIPPO Compound ID>  (208) 
101605

>  <gnina_score_min>  (208) 
5.153

>  <name>  (208) 
P64858

>  <exports>  (208) 
['/opt/xchem-fragalysis-2/maxwin/BulkDock/OUTPUTS/openbind_d68ev3c_c2_elabs_1LOTQJ3.sdf', '/opt/xchem-fragalysis-2/maxwin/BulkDock/OUTPUTS/openbind_d68ev3c_c2_elabs_1LSYEHW.sdf', '/opt/xchem-fragalysis-2/maxwin/BulkDock/OUTPUTS/openbind_d68ev3c_c2_elabs_1LSYI5W.sdf']

$$$$
P64859
     RDKit          3D

 21 22  0  0  0  0  0  0  0  0999 V2000
   -0.0869   -6.3969   30.0766 C   0  0  0  0  0  0  0  0  0  0  0  0
   -0.6194   -7.0419   31.3217 C   0  0  0  0  0  0  0  0  0  0  0  0
   -0.1052   -6.6608   32.5565 C   0  0  0  0  0  0  0  0  0  0  0  0
   -0.7069   -7.1283   33.7318 C   0  0  0  0  0  0  0  0  0  0  0  0
   -0.1924   -6.6912   35.0711 C   0  0  0  0  0  0  0  0  0  0  0  0
   -0.2785   -7.4484   35.9512 O   0  0  0  0  0  0  0  0  0  0  0  0
    0.3804   -5.2598   35.0369 N   0  0  0  0  0  0  0  0  0  0  0  0
    0.8651   -4.4515   36.0684 C   0  0  0  0  0  0  0  0  0  0  0  0
    1.8880   -3.5248   35.8096 C   0  0  0  0  0  0  0  0  0  0  0  0
    2.4910   -3.4387   34.5104 C   0  0  0  0  0  0  0  0  0  0  0  0
    2.9245   -3.3522   33.4367 N   0  0  0  0  0  0  0  0  0  0  0  0
    2.3723   -2.7098   36.8445 C   0  0  0  0  0  0  0  0  0  0  0  0
    1.8295   -2.8055   38.1274 C   0  0  0  0  0  0  0  0  0  0  0  0
    0.8126   -3.7204   38.3748 C   0  0  0  0  0  0  0  0  0  0  0  0
    0.2712   -3.7809   39.5992 F   0  0  0  0  0  0  0  0  0  0  0  0
    0.3395   -4.5467   37.3620 C   0  0  0  0  0  0  0  0  0  0  0  0
   -0.6813   -5.3742   37.6310 F   0  0  0  0  0  0  0  0  0  0  0  0
   -1.7666   -8.0293   33.6185 C   0  0  0  0  0  0  0  0  0  0  0  0
   -2.8406   -8.6743   35.0312 Br  0  0  0  0  0  0  0  0  0  0  0  0
   -2.1622   -8.4090   32.3479 C   0  0  0  0  0  0  0  0  0  0  0  0
   -1.6477   -7.9125   31.1993 N   0  0  0  0  0  0  0  0  0  0  0  0
  1  2  1  0
  2  3  2  0
  3  4  1  0
  4  5  1  0
  5  6  2  0
  5  7  1  0
  7  8  1  0
  8  9  2  0
  9 10  1  0
 10 11  3  0
  9 12  1  0
 12 13  2  0
 13 14  1  0
 14 15  1  0
 14 16  2  0
 16 17  1  0
  4 18  2  0
 18 19  1  0
 18 20  1  0
 20 21  2  0
 21  2  1  0
 16  8  1  0
M  END
>  <ref_mols>  (209) 
7gov-a

>  <gnina_score>  (209) 
5.315

>  <smina_score_min>  (209) 
-5.205

>  <ref_pdb>  (209) 
7gov-a

>  <inspiration_score>  (209) 
None

>  <inchikey>  (209) 
FIVITWLGXLJABI-UHFFFAOYSA-N

>  <tags>  (209) 
BulkDock Fragalysis export,openbind_d68ev3c_c2_elabs_scored,openbind_d68ev3c_c2_elabs_scored_4.5plus,openbind_d68ev3c_c2_elabs,openbind_d68ev3c_c2_elabs_scored_5plus,syndirella_product,openbind_d68ev3c_c2_elabs_scored_top80percent,syndirella_placed

>  <smiles>  (209) 
Cc1cc(C(=O)Nc2c(C#N)ccc(F)c2F)c(Br)cn1

>  <subsites>  (209) 
None

>  <rmsd(smina/fragmenstein)>  (209) 
0.563

>  <alias>  (209) 
None

>  <energy_score>  (209) 
-14.24248

>  <HIPPO Pose ID>  (209) 
64859

>  <distance_score>  (209) 
0.542407

>  <HIPPO Compound ID>  (209) 
101609

>  <gnina_score_min>  (209) 
5.21

>  <name>  (209) 
P64859

>  <exports>  (209) 
['/opt/xchem-fragalysis-2/maxwin/BulkDock/OUTPUTS/openbind_d68ev3c_c2_elabs_1LOTQJ3.sdf', '/opt/xchem-fragalysis-2/maxwin/BulkDock/OUTPUTS/openbind_d68ev3c_c2_elabs_1LSYEHW.sdf', '/opt/xchem-fragalysis-2/maxwin/BulkDock/OUTPUTS/openbind_d68ev3c_c2_elabs_1LSYI5W.sdf']

$$$$
P64862
     RDKit          3D

 21 22  0  0  0  0  0  0  0  0999 V2000
    2.9558   -2.4309   33.7648 C   0  0  0  0  0  0  0  0  0  0  0  0
    3.3187   -3.3909   34.9030 C   0  0  0  0  0  0  0  0  0  0  0  0
    3.9630   -4.7337   34.5424 C   0  0  0  0  0  0  0  0  0  0  0  0
    2.2242   -3.4884   35.9523 C   0  0  0  0  0  0  0  0  0  0  0  0
    2.5525   -2.8470   37.1809 C   0  0  0  0  0  0  0  0  0  0  0  0
    1.7161   -2.8735   38.2912 C   0  0  0  0  0  0  0  0  0  0  0  0
    0.5154   -3.5352   38.1925 C   0  0  0  0  0  0  0  0  0  0  0  0
   -0.2948   -3.6014   39.2567 F   0  0  0  0  0  0  0  0  0  0  0  0
    0.1395   -4.1408   37.0007 C   0  0  0  0  0  0  0  0  0  0  0  0
    0.9758   -4.1354   35.8582 C   0  0  0  0  0  0  0  0  0  0  0  0
    0.3868   -4.8531   34.7969 N   0  0  0  0  0  0  0  0  0  0  0  0
    0.9043   -5.1369   33.3633 C   0  0  0  0  0  0  0  0  0  0  0  0
    1.8625   -4.7558   32.8152 O   0  0  0  0  0  0  0  0  0  0  0  0
    0.0461   -6.1061   32.6284 C   0  0  0  0  0  0  0  0  0  0  0  0
   -0.7251   -7.0736   33.2630 C   0  0  0  0  0  0  0  0  0  0  0  0
   -1.4550   -7.9185   32.4554 C   0  0  0  0  0  0  0  0  0  0  0  0
   -2.4617   -9.0886   33.1604 Cl  0  0  0  0  0  0  0  0  0  0  0  0
   -1.4728   -7.9023   31.1112 N   0  0  0  0  0  0  0  0  0  0  0  0
   -0.6452   -7.0039   30.5440 C   0  0  0  0  0  0  0  0  0  0  0  0
   -0.6561   -6.9994   28.8305 Cl  0  0  0  0  0  0  0  0  0  0  0  0
    0.1065   -6.0838   31.2377 C   0  0  0  0  0  0  0  0  0  0  0  0
  1  2  1  0
  2  3  1  0
  2  4  1  0
  4  5  2  0
  5  6  1  0
  6  7  2  0
  7  8  1  0
  7  9  1  0
  9 10  2  0
 10 11  1  0
 11 12  1  0
 12 13  2  0
 12 14  1  0
 14 15  2  0
 15 16  1  0
 16 17  1  0
 16 18  2  0
 18 19  1  0
 19 20  1  0
 19 21  2  0
 10  4  1  0
 21 14  1  0
M  END
>  <ref_mols>  (210) 
7gov-a

>  <gnina_score>  (210) 
5.139

>  <smina_score_min>  (210) 
-5.398

>  <ref_pdb>  (210) 
7gov-a

>  <inspiration_score>  (210) 
None

>  <inchikey>  (210) 
QYYDYNGTOBYNJZ-UHFFFAOYSA-N

>  <tags>  (210) 
BulkDock Fragalysis export,openbind_d68ev3c_c2_elabs_scored,openbind_d68ev3c_c2_elabs_scored_4.5plus,openbind_d68ev3c_c2_elabs,openbind_d68ev3c_c2_elabs_scored_5plus,syndirella_product,openbind_d68ev3c_c2_elabs_scored_top80percent,syndirella_placed

>  <smiles>  (210) 
CC(C)c1ccc(F)cc1NC(=O)c1cc(Cl)nc(Cl)c1

>  <subsites>  (210) 
None

>  <rmsd(smina/fragmenstein)>  (210) 
0.908

>  <alias>  (210) 
None

>  <energy_score>  (210) 
-2.804266

>  <HIPPO Pose ID>  (210) 
64862

>  <distance_score>  (210) 
1.285243

>  <HIPPO Compound ID>  (210) 
101617

>  <gnina_score_min>  (210) 
5.206

>  <name>  (210) 
P64862

>  <exports>  (210) 
['/opt/xchem-fragalysis-2/maxwin/BulkDock/OUTPUTS/openbind_d68ev3c_c2_elabs_1LOTQJ3.sdf', '/opt/xchem-fragalysis-2/maxwin/BulkDock/OUTPUTS/openbind_d68ev3c_c2_elabs_1LSYEHW.sdf', '/opt/xchem-fragalysis-2/maxwin/BulkDock/OUTPUTS/openbind_d68ev3c_c2_elabs_1LSYI5W.sdf']

$$$$
P64864
     RDKit          3D

 21 22  0  0  0  0  0  0  0  0999 V2000
    4.4508   -2.7083   34.8254 C   0  0  0  0  0  0  0  0  0  0  0  0
    3.1942   -3.5672   34.9158 C   0  0  0  0  0  0  0  0  0  0  0  0
    2.3777   -3.4763   36.1928 C   0  0  0  0  0  0  0  0  0  0  0  0
    2.7547   -2.6416   37.2581 C   0  0  0  0  0  0  0  0  0  0  0  0
    2.0121   -2.6123   38.4422 C   0  0  0  0  0  0  0  0  0  0  0  0
    2.5789   -1.5022   39.8659 Br  0  0  0  0  0  0  0  0  0  0  0  0
    0.8723   -3.3944   38.5699 C   0  0  0  0  0  0  0  0  0  0  0  0
    0.1440   -3.3801   39.6957 F   0  0  0  0  0  0  0  0  0  0  0  0
    0.4647   -4.2113   37.5296 C   0  0  0  0  0  0  0  0  0  0  0  0
    1.2204   -4.2667   36.3564 C   0  0  0  0  0  0  0  0  0  0  0  0
    0.8183   -5.1035   35.3249 N   0  0  0  0  0  0  0  0  0  0  0  0
   -0.3768   -6.0675   35.2279 C   0  0  0  0  0  0  0  0  0  0  0  0
   -1.1706   -6.3705   36.0267 O   0  0  0  0  0  0  0  0  0  0  0  0
   -0.5407   -6.6083   33.8522 C   0  0  0  0  0  0  0  0  0  0  0  0
   -0.1004   -5.9539   32.7006 C   0  0  0  0  0  0  0  0  0  0  0  0
   -0.4454   -6.4960   31.4782 C   0  0  0  0  0  0  0  0  0  0  0  0
    0.0294   -5.7130   30.0317 Cl  0  0  0  0  0  0  0  0  0  0  0  0
   -1.2291   -7.5719   31.3179 N   0  0  0  0  0  0  0  0  0  0  0  0
   -1.6136   -8.1600   32.4613 C   0  0  0  0  0  0  0  0  0  0  0  0
   -2.6654   -9.4517   32.2428 Cl  0  0  0  0  0  0  0  0  0  0  0  0
   -1.2993   -7.7596   33.7334 C   0  0  0  0  0  0  0  0  0  0  0  0
  1  2  1  0
  2  3  1  0
  3  4  2  0
  4  5  1  0
  5  6  1  0
  5  7  2  0
  7  8  1  0
  7  9  1  0
  9 10  2  0
 10 11  1  0
 11 12  1  0
 12 13  2  0
 12 14  1  0
 14 15  2  0
 15 16  1  0
 16 17  1  0
 16 18  2  0
 18 19  1  0
 19 20  1  0
 19 21  2  0
 10  3  1  0
 21 14  1  0
M  END
>  <ref_mols>  (211) 
7gov-a

>  <gnina_score>  (211) 
5.188

>  <smina_score_min>  (211) 
-5.296

>  <ref_pdb>  (211) 
7gov-a

>  <inspiration_score>  (211) 
None

>  <inchikey>  (211) 
GRWXDHPSAYNSAJ-UHFFFAOYSA-N

>  <tags>  (211) 
BulkDock Fragalysis export,openbind_d68ev3c_c2_elabs_scored,openbind_d68ev3c_c2_elabs_scored_4.5plus,openbind_d68ev3c_c2_elabs,openbind_d68ev3c_c2_elabs_scored_5plus,syndirella_product,openbind_d68ev3c_c2_elabs_scored_top80percent,syndirella_placed

>  <smiles>  (211) 
CCc1cc(Br)c(F)cc1NC(=O)c1cc(Cl)nc(Cl)c1

>  <subsites>  (211) 
None

>  <rmsd(smina/fragmenstein)>  (211) 
1.275

>  <alias>  (211) 
None

>  <energy_score>  (211) 
-15.032723

>  <HIPPO Pose ID>  (211) 
64864

>  <distance_score>  (211) 
0.928303

>  <HIPPO Compound ID>  (211) 
101630

>  <gnina_score_min>  (211) 
5.178

>  <name>  (211) 
P64864

>  <exports>  (211) 
['/opt/xchem-fragalysis-2/maxwin/BulkDock/OUTPUTS/openbind_d68ev3c_c2_elabs_1LOTQJ3.sdf', '/opt/xchem-fragalysis-2/maxwin/BulkDock/OUTPUTS/openbind_d68ev3c_c2_elabs_1LSYEHW.sdf', '/opt/xchem-fragalysis-2/maxwin/BulkDock/OUTPUTS/openbind_d68ev3c_c2_elabs_1LSYI5W.sdf']

$$$$
P64866
     RDKit          3D

 21 22  0  0  0  0  0  0  0  0999 V2000
    3.7204   -3.4349   33.9232 C   0  0  0  0  0  0  0  0  0  0  0  0
    3.0987   -3.4397   34.9507 C   0  0  0  0  0  0  0  0  0  0  0  0
    2.3580   -3.4430   36.1825 C   0  0  0  0  0  0  0  0  0  0  0  0
    2.8086   -2.6620   37.2479 C   0  0  0  0  0  0  0  0  0  0  0  0
    2.1049   -2.6683   38.4489 C   0  0  0  0  0  0  0  0  0  0  0  0
    2.5490   -1.9223   39.4707 F   0  0  0  0  0  0  0  0  0  0  0  0
    0.9505   -3.4287   38.5914 C   0  0  0  0  0  0  0  0  0  0  0  0
    0.2694   -3.4209   39.7451 F   0  0  0  0  0  0  0  0  0  0  0  0
    0.4827   -4.1995   37.5390 C   0  0  0  0  0  0  0  0  0  0  0  0
    1.1940   -4.2167   36.3381 C   0  0  0  0  0  0  0  0  0  0  0  0
    0.7324   -4.9709   35.2689 N   0  0  0  0  0  0  0  0  0  0  0  0
   -0.4074   -5.9999   35.1902 C   0  0  0  0  0  0  0  0  0  0  0  0
   -1.1909   -6.3230   35.9912 O   0  0  0  0  0  0  0  0  0  0  0  0
   -0.5452   -6.5733   33.8225 C   0  0  0  0  0  0  0  0  0  0  0  0
   -1.2915   -7.7352   33.7183 C   0  0  0  0  0  0  0  0  0  0  0  0
   -1.6010   -8.1574   32.4516 C   0  0  0  0  0  0  0  0  0  0  0  0
   -2.6468   -9.4570   32.2487 Cl  0  0  0  0  0  0  0  0  0  0  0  0
   -1.2208   -7.5827   31.3004 N   0  0  0  0  0  0  0  0  0  0  0  0
   -0.4441   -6.5000   31.4460 C   0  0  0  0  0  0  0  0  0  0  0  0
    0.0213   -5.7316   29.9888 Cl  0  0  0  0  0  0  0  0  0  0  0  0
   -0.1057   -5.9363   32.6606 C   0  0  0  0  0  0  0  0  0  0  0  0
  1  2  3  0
  2  3  1  0
  3  4  2  0
  4  5  1  0
  5  6  1  0
  5  7  2  0
  7  8  1  0
  7  9  1  0
  9 10  2  0
 10 11  1  0
 11 12  1  0
 12 13  2  0
 12 14  1  0
 14 15  2  0
 15 16  1  0
 16 17  1  0
 16 18  2  0
 18 19  1  0
 19 20  1  0
 19 21  2  0
 10  3  1  0
 21 14  1  0
M  END
>  <ref_mols>  (212) 
7gov-a

>  <gnina_score>  (212) 
5.115

>  <smina_score_min>  (212) 
-5.395

>  <ref_pdb>  (212) 
7gov-a

>  <inspiration_score>  (212) 
None

>  <inchikey>  (212) 
FMXLXKGPCACHPU-UHFFFAOYSA-N

>  <tags>  (212) 
BulkDock Fragalysis export,openbind_d68ev3c_c2_elabs_scored,openbind_d68ev3c_c2_elabs_scored_4.5plus,openbind_d68ev3c_c2_elabs,openbind_d68ev3c_c2_elabs_scored_5plus,syndirella_product,openbind_d68ev3c_c2_elabs_scored_top80percent,syndirella_placed

>  <smiles>  (212) 
C#Cc1cc(F)c(F)cc1NC(=O)c1cc(Cl)nc(Cl)c1

>  <subsites>  (212) 
None

>  <rmsd(smina/fragmenstein)>  (212) 
1.285

>  <alias>  (212) 
None

>  <energy_score>  (212) 
-17.546169

>  <HIPPO Pose ID>  (212) 
64866

>  <distance_score>  (212) 
0.938988

>  <HIPPO Compound ID>  (212) 
101632

>  <gnina_score_min>  (212) 
5.17

>  <name>  (212) 
P64866

>  <exports>  (212) 
['/opt/xchem-fragalysis-2/maxwin/BulkDock/OUTPUTS/openbind_d68ev3c_c2_elabs_1LOTQJ3.sdf', '/opt/xchem-fragalysis-2/maxwin/BulkDock/OUTPUTS/openbind_d68ev3c_c2_elabs_1LSYEHW.sdf', '/opt/xchem-fragalysis-2/maxwin/BulkDock/OUTPUTS/openbind_d68ev3c_c2_elabs_1LSYI5W.sdf']

$$$$
P64869
     RDKit          3D

 21 22  0  0  0  0  0  0  0  0999 V2000
    3.2338   -1.1320   39.0258 C   0  0  0  0  0  0  0  0  0  0  0  0
    2.1144   -1.9952   39.1624 O   0  0  0  0  0  0  0  0  0  0  0  0
    1.7773   -2.7524   38.0720 C   0  0  0  0  0  0  0  0  0  0  0  0
    2.3248   -2.6221   36.7914 C   0  0  0  0  0  0  0  0  0  0  0  0
    1.8898   -3.4398   35.7308 C   0  0  0  0  0  0  0  0  0  0  0  0
    2.5708   -3.3448   34.3938 C   0  0  0  0  0  0  0  0  0  0  0  0
    0.9065   -4.4070   35.9796 C   0  0  0  0  0  0  0  0  0  0  0  0
    0.4601   -5.2250   34.9495 N   0  0  0  0  0  0  0  0  0  0  0  0
   -0.1115   -6.6550   34.9837 C   0  0  0  0  0  0  0  0  0  0  0  0
   -0.2266   -7.4004   35.8704 O   0  0  0  0  0  0  0  0  0  0  0  0
   -0.6113   -7.1035   33.6395 C   0  0  0  0  0  0  0  0  0  0  0  0
    0.0439   -6.6847   32.4724 C   0  0  0  0  0  0  0  0  0  0  0  0
   -0.4186   -7.1237   31.2432 C   0  0  0  0  0  0  0  0  0  0  0  0
   -1.4618   -7.9568   31.0975 N   0  0  0  0  0  0  0  0  0  0  0  0
   -2.0394   -8.3886   32.2373 C   0  0  0  0  0  0  0  0  0  0  0  0
   -3.0648   -9.2361   32.0672 F   0  0  0  0  0  0  0  0  0  0  0  0
   -1.6840   -7.9918   33.5149 C   0  0  0  0  0  0  0  0  0  0  0  0
   -2.9005   -8.7076   35.0290 I   0  0  0  0  0  0  0  0  0  0  0  0
    0.3701   -4.5571   37.2573 C   0  0  0  0  0  0  0  0  0  0  0  0
    0.7942   -3.7208   38.2837 C   0  0  0  0  0  0  0  0  0  0  0  0
    0.2303   -3.8550   39.4949 F   0  0  0  0  0  0  0  0  0  0  0  0
  1  2  1  0
  2  3  1  0
  3  4  2  0
  4  5  1  0
  5  6  1  0
  5  7  2  0
  7  8  1  0
  8  9  1  0
  9 10  2  0
  9 11  1  0
 11 12  2  0
 12 13  1  0
 13 14  2  0
 14 15  1  0
 15 16  1  0
 15 17  2  0
 17 18  1  0
  7 19  1  0
 19 20  2  0
 20 21  1  0
 20  3  1  0
 17 11  1  0
M  END
>  <ref_mols>  (213) 
7gov-a

>  <gnina_score>  (213) 
5.15

>  <smina_score_min>  (213) 
-4.885

>  <ref_pdb>  (213) 
7gov-a

>  <inspiration_score>  (213) 
None

>  <inchikey>  (213) 
IYIPPBLFPLVPCM-UHFFFAOYSA-N

>  <tags>  (213) 
BulkDock Fragalysis export,openbind_d68ev3c_c2_elabs_scored,openbind_d68ev3c_c2_elabs_scored_4.5plus,openbind_d68ev3c_c2_elabs,openbind_d68ev3c_c2_elabs_scored_5plus,syndirella_product,openbind_d68ev3c_c2_elabs_scored_top80percent,syndirella_placed

>  <smiles>  (213) 
COc1cc(C)c(NC(=O)c2ccnc(F)c2I)cc1F

>  <subsites>  (213) 
None

>  <rmsd(smina/fragmenstein)>  (213) 
1.104

>  <alias>  (213) 
None

>  <energy_score>  (213) 
-16.902391

>  <HIPPO Pose ID>  (213) 
64869

>  <distance_score>  (213) 
0.552225

>  <HIPPO Compound ID>  (213) 
101639

>  <gnina_score_min>  (213) 
5.119

>  <name>  (213) 
P64869

>  <exports>  (213) 
['/opt/xchem-fragalysis-2/maxwin/BulkDock/OUTPUTS/openbind_d68ev3c_c2_elabs_1LOTQJ3.sdf', '/opt/xchem-fragalysis-2/maxwin/BulkDock/OUTPUTS/openbind_d68ev3c_c2_elabs_1LSYEHW.sdf', '/opt/xchem-fragalysis-2/maxwin/BulkDock/OUTPUTS/openbind_d68ev3c_c2_elabs_1LSYI5W.sdf']

$$$$
P64870
     RDKit          3D

 21 22  0  0  0  0  0  0  0  0999 V2000
    3.6420   -1.0675   36.3402 C   0  0  0  0  0  0  0  0  0  0  0  0
    3.6685   -2.4761   36.9158 C   0  0  0  0  0  0  0  0  0  0  0  0
    2.2849   -3.0838   36.9778 C   0  0  0  0  0  0  0  0  0  0  0  0
    1.5371   -2.8914   38.1503 C   0  0  0  0  0  0  0  0  0  0  0  0
    0.2615   -3.4268   38.2682 C   0  0  0  0  0  0  0  0  0  0  0  0
   -0.4058   -3.2752   39.4191 F   0  0  0  0  0  0  0  0  0  0  0  0
   -0.3225   -4.1307   37.2284 C   0  0  0  0  0  0  0  0  0  0  0  0
    0.4152   -4.3525   36.0714 C   0  0  0  0  0  0  0  0  0  0  0  0
   -0.1410   -5.1616   35.0933 N   0  0  0  0  0  0  0  0  0  0  0  0
    0.1733   -6.6152   34.7017 C   0  0  0  0  0  0  0  0  0  0  0  0
    0.8951   -7.3889   35.1880 O   0  0  0  0  0  0  0  0  0  0  0  0
   -0.5091   -6.9950   33.4492 C   0  0  0  0  0  0  0  0  0  0  0  0
    0.0533   -6.5421   32.2539 C   0  0  0  0  0  0  0  0  0  0  0  0
   -0.4787   -7.0055   31.0666 C   0  0  0  0  0  0  0  0  0  0  0  0
   -1.5155   -7.8628   31.0044 N   0  0  0  0  0  0  0  0  0  0  0  0
   -2.0114   -8.2939   32.1846 C   0  0  0  0  0  0  0  0  0  0  0  0
   -3.0401   -9.1507   32.0970 F   0  0  0  0  0  0  0  0  0  0  0  0
   -1.5675   -7.8867   33.4249 C   0  0  0  0  0  0  0  0  0  0  0  0
   -2.5756   -8.5515   35.0621 I   0  0  0  0  0  0  0  0  0  0  0  0
    1.7239   -3.8379   35.9201 C   0  0  0  0  0  0  0  0  0  0  0  0
    2.5269   -4.1463   34.6802 C   0  0  0  0  0  0  0  0  0  0  0  0
  1  2  1  0
  2  3  1  0
  3  4  2  0
  4  5  1  0
  5  6  1  0
  5  7  2  0
  7  8  1  0
  8  9  1  0
  9 10  1  0
 10 11  2  0
 10 12  1  0
 12 13  2  0
 13 14  1  0
 14 15  2  0
 15 16  1  0
 16 17  1  0
 16 18  2  0
 18 19  1  0
  8 20  2  0
 20 21  1  0
 20  3  1  0
 18 12  1  0
M  END
>  <ref_mols>  (214) 
7gov-a

>  <gnina_score>  (214) 
5.226

>  <smina_score_min>  (214) 
-5.066

>  <ref_pdb>  (214) 
7gov-a

>  <inspiration_score>  (214) 
None

>  <inchikey>  (214) 
PHXLOHFHKHTLHQ-UHFFFAOYSA-N

>  <tags>  (214) 
BulkDock Fragalysis export,openbind_d68ev3c_c2_elabs_scored,openbind_d68ev3c_c2_elabs_scored_4.5plus,openbind_d68ev3c_c2_elabs,openbind_d68ev3c_c2_elabs_scored_5plus,syndirella_product,openbind_d68ev3c_c2_elabs_scored_top80percent,syndirella_placed

>  <smiles>  (214) 
CCc1cc(F)cc(NC(=O)c2ccnc(F)c2I)c1C

>  <subsites>  (214) 
None

>  <rmsd(smina/fragmenstein)>  (214) 
1.126

>  <alias>  (214) 
None

>  <energy_score>  (214) 
-9.634802

>  <HIPPO Pose ID>  (214) 
64870

>  <distance_score>  (214) 
0.445772

>  <HIPPO Compound ID>  (214) 
101641

>  <gnina_score_min>  (214) 
5.224

>  <name>  (214) 
P64870

>  <exports>  (214) 
['/opt/xchem-fragalysis-2/maxwin/BulkDock/OUTPUTS/openbind_d68ev3c_c2_elabs_1LOTQJ3.sdf', '/opt/xchem-fragalysis-2/maxwin/BulkDock/OUTPUTS/openbind_d68ev3c_c2_elabs_1LSYEHW.sdf', '/opt/xchem-fragalysis-2/maxwin/BulkDock/OUTPUTS/openbind_d68ev3c_c2_elabs_1LSYI5W.sdf']

$$$$
P64871
     RDKit          3D

 21 22  0  0  0  0  0  0  0  0999 V2000
   -0.2789   -7.3777   35.8946 O   0  0  0  0  0  0  0  0  0  0  0  0
   -0.1490   -6.6348   35.0074 C   0  0  0  0  0  0  0  0  0  0  0  0
    0.3550   -5.1795   34.9900 N   0  0  0  0  0  0  0  0  0  0  0  0
    0.8736   -4.3948   36.0066 C   0  0  0  0  0  0  0  0  0  0  0  0
    0.3533   -4.5293   37.2965 C   0  0  0  0  0  0  0  0  0  0  0  0
    0.8282   -3.7143   38.3144 C   0  0  0  0  0  0  0  0  0  0  0  0
    0.2985   -3.8126   39.5410 F   0  0  0  0  0  0  0  0  0  0  0  0
    1.8340   -2.7926   38.0763 C   0  0  0  0  0  0  0  0  0  0  0  0
    2.3602   -2.6891   36.7931 C   0  0  0  0  0  0  0  0  0  0  0  0
    3.3536   -1.8115   36.5814 F   0  0  0  0  0  0  0  0  0  0  0  0
    1.8822   -3.4644   35.7279 C   0  0  0  0  0  0  0  0  0  0  0  0
    2.5831   -3.3812   34.4001 C   0  0  0  0  0  0  0  0  0  0  0  0
    1.6797   -3.5514   33.3025 O   0  0  0  0  0  0  0  0  0  0  0  0
   -0.6186   -7.0982   33.6560 C   0  0  0  0  0  0  0  0  0  0  0  0
    0.0422   -6.6788   32.4933 C   0  0  0  0  0  0  0  0  0  0  0  0
   -0.4090   -7.1213   31.2607 C   0  0  0  0  0  0  0  0  0  0  0  0
   -1.4443   -7.9630   31.1058 N   0  0  0  0  0  0  0  0  0  0  0  0
   -2.0274   -8.3961   32.2417 C   0  0  0  0  0  0  0  0  0  0  0  0
   -3.0448   -9.2520   32.0650 F   0  0  0  0  0  0  0  0  0  0  0  0
   -1.6849   -7.9943   33.5220 C   0  0  0  0  0  0  0  0  0  0  0  0
   -2.9150   -8.7157   35.0260 I   0  0  0  0  0  0  0  0  0  0  0  0
  1  2  2  0
  2  3  1  0
  3  4  1  0
  4  5  2  0
  5  6  1  0
  6  7  1  0
  6  8  2  0
  8  9  1  0
  9 10  1  0
  9 11  2  0
 11 12  1  0
 12 13  1  0
  2 14  1  0
 14 15  2  0
 15 16  1  0
 16 17  2  0
 17 18  1  0
 18 19  1  0
 18 20  2  0
 20 21  1  0
 11  4  1  0
 20 14  1  0
M  END
>  <ref_mols>  (215) 
7gov-a

>  <gnina_score>  (215) 
5.054

>  <smina_score_min>  (215) 
-4.999

>  <ref_pdb>  (215) 
7gov-a

>  <inspiration_score>  (215) 
None

>  <inchikey>  (215) 
QTUGEUGMZRKHHT-UHFFFAOYSA-N

>  <tags>  (215) 
BulkDock Fragalysis export,openbind_d68ev3c_c2_elabs_scored,openbind_d68ev3c_c2_elabs_scored_4.5plus,openbind_d68ev3c_c2_elabs,openbind_d68ev3c_c2_elabs_scored_5plus,syndirella_product,openbind_d68ev3c_c2_elabs_scored_top80percent,syndirella_placed

>  <smiles>  (215) 
O=C(Nc1cc(F)cc(F)c1CO)c1ccnc(F)c1I

>  <subsites>  (215) 
None

>  <rmsd(smina/fragmenstein)>  (215) 
1.063

>  <alias>  (215) 
None

>  <energy_score>  (215) 
-17.35641

>  <HIPPO Pose ID>  (215) 
64871

>  <distance_score>  (215) 
0.551056

>  <HIPPO Compound ID>  (215) 
101642

>  <gnina_score_min>  (215) 
5.057

>  <name>  (215) 
P64871

>  <exports>  (215) 
['/opt/xchem-fragalysis-2/maxwin/BulkDock/OUTPUTS/openbind_d68ev3c_c2_elabs_1LOTQJ3.sdf', '/opt/xchem-fragalysis-2/maxwin/BulkDock/OUTPUTS/openbind_d68ev3c_c2_elabs_1LSYEHW.sdf', '/opt/xchem-fragalysis-2/maxwin/BulkDock/OUTPUTS/openbind_d68ev3c_c2_elabs_1LSYI5W.sdf']

$$$$
P64873
     RDKit          3D

 21 23  0  0  0  0  0  0  0  0999 V2000
   -1.4974   -6.5612   35.8067 O   0  0  0  0  0  0  0  0  0  0  0  0
   -0.7032   -6.2934   34.9930 C   0  0  0  0  0  0  0  0  0  0  0  0
    0.5282   -5.3680   35.0643 N   0  0  0  0  0  0  0  0  0  0  0  0
    0.9755   -4.5294   36.0884 C   0  0  0  0  0  0  0  0  0  0  0  0
    0.2450   -4.4379   37.2784 C   0  0  0  0  0  0  0  0  0  0  0  0
    0.6743   -3.5892   38.2879 C   0  0  0  0  0  0  0  0  0  0  0  0
   -0.0171   -3.5208   39.4335 F   0  0  0  0  0  0  0  0  0  0  0  0
    1.8043   -2.8060   38.1266 C   0  0  0  0  0  0  0  0  0  0  0  0
    2.5247   -2.8846   36.9347 C   0  0  0  0  0  0  0  0  0  0  0  0
    2.1459   -3.7572   35.8933 C   0  0  0  0  0  0  0  0  0  0  0  0
    2.9703   -3.8007   34.6192 C   0  0  0  0  0  0  0  0  0  0  0  0
    3.6626   -5.0786   34.2026 C   0  0  0  0  0  0  0  0  0  0  0  0
    4.4776   -3.9200   34.6830 C   0  0  0  0  0  0  0  0  0  0  0  0
   -0.8762   -6.9591   33.6604 C   0  0  0  0  0  0  0  0  0  0  0  0
   -1.4933   -8.2213   33.7376 C   0  0  0  0  0  0  0  0  0  0  0  0
   -1.8361   -8.8763   32.5760 C   0  0  0  0  0  0  0  0  0  0  0  0
   -1.5801   -8.3937   31.3508 N   0  0  0  0  0  0  0  0  0  0  0  0
   -0.9462   -7.1996   31.2917 C   0  0  0  0  0  0  0  0  0  0  0  0
   -0.7400   -6.7295   30.0506 F   0  0  0  0  0  0  0  0  0  0  0  0
   -0.6065   -6.4209   32.3967 C   0  0  0  0  0  0  0  0  0  0  0  0
    0.0684   -4.4843   31.9879 I   0  0  0  0  0  0  0  0  0  0  0  0
  1  2  2  0
  2  3  1  0
  3  4  1  0
  4  5  2  0
  5  6  1  0
  6  7  1  0
  6  8  2  0
  8  9  1  0
  9 10  2  0
 10 11  1  0
 11 12  1  0
 12 13  1  0
  2 14  1  0
 14 15  2  0
 15 16  1  0
 16 17  2  0
 17 18  1  0
 18 19  1  0
 18 20  2  0
 20 21  1  0
 10  4  1  0
 13 11  1  0
 20 14  1  0
M  END
>  <ref_mols>  (216) 
7gov-a

>  <gnina_score>  (216) 
5.049

>  <smina_score_min>  (216) 
-5.68

>  <ref_pdb>  (216) 
7gov-a

>  <inspiration_score>  (216) 
None

>  <inchikey>  (216) 
MOZBXUCVTKDVKB-UHFFFAOYSA-N

>  <tags>  (216) 
BulkDock Fragalysis export,openbind_d68ev3c_c2_elabs_scored,openbind_d68ev3c_c2_elabs_scored_4.5plus,openbind_d68ev3c_c2_elabs,openbind_d68ev3c_c2_elabs_scored_5plus,syndirella_product,openbind_d68ev3c_c2_elabs_scored_top80percent,syndirella_placed

>  <smiles>  (216) 
O=C(Nc1cc(F)ccc1C1CC1)c1ccnc(F)c1I

>  <subsites>  (216) 
None

>  <rmsd(smina/fragmenstein)>  (216) 
0.315

>  <alias>  (216) 
None

>  <energy_score>  (216) 
-11.128317

>  <HIPPO Pose ID>  (216) 
64873

>  <distance_score>  (216) 
0.751155

>  <HIPPO Compound ID>  (216) 
101646

>  <gnina_score_min>  (216) 
5.035

>  <name>  (216) 
P64873

>  <exports>  (216) 
['/opt/xchem-fragalysis-2/maxwin/BulkDock/OUTPUTS/openbind_d68ev3c_c2_elabs_1LOTQJ3.sdf', '/opt/xchem-fragalysis-2/maxwin/BulkDock/OUTPUTS/openbind_d68ev3c_c2_elabs_1LSYEHW.sdf', '/opt/xchem-fragalysis-2/maxwin/BulkDock/OUTPUTS/openbind_d68ev3c_c2_elabs_1LSYI5W.sdf']

$$$$
P64875
     RDKit          3D

 21 22  0  0  0  0  0  0  0  0999 V2000
    3.9966   -5.0767   34.6495 C   0  0  0  0  0  0  0  0  0  0  0  0
    3.0524   -3.8746   34.5845 C   0  0  0  0  0  0  0  0  0  0  0  0
    3.8461   -2.6080   34.2325 C   0  0  0  0  0  0  0  0  0  0  0  0
    2.1992   -3.7731   35.8464 C   0  0  0  0  0  0  0  0  0  0  0  0
    2.6111   -2.9391   36.9071 C   0  0  0  0  0  0  0  0  0  0  0  0
    1.8728   -2.8423   38.0870 C   0  0  0  0  0  0  0  0  0  0  0  0
    0.7108   -3.5798   38.2234 C   0  0  0  0  0  0  0  0  0  0  0  0
    0.0063   -3.4980   39.3604 F   0  0  0  0  0  0  0  0  0  0  0  0
    0.2706   -4.4087   37.2022 C   0  0  0  0  0  0  0  0  0  0  0  0
    1.0113   -4.5247   36.0189 C   0  0  0  0  0  0  0  0  0  0  0  0
    0.5445   -5.3757   35.0114 N   0  0  0  0  0  0  0  0  0  0  0  0
   -0.7077   -6.2768   34.9602 C   0  0  0  0  0  0  0  0  0  0  0  0
   -1.5066   -6.5107   35.7801 O   0  0  0  0  0  0  0  0  0  0  0  0
   -0.8931   -6.9594   33.6419 C   0  0  0  0  0  0  0  0  0  0  0  0
   -1.4813   -8.2319   33.7417 C   0  0  0  0  0  0  0  0  0  0  0  0
   -1.8214   -8.9043   32.5897 C   0  0  0  0  0  0  0  0  0  0  0  0
   -1.5844   -8.4306   31.3570 N   0  0  0  0  0  0  0  0  0  0  0  0
   -0.9826   -7.2219   31.2783 C   0  0  0  0  0  0  0  0  0  0  0  0
   -0.7983   -6.7613   30.0304 F   0  0  0  0  0  0  0  0  0  0  0  0
   -0.6587   -6.4222   32.3712 C   0  0  0  0  0  0  0  0  0  0  0  0
   -0.0889   -4.4567   31.9424 I   0  0  0  0  0  0  0  0  0  0  0  0
  1  2  1  0
  2  3  1  0
  2  4  1  0
  4  5  2  0
  5  6  1  0
  6  7  2  0
  7  8  1  0
  7  9  1  0
  9 10  2  0
 10 11  1  0
 11 12  1  0
 12 13  2  0
 12 14  1  0
 14 15  2  0
 15 16  1  0
 16 17  2  0
 17 18  1  0
 18 19  1  0
 18 20  2  0
 20 21  1  0
 10  4  1  0
 20 14  1  0
M  END
>  <ref_mols>  (217) 
7gov-a

>  <gnina_score>  (217) 
5.121

>  <smina_score_min>  (217) 
-5.647

>  <ref_pdb>  (217) 
7gov-a

>  <inspiration_score>  (217) 
None

>  <inchikey>  (217) 
HNPBSNBYOWYJGK-UHFFFAOYSA-N

>  <tags>  (217) 
BulkDock Fragalysis export,openbind_d68ev3c_c2_elabs_scored,openbind_d68ev3c_c2_elabs_scored_4.5plus,openbind_d68ev3c_c2_elabs,openbind_d68ev3c_c2_elabs_scored_5plus,syndirella_product,openbind_d68ev3c_c2_elabs_scored_top80percent,syndirella_placed

>  <smiles>  (217) 
CC(C)c1ccc(F)cc1NC(=O)c1ccnc(F)c1I

>  <subsites>  (217) 
None

>  <rmsd(smina/fragmenstein)>  (217) 
0.514

>  <alias>  (217) 
None

>  <energy_score>  (217) 
-58.28099

>  <HIPPO Pose ID>  (217) 
64875

>  <distance_score>  (217) 
0.75548

>  <HIPPO Compound ID>  (217) 
101648

>  <gnina_score_min>  (217) 
5.022

>  <name>  (217) 
P64875

>  <exports>  (217) 
['/opt/xchem-fragalysis-2/maxwin/BulkDock/OUTPUTS/openbind_d68ev3c_c2_elabs_1LOTQJ3.sdf', '/opt/xchem-fragalysis-2/maxwin/BulkDock/OUTPUTS/openbind_d68ev3c_c2_elabs_1LSYEHW.sdf', '/opt/xchem-fragalysis-2/maxwin/BulkDock/OUTPUTS/openbind_d68ev3c_c2_elabs_1LSYI5W.sdf']

$$$$
P64876
     RDKit          3D

 21 22  0  0  0  0  0  0  0  0999 V2000
   -0.1711   -7.4425   35.8463 O   0  0  0  0  0  0  0  0  0  0  0  0
   -0.1048   -6.6687   34.9798 C   0  0  0  0  0  0  0  0  0  0  0  0
    0.3292   -5.1928   34.9921 N   0  0  0  0  0  0  0  0  0  0  0  0
    0.8441   -4.4130   36.0181 C   0  0  0  0  0  0  0  0  0  0  0  0
    1.8435   -3.4711   35.7234 C   0  0  0  0  0  0  0  0  0  0  0  0
    2.5102   -3.4142   34.3724 C   0  0  0  0  0  0  0  0  0  0  0  0
    1.5433   -3.3674   33.3223 O   0  0  0  0  0  0  0  0  0  0  0  0
    2.3351   -2.6670   36.7686 C   0  0  0  0  0  0  0  0  0  0  0  0
    1.8198   -2.7783   38.0627 C   0  0  0  0  0  0  0  0  0  0  0  0
    0.8244   -3.7099   38.3276 C   0  0  0  0  0  0  0  0  0  0  0  0
    0.3126   -3.7886   39.5645 F   0  0  0  0  0  0  0  0  0  0  0  0
    0.3456   -4.5348   37.3205 C   0  0  0  0  0  0  0  0  0  0  0  0
   -0.6509   -5.3890   37.6010 F   0  0  0  0  0  0  0  0  0  0  0  0
   -0.6024   -7.1011   33.6354 C   0  0  0  0  0  0  0  0  0  0  0  0
    0.0463   -6.6572   32.4761 C   0  0  0  0  0  0  0  0  0  0  0  0
   -0.4104   -7.0920   31.2438 C   0  0  0  0  0  0  0  0  0  0  0  0
   -1.4429   -7.9391   31.0897 N   0  0  0  0  0  0  0  0  0  0  0  0
   -2.0197   -8.3834   32.2259 C   0  0  0  0  0  0  0  0  0  0  0  0
   -3.0374   -9.2388   32.0490 F   0  0  0  0  0  0  0  0  0  0  0  0
   -1.6696   -7.9935   33.5057 C   0  0  0  0  0  0  0  0  0  0  0  0
   -2.8874   -8.7083   35.0186 I   0  0  0  0  0  0  0  0  0  0  0  0
  1  2  2  0
  2  3  1  0
  3  4  1  0
  4  5  2  0
  5  6  1  0
  6  7  1  0
  5  8  1  0
  8  9  2  0
  9 10  1  0
 10 11  1  0
 10 12  2  0
 12 13  1  0
  2 14  1  0
 14 15  2  0
 15 16  1  0
 16 17  2  0
 17 18  1  0
 18 19  1  0
 18 20  2  0
 20 21  1  0
 12  4  1  0
 20 14  1  0
M  END
>  <ref_mols>  (218) 
7gov-a

>  <gnina_score>  (218) 
5.144

>  <smina_score_min>  (218) 
-5.07

>  <ref_pdb>  (218) 
7gov-a

>  <inspiration_score>  (218) 
None

>  <inchikey>  (218) 
ZTUNVUSHVYEXEV-UHFFFAOYSA-N

>  <tags>  (218) 
BulkDock Fragalysis export,openbind_d68ev3c_c2_elabs_scored,openbind_d68ev3c_c2_elabs_scored_4.5plus,openbind_d68ev3c_c2_elabs,openbind_d68ev3c_c2_elabs_scored_5plus,syndirella_product,openbind_d68ev3c_c2_elabs_scored_top80percent,syndirella_placed

>  <smiles>  (218) 
O=C(Nc1c(CO)ccc(F)c1F)c1ccnc(F)c1I

>  <subsites>  (218) 
None

>  <rmsd(smina/fragmenstein)>  (218) 
1.415

>  <alias>  (218) 
None

>  <energy_score>  (218) 
-6.306684

>  <HIPPO Pose ID>  (218) 
64876

>  <distance_score>  (218) 
0.538433

>  <HIPPO Compound ID>  (218) 
101651

>  <gnina_score_min>  (218) 
5.367

>  <name>  (218) 
P64876

>  <exports>  (218) 
['/opt/xchem-fragalysis-2/maxwin/BulkDock/OUTPUTS/openbind_d68ev3c_c2_elabs_1LOTQJ3.sdf', '/opt/xchem-fragalysis-2/maxwin/BulkDock/OUTPUTS/openbind_d68ev3c_c2_elabs_1LSYEHW.sdf', '/opt/xchem-fragalysis-2/maxwin/BulkDock/OUTPUTS/openbind_d68ev3c_c2_elabs_1LSYI5W.sdf']

$$$$
P64877
     RDKit          3D

 21 22  0  0  0  0  0  0  0  0999 V2000
    2.5890   -3.4563   34.3781 C   0  0  0  0  0  0  0  0  0  0  0  0
    1.9336   -3.4942   35.7356 C   0  0  0  0  0  0  0  0  0  0  0  0
    2.4341   -2.7443   36.8242 C   0  0  0  0  0  0  0  0  0  0  0  0
    3.5473   -1.8480   36.6831 C   0  0  0  0  0  0  0  0  0  0  0  0
    4.4360   -1.1091   36.5710 N   0  0  0  0  0  0  0  0  0  0  0  0
    1.8558   -2.8621   38.0958 C   0  0  0  0  0  0  0  0  0  0  0  0
    0.8124   -3.7509   38.2984 C   0  0  0  0  0  0  0  0  0  0  0  0
    0.2572   -3.8509   39.5131 F   0  0  0  0  0  0  0  0  0  0  0  0
    0.3340   -4.5318   37.2599 C   0  0  0  0  0  0  0  0  0  0  0  0
    0.8798   -4.3928   35.9813 C   0  0  0  0  0  0  0  0  0  0  0  0
    0.3485   -5.1760   34.9636 N   0  0  0  0  0  0  0  0  0  0  0  0
   -0.1091   -6.6470   34.9684 C   0  0  0  0  0  0  0  0  0  0  0  0
   -0.1845   -7.4106   35.8437 O   0  0  0  0  0  0  0  0  0  0  0  0
   -0.6005   -7.0974   33.6244 C   0  0  0  0  0  0  0  0  0  0  0  0
    0.0520   -6.6751   32.4581 C   0  0  0  0  0  0  0  0  0  0  0  0
   -0.4127   -7.1160   31.2304 C   0  0  0  0  0  0  0  0  0  0  0  0
   -1.4542   -7.9523   31.0872 N   0  0  0  0  0  0  0  0  0  0  0  0
   -2.0288   -8.3862   32.2275 C   0  0  0  0  0  0  0  0  0  0  0  0
   -3.0525   -9.2361   32.0601 F   0  0  0  0  0  0  0  0  0  0  0  0
   -1.6715   -7.9881   33.5032 C   0  0  0  0  0  0  0  0  0  0  0  0
   -2.8833   -8.7001   35.0229 I   0  0  0  0  0  0  0  0  0  0  0  0
  1  2  1  0
  2  3  2  0
  3  4  1  0
  4  5  3  0
  3  6  1  0
  6  7  2  0
  7  8  1  0
  7  9  1  0
  9 10  2  0
 10 11  1  0
 11 12  1  0
 12 13  2  0
 12 14  1  0
 14 15  2  0
 15 16  1  0
 16 17  2  0
 17 18  1  0
 18 19  1  0
 18 20  2  0
 20 21  1  0
 10  2  1  0
 20 14  1  0
M  END
>  <ref_mols>  (219) 
7gov-a

>  <gnina_score>  (219) 
5.214

>  <smina_score_min>  (219) 
-4.862

>  <ref_pdb>  (219) 
7gov-a

>  <inspiration_score>  (219) 
None

>  <inchikey>  (219) 
PNKLUFMYCFMEHF-UHFFFAOYSA-N

>  <tags>  (219) 
BulkDock Fragalysis export,openbind_d68ev3c_c2_elabs_scored,openbind_d68ev3c_c2_elabs_scored_4.5plus,openbind_d68ev3c_c2_elabs,openbind_d68ev3c_c2_elabs_scored_5plus,syndirella_product,openbind_d68ev3c_c2_elabs_scored_top80percent,syndirella_placed

>  <smiles>  (219) 
Cc1c(C#N)cc(F)cc1NC(=O)c1ccnc(F)c1I

>  <subsites>  (219) 
None

>  <rmsd(smina/fragmenstein)>  (219) 
1.203

>  <alias>  (219) 
None

>  <energy_score>  (219) 
-14.505795

>  <HIPPO Pose ID>  (219) 
64877

>  <distance_score>  (219) 
0.517002

>  <HIPPO Compound ID>  (219) 
101653

>  <gnina_score_min>  (219) 
5.131

>  <name>  (219) 
P64877

>  <exports>  (219) 
['/opt/xchem-fragalysis-2/maxwin/BulkDock/OUTPUTS/openbind_d68ev3c_c2_elabs_1LOTQJ3.sdf', '/opt/xchem-fragalysis-2/maxwin/BulkDock/OUTPUTS/openbind_d68ev3c_c2_elabs_1LSYEHW.sdf', '/opt/xchem-fragalysis-2/maxwin/BulkDock/OUTPUTS/openbind_d68ev3c_c2_elabs_1LSYI5W.sdf']

$$$$
P64878
     RDKit          3D

 21 22  0  0  0  0  0  0  0  0999 V2000
   -0.3987   -7.3435   35.9514 O   0  0  0  0  0  0  0  0  0  0  0  0
   -0.1875   -6.6382   35.0494 C   0  0  0  0  0  0  0  0  0  0  0  0
    0.4794   -5.2506   35.0023 N   0  0  0  0  0  0  0  0  0  0  0  0
    0.9236   -4.4303   36.0266 C   0  0  0  0  0  0  0  0  0  0  0  0
    0.3778   -4.5560   37.3071 C   0  0  0  0  0  0  0  0  0  0  0  0
    0.8118   -3.7119   38.3198 C   0  0  0  0  0  0  0  0  0  0  0  0
    0.2623   -3.8070   39.5389 F   0  0  0  0  0  0  0  0  0  0  0  0
    1.7983   -2.7694   38.0694 C   0  0  0  0  0  0  0  0  0  0  0  0
    2.2254   -1.9601   39.0496 F   0  0  0  0  0  0  0  0  0  0  0  0
    2.3548   -2.6489   36.7981 C   0  0  0  0  0  0  0  0  0  0  0  0
    1.9128   -3.4718   35.7486 C   0  0  0  0  0  0  0  0  0  0  0  0
    2.6200   -3.4130   34.4184 C   0  0  0  0  0  0  0  0  0  0  0  0
    1.6914   -3.4547   33.3330 O   0  0  0  0  0  0  0  0  0  0  0  0
   -0.6495   -7.1067   33.6915 C   0  0  0  0  0  0  0  0  0  0  0  0
    0.0228   -6.6945   32.5307 C   0  0  0  0  0  0  0  0  0  0  0  0
   -0.4170   -7.1377   31.2937 C   0  0  0  0  0  0  0  0  0  0  0  0
   -1.4519   -7.9767   31.1301 N   0  0  0  0  0  0  0  0  0  0  0  0
   -2.0452   -8.4073   32.2615 C   0  0  0  0  0  0  0  0  0  0  0  0
   -3.0612   -9.2629   32.0757 F   0  0  0  0  0  0  0  0  0  0  0  0
   -1.7145   -8.0039   33.5459 C   0  0  0  0  0  0  0  0  0  0  0  0
   -2.9604   -8.7361   35.0346 I   0  0  0  0  0  0  0  0  0  0  0  0
  1  2  2  0
  2  3  1  0
  3  4  1  0
  4  5  2  0
  5  6  1  0
  6  7  1  0
  6  8  2  0
  8  9  1  0
  8 10  1  0
 10 11  2  0
 11 12  1  0
 12 13  1  0
  2 14  1  0
 14 15  2  0
 15 16  1  0
 16 17  2  0
 17 18  1  0
 18 19  1  0
 18 20  2  0
 20 21  1  0
 11  4  1  0
 20 14  1  0
M  END
>  <ref_mols>  (220) 
7gov-a

>  <gnina_score>  (220) 
5.051

>  <smina_score_min>  (220) 
-4.97

>  <ref_pdb>  (220) 
7gov-a

>  <inspiration_score>  (220) 
None

>  <inchikey>  (220) 
XZJIINSVWOFIHK-UHFFFAOYSA-N

>  <tags>  (220) 
BulkDock Fragalysis export,openbind_d68ev3c_c2_elabs_scored,openbind_d68ev3c_c2_elabs_scored_4.5plus,openbind_d68ev3c_c2_elabs,openbind_d68ev3c_c2_elabs_scored_5plus,syndirella_product,openbind_d68ev3c_c2_elabs_scored_top80percent,syndirella_placed

>  <smiles>  (220) 
O=C(Nc1cc(F)c(F)cc1CO)c1ccnc(F)c1I

>  <subsites>  (220) 
None

>  <rmsd(smina/fragmenstein)>  (220) 
1.048

>  <alias>  (220) 
None

>  <energy_score>  (220) 
-38.123324

>  <HIPPO Pose ID>  (220) 
64878

>  <distance_score>  (220) 
0.575769

>  <HIPPO Compound ID>  (220) 
101657

>  <gnina_score_min>  (220) 
5.041

>  <name>  (220) 
P64878

>  <exports>  (220) 
['/opt/xchem-fragalysis-2/maxwin/BulkDock/OUTPUTS/openbind_d68ev3c_c2_elabs_1LOTQJ3.sdf', '/opt/xchem-fragalysis-2/maxwin/BulkDock/OUTPUTS/openbind_d68ev3c_c2_elabs_1LSYEHW.sdf', '/opt/xchem-fragalysis-2/maxwin/BulkDock/OUTPUTS/openbind_d68ev3c_c2_elabs_1LSYI5W.sdf']

$$$$
P64879
     RDKit          3D

 21 22  0  0  0  0  0  0  0  0999 V2000
    4.0034   -3.0821   34.3178 C   0  0  0  0  0  0  0  0  0  0  0  0
    2.5455   -3.4452   34.4270 C   0  0  0  0  0  0  0  0  0  0  0  0
    1.8685   -3.6864   33.4264 O   0  0  0  0  0  0  0  0  0  0  0  0
    1.9229   -3.4884   35.7825 C   0  0  0  0  0  0  0  0  0  0  0  0
    2.4081   -2.6733   36.8158 C   0  0  0  0  0  0  0  0  0  0  0  0
    1.8571   -2.7660   38.0963 C   0  0  0  0  0  0  0  0  0  0  0  0
    0.8393   -3.6793   38.3441 C   0  0  0  0  0  0  0  0  0  0  0  0
    0.3027   -3.7516   39.5692 F   0  0  0  0  0  0  0  0  0  0  0  0
    0.3593   -4.5056   37.3376 C   0  0  0  0  0  0  0  0  0  0  0  0
    0.8887   -4.4002   36.0496 C   0  0  0  0  0  0  0  0  0  0  0  0
    0.3738   -5.1993   35.0380 N   0  0  0  0  0  0  0  0  0  0  0  0
   -0.2803   -6.5926   35.0984 C   0  0  0  0  0  0  0  0  0  0  0  0
   -0.5594   -7.2557   36.0136 O   0  0  0  0  0  0  0  0  0  0  0  0
   -0.6861   -7.1012   33.7323 C   0  0  0  0  0  0  0  0  0  0  0  0
    0.0070   -6.6947   32.5811 C   0  0  0  0  0  0  0  0  0  0  0  0
   -0.4050   -7.1479   31.3375 C   0  0  0  0  0  0  0  0  0  0  0  0
   -1.4292   -7.9971   31.1571 N   0  0  0  0  0  0  0  0  0  0  0  0
   -2.0372   -8.4293   32.2793 C   0  0  0  0  0  0  0  0  0  0  0  0
   -3.0392   -9.2980   32.0786 F   0  0  0  0  0  0  0  0  0  0  0  0
   -1.7360   -8.0148   33.5688 C   0  0  0  0  0  0  0  0  0  0  0  0
   -3.0057   -8.7596   35.0355 I   0  0  0  0  0  0  0  0  0  0  0  0
  1  2  1  0
  2  3  2  0
  2  4  1  0
  4  5  2  0
  5  6  1  0
  6  7  2  0
  7  8  1  0
  7  9  1  0
  9 10  2  0
 10 11  1  0
 11 12  1  0
 12 13  2  0
 12 14  1  0
 14 15  2  0
 15 16  1  0
 16 17  2  0
 17 18  1  0
 18 19  1  0
 18 20  2  0
 20 21  1  0
 10  4  1  0
 20 14  1  0
M  END
>  <ref_mols>  (221) 
7gov-a

>  <gnina_score>  (221) 
5.118

>  <smina_score_min>  (221) 
-4.8

>  <ref_pdb>  (221) 
7gov-a

>  <inspiration_score>  (221) 
None

>  <inchikey>  (221) 
PIZWKBFSHUENRR-UHFFFAOYSA-N

>  <tags>  (221) 
BulkDock Fragalysis export,openbind_d68ev3c_c2_elabs_scored,openbind_d68ev3c_c2_elabs_scored_4.5plus,openbind_d68ev3c_c2_elabs,openbind_d68ev3c_c2_elabs_scored_5plus,syndirella_product,openbind_d68ev3c_c2_elabs_scored_top80percent,syndirella_placed

>  <smiles>  (221) 
CC(=O)c1ccc(F)cc1NC(=O)c1ccnc(F)c1I

>  <subsites>  (221) 
None

>  <rmsd(smina/fragmenstein)>  (221) 
1.038

>  <alias>  (221) 
None

>  <energy_score>  (221) 
-2.834522

>  <HIPPO Pose ID>  (221) 
64879

>  <distance_score>  (221) 
0.604609

>  <HIPPO Compound ID>  (221) 
101659

>  <gnina_score_min>  (221) 
5.102

>  <name>  (221) 
P64879

>  <exports>  (221) 
['/opt/xchem-fragalysis-2/maxwin/BulkDock/OUTPUTS/openbind_d68ev3c_c2_elabs_1LOTQJ3.sdf', '/opt/xchem-fragalysis-2/maxwin/BulkDock/OUTPUTS/openbind_d68ev3c_c2_elabs_1LSYEHW.sdf', '/opt/xchem-fragalysis-2/maxwin/BulkDock/OUTPUTS/openbind_d68ev3c_c2_elabs_1LSYI5W.sdf']

$$$$
P64883
     RDKit          3D

 21 22  0  0  0  0  0  0  0  0999 V2000
   -0.0996   -6.4319   30.0747 C   0  0  0  0  0  0  0  0  0  0  0  0
   -0.6295   -7.0672   31.3260 C   0  0  0  0  0  0  0  0  0  0  0  0
   -0.1143   -6.6765   32.5587 C   0  0  0  0  0  0  0  0  0  0  0  0
   -0.7167   -7.1237   33.7427 C   0  0  0  0  0  0  0  0  0  0  0  0
   -0.2181   -6.6651   35.0892 C   0  0  0  0  0  0  0  0  0  0  0  0
   -0.3629   -7.3989   35.9823 O   0  0  0  0  0  0  0  0  0  0  0  0
    0.4284   -5.2634   35.0408 N   0  0  0  0  0  0  0  0  0  0  0  0
    0.9283   -4.4622   36.0645 C   0  0  0  0  0  0  0  0  0  0  0  0
    0.3530   -4.5606   37.3342 C   0  0  0  0  0  0  0  0  0  0  0  0
    0.7902   -3.7281   38.3607 C   0  0  0  0  0  0  0  0  0  0  0  0
    0.1972   -3.8231   39.5598 F   0  0  0  0  0  0  0  0  0  0  0  0
    1.8102   -2.8056   38.1416 C   0  0  0  0  0  0  0  0  0  0  0  0
    2.4139   -1.6894   39.5434 Br  0  0  0  0  0  0  0  0  0  0  0  0
    2.4010   -2.7067   36.8828 C   0  0  0  0  0  0  0  0  0  0  0  0
    1.9634   -3.5412   35.8456 C   0  0  0  0  0  0  0  0  0  0  0  0
    2.6963   -3.5044   34.5634 C   0  0  0  0  0  0  0  0  0  0  0  0
    3.3569   -2.5304   34.2218 O   0  0  0  0  0  0  0  0  0  0  0  0
   -1.7766   -8.0287   33.6316 C   0  0  0  0  0  0  0  0  0  0  0  0
   -2.8577   -8.6737   35.0406 Br  0  0  0  0  0  0  0  0  0  0  0  0
   -2.1702   -8.4228   32.3633 C   0  0  0  0  0  0  0  0  0  0  0  0
   -1.6563   -7.9373   31.2110 N   0  0  0  0  0  0  0  0  0  0  0  0
  1  2  1  0
  2  3  2  0
  3  4  1  0
  4  5  1  0
  5  6  2  0
  5  7  1  0
  7  8  1  0
  8  9  2  0
  9 10  1  0
 10 11  1  0
 10 12  2  0
 12 13  1  0
 12 14  1  0
 14 15  2  0
 15 16  1  0
 16 17  2  0
  4 18  2  0
 18 19  1  0
 18 20  1  0
 20 21  2  0
 21  2  1  0
 15  8  1  0
M  END
>  <ref_mols>  (222) 
7gov-a

>  <gnina_score>  (222) 
5.223

>  <smina_score_min>  (222) 
-5.476

>  <ref_pdb>  (222) 
7gov-a

>  <inspiration_score>  (222) 
None

>  <inchikey>  (222) 
BOQQSLCLWNEWQX-UHFFFAOYSA-N

>  <tags>  (222) 
BulkDock Fragalysis export,openbind_d68ev3c_c2_elabs_scored,openbind_d68ev3c_c2_elabs_scored_4.5plus,openbind_d68ev3c_c2_elabs,openbind_d68ev3c_c2_elabs_scored_5plus,syndirella_product,openbind_d68ev3c_c2_elabs_scored_top80percent,syndirella_placed

>  <smiles>  (222) 
Cc1cc(C(=O)Nc2cc(F)c(Br)cc2C=O)c(Br)cn1

>  <subsites>  (222) 
None

>  <rmsd(smina/fragmenstein)>  (222) 
1.053

>  <alias>  (222) 
None

>  <energy_score>  (222) 
-8.049679

>  <HIPPO Pose ID>  (222) 
64883

>  <distance_score>  (222) 
0.544661

>  <HIPPO Compound ID>  (222) 
101664

>  <gnina_score_min>  (222) 
5.207

>  <name>  (222) 
P64883

>  <exports>  (222) 
['/opt/xchem-fragalysis-2/maxwin/BulkDock/OUTPUTS/openbind_d68ev3c_c2_elabs_1LOTQJ3.sdf', '/opt/xchem-fragalysis-2/maxwin/BulkDock/OUTPUTS/openbind_d68ev3c_c2_elabs_1LSYEHW.sdf', '/opt/xchem-fragalysis-2/maxwin/BulkDock/OUTPUTS/openbind_d68ev3c_c2_elabs_1LSYI5W.sdf']

$$$$
P64884
     RDKit          3D

 21 22  0  0  0  0  0  0  0  0999 V2000
   -0.0847   -6.4471   30.2284 C   0  0  0  0  0  0  0  0  0  0  0  0
   -0.6464   -7.1064   31.4532 C   0  0  0  0  0  0  0  0  0  0  0  0
   -0.2055   -6.6937   32.7088 C   0  0  0  0  0  0  0  0  0  0  0  0
   -0.8586   -7.1349   33.8698 C   0  0  0  0  0  0  0  0  0  0  0  0
   -0.4823   -6.5999   35.2384 C   0  0  0  0  0  0  0  0  0  0  0  0
   -0.8121   -7.2315   36.1609 O   0  0  0  0  0  0  0  0  0  0  0  0
    0.2484   -5.2406   35.1658 N   0  0  0  0  0  0  0  0  0  0  0  0
    0.7865   -4.4545   36.1697 C   0  0  0  0  0  0  0  0  0  0  0  0
    0.2625   -4.5287   37.4606 C   0  0  0  0  0  0  0  0  0  0  0  0
    0.7786   -3.7119   38.4569 C   0  0  0  0  0  0  0  0  0  0  0  0
    0.2375   -3.7727   39.6826 F   0  0  0  0  0  0  0  0  0  0  0  0
    1.8291   -2.8427   38.1836 C   0  0  0  0  0  0  0  0  0  0  0  0
    2.5575   -1.7537   39.5482 Br  0  0  0  0  0  0  0  0  0  0  0  0
    2.3639   -2.7772   36.8950 C   0  0  0  0  0  0  0  0  0  0  0  0
    1.8400   -3.5758   35.8625 C   0  0  0  0  0  0  0  0  0  0  0  0
    2.5365   -3.5820   34.5230 C   0  0  0  0  0  0  0  0  0  0  0  0
    1.6024   -3.6191   33.4428 O   0  0  0  0  0  0  0  0  0  0  0  0
   -1.8761   -8.0827   33.7079 C   0  0  0  0  0  0  0  0  0  0  0  0
   -3.0175   -8.7632   35.0557 Br  0  0  0  0  0  0  0  0  0  0  0  0
   -2.1877   -8.5029   32.4217 C   0  0  0  0  0  0  0  0  0  0  0  0
   -1.6367   -8.0097   31.2905 N   0  0  0  0  0  0  0  0  0  0  0  0
  1  2  1  0
  2  3  2  0
  3  4  1  0
  4  5  1  0
  5  6  2  0
  5  7  1  0
  7  8  1  0
  8  9  2  0
  9 10  1  0
 10 11  1  0
 10 12  2  0
 12 13  1  0
 12 14  1  0
 14 15  2  0
 15 16  1  0
 16 17  1  0
  4 18  2  0
 18 19  1  0
 18 20  1  0
 20 21  2  0
 21  2  1  0
 15  8  1  0
M  END
>  <ref_mols>  (223) 
7gov-a

>  <gnina_score>  (223) 
5.065

>  <smina_score_min>  (223) 
-5.649

>  <ref_pdb>  (223) 
7gov-a

>  <inspiration_score>  (223) 
None

>  <inchikey>  (223) 
XMEIIMGMACRKIB-UHFFFAOYSA-N

>  <tags>  (223) 
BulkDock Fragalysis export,openbind_d68ev3c_c2_elabs_scored,openbind_d68ev3c_c2_elabs_scored_4.5plus,openbind_d68ev3c_c2_elabs,openbind_d68ev3c_c2_elabs_scored_5plus,syndirella_product,openbind_d68ev3c_c2_elabs_scored_top80percent,syndirella_placed

>  <smiles>  (223) 
Cc1cc(C(=O)Nc2cc(F)c(Br)cc2CO)c(Br)cn1

>  <subsites>  (223) 
None

>  <rmsd(smina/fragmenstein)>  (223) 
0.916

>  <alias>  (223) 
None

>  <energy_score>  (223) 
-22.049278

>  <HIPPO Pose ID>  (223) 
64884

>  <distance_score>  (223) 
0.655794

>  <HIPPO Compound ID>  (223) 
101665

>  <gnina_score_min>  (223) 
5.091

>  <name>  (223) 
P64884

>  <exports>  (223) 
['/opt/xchem-fragalysis-2/maxwin/BulkDock/OUTPUTS/openbind_d68ev3c_c2_elabs_1LOTQJ3.sdf', '/opt/xchem-fragalysis-2/maxwin/BulkDock/OUTPUTS/openbind_d68ev3c_c2_elabs_1LSYEHW.sdf', '/opt/xchem-fragalysis-2/maxwin/BulkDock/OUTPUTS/openbind_d68ev3c_c2_elabs_1LSYI5W.sdf']

$$$$
P64895
     RDKit          3D

 21 22  0  0  0  0  0  0  0  0999 V2000
    3.3949   -2.4004   34.1274 O   0  0  0  0  0  0  0  0  0  0  0  0
    2.7290   -3.3805   34.4399 C   0  0  0  0  0  0  0  0  0  0  0  0
    2.0039   -3.4562   35.7233 C   0  0  0  0  0  0  0  0  0  0  0  0
    2.4108   -2.6254   36.7739 C   0  0  0  0  0  0  0  0  0  0  0  0
    1.8205   -2.7683   38.0244 C   0  0  0  0  0  0  0  0  0  0  0  0
    2.2048   -1.9664   39.0273 F   0  0  0  0  0  0  0  0  0  0  0  0
    0.8391   -3.7289   38.2351 C   0  0  0  0  0  0  0  0  0  0  0  0
    0.2569   -3.8458   39.4369 F   0  0  0  0  0  0  0  0  0  0  0  0
    0.4354   -4.5639   37.1974 C   0  0  0  0  0  0  0  0  0  0  0  0
    1.0051   -4.4184   35.9276 C   0  0  0  0  0  0  0  0  0  0  0  0
    0.5359   -5.2207   34.8899 N   0  0  0  0  0  0  0  0  0  0  0  0
   -0.0040   -6.6628   34.9065 C   0  0  0  0  0  0  0  0  0  0  0  0
   -0.0700   -7.4333   35.7760 O   0  0  0  0  0  0  0  0  0  0  0  0
   -0.5518   -7.0854   33.5748 C   0  0  0  0  0  0  0  0  0  0  0  0
    0.0752   -6.6623   32.3947 C   0  0  0  0  0  0  0  0  0  0  0  0
   -0.4202   -7.0964   31.1769 C   0  0  0  0  0  0  0  0  0  0  0  0
   -1.4713   -7.9238   31.0565 N   0  0  0  0  0  0  0  0  0  0  0  0
   -2.0261   -8.3537   32.2079 C   0  0  0  0  0  0  0  0  0  0  0  0
   -3.0620   -9.1927   32.0611 F   0  0  0  0  0  0  0  0  0  0  0  0
   -1.6361   -7.9627   33.4759 C   0  0  0  0  0  0  0  0  0  0  0  0
   -2.8187   -8.6675   35.0181 I   0  0  0  0  0  0  0  0  0  0  0  0
  1  2  2  0
  2  3  1  0
  3  4  2  0
  4  5  1  0
  5  6  1  0
  5  7  2  0
  7  8  1  0
  7  9  1  0
  9 10  2  0
 10 11  1  0
 11 12  1  0
 12 13  2  0
 12 14  1  0
 14 15  2  0
 15 16  1  0
 16 17  2  0
 17 18  1  0
 18 19  1  0
 18 20  2  0
 20 21  1  0
 10  3  1  0
 20 14  1  0
M  END
>  <ref_mols>  (224) 
7gov-a

>  <gnina_score>  (224) 
5.195

>  <smina_score_min>  (224) 
-5.277

>  <ref_pdb>  (224) 
7gov-a

>  <inspiration_score>  (224) 
None

>  <inchikey>  (224) 
ZSNGRQPJKBOKAF-UHFFFAOYSA-N

>  <tags>  (224) 
BulkDock Fragalysis export,openbind_d68ev3c_c2_elabs_scored,openbind_d68ev3c_c2_elabs_scored_4.5plus,openbind_d68ev3c_c2_elabs,openbind_d68ev3c_c2_elabs_scored_5plus,syndirella_product,openbind_d68ev3c_c2_elabs_scored_top80percent,syndirella_placed

>  <smiles>  (224) 
O=Cc1cc(F)c(F)cc1NC(=O)c1ccnc(F)c1I

>  <subsites>  (224) 
None

>  <rmsd(smina/fragmenstein)>  (224) 
1.234

>  <alias>  (224) 
None

>  <energy_score>  (224) 
-8.699835

>  <HIPPO Pose ID>  (224) 
64895

>  <distance_score>  (224) 
0.526499

>  <HIPPO Compound ID>  (224) 
101686

>  <gnina_score_min>  (224) 
5.132

>  <name>  (224) 
P64895

>  <exports>  (224) 
['/opt/xchem-fragalysis-2/maxwin/BulkDock/OUTPUTS/openbind_d68ev3c_c2_elabs_1LOTQJ3.sdf', '/opt/xchem-fragalysis-2/maxwin/BulkDock/OUTPUTS/openbind_d68ev3c_c2_elabs_1LSYEHW.sdf', '/opt/xchem-fragalysis-2/maxwin/BulkDock/OUTPUTS/openbind_d68ev3c_c2_elabs_1LSYI5W.sdf']

$$$$
P64897
     RDKit          3D

 21 22  0  0  0  0  0  0  0  0999 V2000
   -0.0883   -6.4433   30.1705 C   0  0  0  0  0  0  0  0  0  0  0  0
   -0.6375   -7.0961   31.4044 C   0  0  0  0  0  0  0  0  0  0  0  0
   -0.1663   -6.6966   32.6523 C   0  0  0  0  0  0  0  0  0  0  0  0
   -0.8031   -7.1443   33.8190 C   0  0  0  0  0  0  0  0  0  0  0  0
   -0.3830   -6.6406   35.1786 C   0  0  0  0  0  0  0  0  0  0  0  0
   -0.5843   -7.3387   36.0898 O   0  0  0  0  0  0  0  0  0  0  0  0
    0.2206   -5.2197   35.1206 N   0  0  0  0  0  0  0  0  0  0  0  0
    0.7689   -4.4300   36.1249 C   0  0  0  0  0  0  0  0  0  0  0  0
    0.2343   -4.5297   37.4089 C   0  0  0  0  0  0  0  0  0  0  0  0
    0.7333   -3.7247   38.4164 C   0  0  0  0  0  0  0  0  0  0  0  0
    0.1945   -3.7866   39.6411 F   0  0  0  0  0  0  0  0  0  0  0  0
    1.7787   -2.8451   38.1748 C   0  0  0  0  0  0  0  0  0  0  0  0
    2.3575   -2.7579   36.8964 C   0  0  0  0  0  0  0  0  0  0  0  0
    3.5235   -1.8196   36.7108 C   0  0  0  0  0  0  0  0  0  0  0  0
    3.1341   -0.6763   35.9592 O   0  0  0  0  0  0  0  0  0  0  0  0
    1.8332   -3.5455   35.8429 C   0  0  0  0  0  0  0  0  0  0  0  0
    2.4567   -3.5429   34.4680 C   0  0  0  0  0  0  0  0  0  0  0  0
   -1.8391   -8.0723   33.6761 C   0  0  0  0  0  0  0  0  0  0  0  0
   -2.9589   -8.7301   35.0505 Br  0  0  0  0  0  0  0  0  0  0  0  0
   -2.1834   -8.4776   32.3959 C   0  0  0  0  0  0  0  0  0  0  0  0
   -1.6453   -7.9837   31.2580 N   0  0  0  0  0  0  0  0  0  0  0  0
  1  2  1  0
  2  3  2  0
  3  4  1  0
  4  5  1  0
  5  6  2  0
  5  7  1  0
  7  8  1  0
  8  9  2  0
  9 10  1  0
 10 11  1  0
 10 12  2  0
 12 13  1  0
 13 14  1  0
 14 15  1  0
 13 16  2  0
 16 17  1  0
  4 18  2  0
 18 19  1  0
 18 20  1  0
 20 21  2  0
 21  2  1  0
 16  8  1  0
M  END
>  <ref_mols>  (225) 
7gov-a

>  <gnina_score>  (225) 
5.005

>  <smina_score_min>  (225) 
-5.543

>  <ref_pdb>  (225) 
7gov-a

>  <inspiration_score>  (225) 
None

>  <inchikey>  (225) 
RBHRYBHKHKRZIM-UHFFFAOYSA-N

>  <tags>  (225) 
BulkDock Fragalysis export,openbind_d68ev3c_c2_elabs_scored,openbind_d68ev3c_c2_elabs_scored_4.5plus,openbind_d68ev3c_c2_elabs,openbind_d68ev3c_c2_elabs_scored_5plus,syndirella_product,openbind_d68ev3c_c2_elabs_scored_top80percent,syndirella_placed

>  <smiles>  (225) 
Cc1cc(C(=O)Nc2cc(F)cc(CO)c2C)c(Br)cn1

>  <subsites>  (225) 
None

>  <rmsd(smina/fragmenstein)>  (225) 
0.98

>  <alias>  (225) 
None

>  <energy_score>  (225) 
-21.516286

>  <HIPPO Pose ID>  (225) 
64897

>  <distance_score>  (225) 
0.600233

>  <HIPPO Compound ID>  (225) 
101689

>  <gnina_score_min>  (225) 
5.046

>  <name>  (225) 
P64897

>  <exports>  (225) 
['/opt/xchem-fragalysis-2/maxwin/BulkDock/OUTPUTS/openbind_d68ev3c_c2_elabs_1LOTQJ3.sdf', '/opt/xchem-fragalysis-2/maxwin/BulkDock/OUTPUTS/openbind_d68ev3c_c2_elabs_1LSYEHW.sdf', '/opt/xchem-fragalysis-2/maxwin/BulkDock/OUTPUTS/openbind_d68ev3c_c2_elabs_1LSYI5W.sdf']

$$$$
P64898
     RDKit          3D

 21 23  0  0  0  0  0  0  0  0999 V2000
   -0.0757   -6.4317   30.2117 C   0  0  0  0  0  0  0  0  0  0  0  0
   -0.6336   -7.0915   31.4379 C   0  0  0  0  0  0  0  0  0  0  0  0
   -0.1815   -6.6885   32.6916 C   0  0  0  0  0  0  0  0  0  0  0  0
   -0.8322   -7.1381   33.8502 C   0  0  0  0  0  0  0  0  0  0  0  0
   -0.4358   -6.6155   35.2106 C   0  0  0  0  0  0  0  0  0  0  0  0
   -0.6641   -7.2897   36.1334 O   0  0  0  0  0  0  0  0  0  0  0  0
    0.1792   -5.2008   35.1326 N   0  0  0  0  0  0  0  0  0  0  0  0
    0.7087   -4.3903   36.1300 C   0  0  0  0  0  0  0  0  0  0  0  0
    0.2550   -4.5393   37.4418 C   0  0  0  0  0  0  0  0  0  0  0  0
    0.7621   -3.7168   38.4345 C   0  0  0  0  0  0  0  0  0  0  0  0
    0.2942   -3.8256   39.6848 F   0  0  0  0  0  0  0  0  0  0  0  0
    1.7390   -2.7759   38.1495 C   0  0  0  0  0  0  0  0  0  0  0  0
    2.2042   -2.6442   36.8395 C   0  0  0  0  0  0  0  0  0  0  0  0
    1.6864   -3.4281   35.7902 C   0  0  0  0  0  0  0  0  0  0  0  0
    2.2550   -3.3067   34.3876 C   0  0  0  0  0  0  0  0  0  0  0  0
    1.3903   -2.7816   33.2617 C   0  0  0  0  0  0  0  0  0  0  0  0
    2.5221   -1.9488   33.7769 C   0  0  0  0  0  0  0  0  0  0  0  0
   -1.8558   -8.0769   33.6954 C   0  0  0  0  0  0  0  0  0  0  0  0
   -2.9850   -8.7444   35.0568 Br  0  0  0  0  0  0  0  0  0  0  0  0
   -2.1800   -8.4859   32.4105 C   0  0  0  0  0  0  0  0  0  0  0  0
   -1.6332   -7.9868   31.2788 N   0  0  0  0  0  0  0  0  0  0  0  0
  1  2  1  0
  2  3  2  0
  3  4  1  0
  4  5  1  0
  5  6  2  0
  5  7  1  0
  7  8  1  0
  8  9  2  0
  9 10  1  0
 10 11  1  0
 10 12  2  0
 12 13  1  0
 13 14  2  0
 14 15  1  0
 15 16  1  0
 16 17  1  0
  4 18  2  0
 18 19  1  0
 18 20  1  0
 20 21  2  0
 21  2  1  0
 14  8  1  0
 17 15  1  0
M  END
>  <ref_mols>  (226) 
7gov-a

>  <gnina_score>  (226) 
5.249

>  <smina_score_min>  (226) 
-5.689

>  <ref_pdb>  (226) 
7gov-a

>  <inspiration_score>  (226) 
None

>  <inchikey>  (226) 
FEIHKFLRGNMOBQ-UHFFFAOYSA-N

>  <tags>  (226) 
BulkDock Fragalysis export,openbind_d68ev3c_c2_elabs_scored,openbind_d68ev3c_c2_elabs_scored_4.5plus,openbind_d68ev3c_c2_elabs,openbind_d68ev3c_c2_elabs_scored_5plus,syndirella_product,openbind_d68ev3c_c2_elabs_scored_top80percent,syndirella_placed

>  <smiles>  (226) 
Cc1cc(C(=O)Nc2cc(F)ccc2C2CC2)c(Br)cn1

>  <subsites>  (226) 
None

>  <rmsd(smina/fragmenstein)>  (226) 
0.986

>  <alias>  (226) 
None

>  <energy_score>  (226) 
-21.96424

>  <HIPPO Pose ID>  (226) 
64898

>  <distance_score>  (226) 
0.671713

>  <HIPPO Compound ID>  (226) 
101690

>  <gnina_score_min>  (226) 
5.259

>  <name>  (226) 
P64898

>  <exports>  (226) 
['/opt/xchem-fragalysis-2/maxwin/BulkDock/OUTPUTS/openbind_d68ev3c_c2_elabs_1LOTQJ3.sdf', '/opt/xchem-fragalysis-2/maxwin/BulkDock/OUTPUTS/openbind_d68ev3c_c2_elabs_1LSYEHW.sdf', '/opt/xchem-fragalysis-2/maxwin/BulkDock/OUTPUTS/openbind_d68ev3c_c2_elabs_1LSYI5W.sdf']

$$$$
P64899
     RDKit          3D

 21 22  0  0  0  0  0  0  0  0999 V2000
   -0.0841   -6.4349   30.1839 C   0  0  0  0  0  0  0  0  0  0  0  0
   -0.6359   -7.0891   31.4166 C   0  0  0  0  0  0  0  0  0  0  0  0
   -0.1806   -6.6706   32.6663 C   0  0  0  0  0  0  0  0  0  0  0  0
   -0.8143   -7.1122   33.8383 C   0  0  0  0  0  0  0  0  0  0  0  0
   -0.4321   -6.5761   35.2090 C   0  0  0  0  0  0  0  0  0  0  0  0
   -0.7770   -7.2025   36.1295 O   0  0  0  0  0  0  0  0  0  0  0  0
    0.3097   -5.2227   35.1410 N   0  0  0  0  0  0  0  0  0  0  0  0
    0.8447   -4.4351   36.1525 C   0  0  0  0  0  0  0  0  0  0  0  0
    0.3035   -4.5044   37.4375 C   0  0  0  0  0  0  0  0  0  0  0  0
    0.8225   -3.6986   38.4446 C   0  0  0  0  0  0  0  0  0  0  0  0
    0.2761   -3.7418   39.6662 F   0  0  0  0  0  0  0  0  0  0  0  0
    1.8867   -2.8408   38.2029 C   0  0  0  0  0  0  0  0  0  0  0  0
    2.4324   -2.7876   36.9253 C   0  0  0  0  0  0  0  0  0  0  0  0
    3.4548   -1.9490   36.6978 F   0  0  0  0  0  0  0  0  0  0  0  0
    1.9130   -3.5660   35.8918 C   0  0  0  0  0  0  0  0  0  0  0  0
    2.5486   -3.4715   34.5629 C   0  0  0  0  0  0  0  0  0  0  0  0
    2.0277   -3.9429   33.5555 O   0  0  0  0  0  0  0  0  0  0  0  0
   -1.8362   -8.0601   33.6871 C   0  0  0  0  0  0  0  0  0  0  0  0
   -2.9681   -8.7427   35.0434 Br  0  0  0  0  0  0  0  0  0  0  0  0
   -2.1643   -8.4830   32.4056 C   0  0  0  0  0  0  0  0  0  0  0  0
   -1.6277   -7.9932   31.2672 N   0  0  0  0  0  0  0  0  0  0  0  0
  1  2  1  0
  2  3  2  0
  3  4  1  0
  4  5  1  0
  5  6  2  0
  5  7  1  0
  7  8  1  0
  8  9  2  0
  9 10  1  0
 10 11  1  0
 10 12  2  0
 12 13  1  0
 13 14  1  0
 13 15  2  0
 15 16  1  0
 16 17  2  0
  4 18  2  0
 18 19  1  0
 18 20  1  0
 20 21  2  0
 21  2  1  0
 15  8  1  0
M  END
>  <ref_mols>  (227) 
7gov-a

>  <gnina_score>  (227) 
5.145

>  <smina_score_min>  (227) 
-5.682

>  <ref_pdb>  (227) 
7gov-a

>  <inspiration_score>  (227) 
None

>  <inchikey>  (227) 
LTTORYGILZKOOM-UHFFFAOYSA-N

>  <tags>  (227) 
BulkDock Fragalysis export,openbind_d68ev3c_c2_elabs_scored,openbind_d68ev3c_c2_elabs_scored_4.5plus,openbind_d68ev3c_c2_elabs,openbind_d68ev3c_c2_elabs_scored_5plus,syndirella_product,openbind_d68ev3c_c2_elabs_scored_top80percent,syndirella_placed

>  <smiles>  (227) 
Cc1cc(C(=O)Nc2cc(F)cc(F)c2C=O)c(Br)cn1

>  <subsites>  (227) 
None

>  <rmsd(smina/fragmenstein)>  (227) 
0.955

>  <alias>  (227) 
None

>  <energy_score>  (227) 
-21.429669

>  <HIPPO Pose ID>  (227) 
64899

>  <distance_score>  (227) 
0.644137

>  <HIPPO Compound ID>  (227) 
101694

>  <gnina_score_min>  (227) 
5.095

>  <name>  (227) 
P64899

>  <exports>  (227) 
['/opt/xchem-fragalysis-2/maxwin/BulkDock/OUTPUTS/openbind_d68ev3c_c2_elabs_1LOTQJ3.sdf', '/opt/xchem-fragalysis-2/maxwin/BulkDock/OUTPUTS/openbind_d68ev3c_c2_elabs_1LSYEHW.sdf', '/opt/xchem-fragalysis-2/maxwin/BulkDock/OUTPUTS/openbind_d68ev3c_c2_elabs_1LSYI5W.sdf']

$$$$
P64902
     RDKit          3D

 21 22  0  0  0  0  0  0  0  0999 V2000
    3.3972   -1.2770   39.0622 C   0  0  0  0  0  0  0  0  0  0  0  0
    2.2186   -2.0487   39.2430 O   0  0  0  0  0  0  0  0  0  0  0  0
    1.8037   -2.8044   38.1785 C   0  0  0  0  0  0  0  0  0  0  0  0
    2.3226   -2.7347   36.8818 C   0  0  0  0  0  0  0  0  0  0  0  0
    1.8088   -3.5464   35.8525 C   0  0  0  0  0  0  0  0  0  0  0  0
    2.4536   -3.5092   34.4937 C   0  0  0  0  0  0  0  0  0  0  0  0
    0.7687   -4.4414   36.1488 C   0  0  0  0  0  0  0  0  0  0  0  0
    0.2271   -5.2363   35.1479 N   0  0  0  0  0  0  0  0  0  0  0  0
   -0.4464   -6.6249   35.2235 C   0  0  0  0  0  0  0  0  0  0  0  0
   -0.7196   -7.2822   36.1462 O   0  0  0  0  0  0  0  0  0  0  0  0
   -0.8402   -7.1473   33.8589 C   0  0  0  0  0  0  0  0  0  0  0  0
   -0.1879   -6.7026   32.6986 C   0  0  0  0  0  0  0  0  0  0  0  0
   -0.6405   -7.1049   31.4442 C   0  0  0  0  0  0  0  0  0  0  0  0
   -0.0816   -6.4465   30.2176 C   0  0  0  0  0  0  0  0  0  0  0  0
   -1.6414   -7.9975   31.2846 N   0  0  0  0  0  0  0  0  0  0  0  0
   -2.1903   -8.4938   32.4162 C   0  0  0  0  0  0  0  0  0  0  0  0
   -1.8668   -8.0841   33.7016 C   0  0  0  0  0  0  0  0  0  0  0  0
   -3.0025   -8.7531   35.0580 Br  0  0  0  0  0  0  0  0  0  0  0  0
    0.2601   -4.5304   37.4422 C   0  0  0  0  0  0  0  0  0  0  0  0
    0.7671   -3.7033   38.4369 C   0  0  0  0  0  0  0  0  0  0  0  0
    0.2290   -3.7772   39.6644 F   0  0  0  0  0  0  0  0  0  0  0  0
  1  2  1  0
  2  3  1  0
  3  4  2  0
  4  5  1  0
  5  6  1  0
  5  7  2  0
  7  8  1  0
  8  9  1  0
  9 10  2  0
  9 11  1  0
 11 12  2  0
 12 13  1  0
 13 14  1  0
 13 15  2  0
 15 16  1  0
 16 17  2  0
 17 18  1  0
  7 19  1  0
 19 20  2  0
 20 21  1  0
 20  3  1  0
 17 11  1  0
M  END
>  <ref_mols>  (228) 
7gov-a

>  <gnina_score>  (228) 
5.049

>  <smina_score_min>  (228) 
-5.615

>  <ref_pdb>  (228) 
7gov-a

>  <inspiration_score>  (228) 
None

>  <inchikey>  (228) 
OCXVPUNXUMLRFL-UHFFFAOYSA-N

>  <tags>  (228) 
BulkDock Fragalysis export,openbind_d68ev3c_c2_elabs_scored,openbind_d68ev3c_c2_elabs_scored_4.5plus,openbind_d68ev3c_c2_elabs,openbind_d68ev3c_c2_elabs_scored_5plus,syndirella_product,openbind_d68ev3c_c2_elabs_scored_top80percent,syndirella_placed

>  <smiles>  (228) 
COc1cc(C)c(NC(=O)c2cc(C)ncc2Br)cc1F

>  <subsites>  (228) 
None

>  <rmsd(smina/fragmenstein)>  (228) 
1.079

>  <alias>  (228) 
None

>  <energy_score>  (228) 
-58.412154

>  <HIPPO Pose ID>  (228) 
64902

>  <distance_score>  (228) 
0.644115

>  <HIPPO Compound ID>  (228) 
101699

>  <gnina_score_min>  (228) 
5.01

>  <name>  (228) 
P64902

>  <exports>  (228) 
['/opt/xchem-fragalysis-2/maxwin/BulkDock/OUTPUTS/openbind_d68ev3c_c2_elabs_1LOTQJ3.sdf', '/opt/xchem-fragalysis-2/maxwin/BulkDock/OUTPUTS/openbind_d68ev3c_c2_elabs_1LSYEHW.sdf', '/opt/xchem-fragalysis-2/maxwin/BulkDock/OUTPUTS/openbind_d68ev3c_c2_elabs_1LSYI5W.sdf']

$$$$
P64906
     RDKit          3D

 21 22  0  0  0  0  0  0  0  0999 V2000
    2.7394   -4.0115   33.9459 O   0  0  0  0  0  0  0  0  0  0  0  0
    3.1546   -3.5099   34.9861 C   0  0  0  0  0  0  0  0  0  0  0  0
    2.3561   -3.4882   36.2368 C   0  0  0  0  0  0  0  0  0  0  0  0
    2.8239   -2.7264   37.3102 C   0  0  0  0  0  0  0  0  0  0  0  0
    2.1060   -2.7194   38.5074 C   0  0  0  0  0  0  0  0  0  0  0  0
    2.7014   -1.8003   39.8372 Cl  0  0  0  0  0  0  0  0  0  0  0  0
    0.9238   -3.4494   38.6235 C   0  0  0  0  0  0  0  0  0  0  0  0
    0.2206   -3.4438   39.7647 F   0  0  0  0  0  0  0  0  0  0  0  0
    0.4463   -4.1977   37.5574 C   0  0  0  0  0  0  0  0  0  0  0  0
    1.1695   -4.2268   36.3662 C   0  0  0  0  0  0  0  0  0  0  0  0
    0.7145   -4.9704   35.2915 N   0  0  0  0  0  0  0  0  0  0  0  0
   -0.4142   -6.0086   35.2022 C   0  0  0  0  0  0  0  0  0  0  0  0
   -1.1929   -6.3494   36.0003 O   0  0  0  0  0  0  0  0  0  0  0  0
   -0.5503   -6.5679   33.8272 C   0  0  0  0  0  0  0  0  0  0  0  0
   -0.0993   -5.9329   32.6685 C   0  0  0  0  0  0  0  0  0  0  0  0
   -0.4372   -6.4919   31.4513 C   0  0  0  0  0  0  0  0  0  0  0  0
    0.0292   -5.7211   29.9953 Cl  0  0  0  0  0  0  0  0  0  0  0  0
   -1.2190   -7.5716   31.2998 N   0  0  0  0  0  0  0  0  0  0  0  0
   -1.6017   -8.1494   32.4480 C   0  0  0  0  0  0  0  0  0  0  0  0
   -2.6387   -9.4561   32.2414 Cl  0  0  0  0  0  0  0  0  0  0  0  0
   -1.2981   -7.7287   33.7162 C   0  0  0  0  0  0  0  0  0  0  0  0
  1  2  2  0
  2  3  1  0
  3  4  2  0
  4  5  1  0
  5  6  1  0
  5  7  2  0
  7  8  1  0
  7  9  1  0
  9 10  2  0
 10 11  1  0
 11 12  1  0
 12 13  2  0
 12 14  1  0
 14 15  2  0
 15 16  1  0
 16 17  1  0
 16 18  2  0
 18 19  1  0
 19 20  1  0
 19 21  2  0
 10  3  1  0
 21 14  1  0
M  END
>  <ref_mols>  (229) 
7gov-a

>  <gnina_score>  (229) 
5.099

>  <smina_score_min>  (229) 
-5.397

>  <ref_pdb>  (229) 
7gov-a

>  <inspiration_score>  (229) 
None

>  <inchikey>  (229) 
GHPANDDEGOSNGE-UHFFFAOYSA-N

>  <tags>  (229) 
BulkDock Fragalysis export,openbind_d68ev3c_c2_elabs_scored,openbind_d68ev3c_c2_elabs_scored_4.5plus,openbind_d68ev3c_c2_elabs,openbind_d68ev3c_c2_elabs_scored_5plus,syndirella_product,openbind_d68ev3c_c2_elabs_scored_top80percent,syndirella_placed

>  <smiles>  (229) 
O=Cc1cc(Cl)c(F)cc1NC(=O)c1cc(Cl)nc(Cl)c1

>  <subsites>  (229) 
None

>  <rmsd(smina/fragmenstein)>  (229) 
1.198

>  <alias>  (229) 
None

>  <energy_score>  (229) 
-24.430368

>  <HIPPO Pose ID>  (229) 
64906

>  <distance_score>  (229) 
0.938765

>  <HIPPO Compound ID>  (229) 
101705

>  <gnina_score_min>  (229) 
5.029

>  <name>  (229) 
P64906

>  <exports>  (229) 
['/opt/xchem-fragalysis-2/maxwin/BulkDock/OUTPUTS/openbind_d68ev3c_c2_elabs_1LOTQJ3.sdf', '/opt/xchem-fragalysis-2/maxwin/BulkDock/OUTPUTS/openbind_d68ev3c_c2_elabs_1LSYEHW.sdf', '/opt/xchem-fragalysis-2/maxwin/BulkDock/OUTPUTS/openbind_d68ev3c_c2_elabs_1LSYI5W.sdf']

$$$$
P64909
     RDKit          3D

 21 23  0  0  0  0  0  0  0  0999 V2000
    0.7981   -7.7003   35.1647 O   0  0  0  0  0  0  0  0  0  0  0  0
    0.1859   -6.8029   34.7546 C   0  0  0  0  0  0  0  0  0  0  0  0
   -0.1387   -5.4515   35.3901 N   0  0  0  0  0  0  0  0  0  0  0  0
    0.1222   -4.9807   36.6215 N   0  0  0  0  0  0  0  0  0  0  0  0
   -0.9668   -4.7755   37.5635 C   0  0  0  0  0  0  0  0  0  0  0  0
   -0.4008   -3.9545   38.7231 C   0  0  0  0  0  0  0  0  0  0  0  0
    0.7696   -3.3103   38.0535 C   0  0  0  0  0  0  0  0  0  0  0  0
    1.5512   -2.3025   38.5731 C   0  0  0  0  0  0  0  0  0  0  0  0
    2.6397   -1.9103   37.8115 C   0  0  0  0  0  0  0  0  0  0  0  0
    2.9142   -2.5344   36.5868 C   0  0  0  0  0  0  0  0  0  0  0  0
    3.9785   -2.1243   35.8807 F   0  0  0  0  0  0  0  0  0  0  0  0
    2.1189   -3.5566   36.0794 C   0  0  0  0  0  0  0  0  0  0  0  0
    1.0333   -3.9406   36.8290 C   0  0  0  0  0  0  0  0  0  0  0  0
   -0.4781   -6.9968   33.4609 C   0  0  0  0  0  0  0  0  0  0  0  0
    0.1145   -6.4950   32.3056 C   0  0  0  0  0  0  0  0  0  0  0  0
   -0.4196   -6.8877   31.0921 C   0  0  0  0  0  0  0  0  0  0  0  0
   -1.4799   -7.7153   30.9724 N   0  0  0  0  0  0  0  0  0  0  0  0
   -2.0051   -8.1880   32.1231 C   0  0  0  0  0  0  0  0  0  0  0  0
   -3.0502   -9.0171   31.9867 F   0  0  0  0  0  0  0  0  0  0  0  0
   -1.5678   -7.8539   33.3828 C   0  0  0  0  0  0  0  0  0  0  0  0
   -2.6113   -8.5907   34.9871 I   0  0  0  0  0  0  0  0  0  0  0  0
  1  2  2  0
  2  3  1  0
  3  4  1  0
  4  5  1  0
  5  6  1  0
  6  7  1  0
  7  8  2  0
  8  9  1  0
  9 10  2  0
 10 11  1  0
 10 12  1  0
 12 13  2  0
  2 14  1  0
 14 15  2  0
 15 16  1  0
 16 17  2  0
 17 18  1  0
 18 19  1  0
 18 20  2  0
 20 21  1  0
 13  4  1  0
 20 14  1  0
 13  7  1  0
M  END
>  <ref_mols>  (230) 
7gov-a

>  <gnina_score>  (230) 
5.208

>  <smina_score_min>  (230) 
-4.896

>  <ref_pdb>  (230) 
7gov-a

>  <inspiration_score>  (230) 
None

>  <inchikey>  (230) 
LBQKPIZCPVOZNW-UHFFFAOYSA-N

>  <tags>  (230) 
BulkDock Fragalysis export,openbind_d68ev3c_c2_elabs_scored,openbind_d68ev3c_c2_elabs_scored_4.5plus,openbind_d68ev3c_c2_elabs,openbind_d68ev3c_c2_elabs_scored_5plus,syndirella_product,openbind_d68ev3c_c2_elabs_scored_top80percent,syndirella_placed

>  <smiles>  (230) 
O=C(NN1CCc2ccc(F)cc21)c1ccnc(F)c1I

>  <subsites>  (230) 
None

>  <rmsd(smina/fragmenstein)>  (230) 
0.55

>  <alias>  (230) 
None

>  <energy_score>  (230) 
-7.027496

>  <HIPPO Pose ID>  (230) 
64909

>  <distance_score>  (230) 
1.564627

>  <HIPPO Compound ID>  (230) 
101711

>  <gnina_score_min>  (230) 
5.196

>  <name>  (230) 
P64909

>  <exports>  (230) 
['/opt/xchem-fragalysis-2/maxwin/BulkDock/OUTPUTS/openbind_d68ev3c_c2_elabs_1LOTQJ3.sdf', '/opt/xchem-fragalysis-2/maxwin/BulkDock/OUTPUTS/openbind_d68ev3c_c2_elabs_1LSYEHW.sdf', '/opt/xchem-fragalysis-2/maxwin/BulkDock/OUTPUTS/openbind_d68ev3c_c2_elabs_1LSYI5W.sdf']

$$$$
P64910
     RDKit          3D

 21 22  0  0  0  0  0  0  0  0999 V2000
    3.9529   -5.0947   34.5843 C   0  0  0  0  0  0  0  0  0  0  0  0
    3.0604   -3.8643   34.6194 C   0  0  0  0  0  0  0  0  0  0  0  0
    2.2032   -3.7900   35.8622 C   0  0  0  0  0  0  0  0  0  0  0  0
    2.6388   -2.9552   36.9107 C   0  0  0  0  0  0  0  0  0  0  0  0
    1.9189   -2.8695   38.1018 C   0  0  0  0  0  0  0  0  0  0  0  0
    2.5561   -1.7672   39.4997 Br  0  0  0  0  0  0  0  0  0  0  0  0
    0.7482   -3.5994   38.2516 C   0  0  0  0  0  0  0  0  0  0  0  0
    0.0377   -3.5332   39.3880 F   0  0  0  0  0  0  0  0  0  0  0  0
    0.2903   -4.4179   37.2251 C   0  0  0  0  0  0  0  0  0  0  0  0
    1.0174   -4.5322   36.0346 C   0  0  0  0  0  0  0  0  0  0  0  0
    0.5472   -5.3702   35.0213 N   0  0  0  0  0  0  0  0  0  0  0  0
   -0.7030   -6.2738   34.9667 C   0  0  0  0  0  0  0  0  0  0  0  0
   -1.4960   -6.5199   35.7887 O   0  0  0  0  0  0  0  0  0  0  0  0
   -0.8895   -6.9532   33.6457 C   0  0  0  0  0  0  0  0  0  0  0  0
   -1.4838   -8.2238   33.7423 C   0  0  0  0  0  0  0  0  0  0  0  0
   -1.8247   -8.8945   32.5894 C   0  0  0  0  0  0  0  0  0  0  0  0
   -1.5842   -8.4205   31.3575 N   0  0  0  0  0  0  0  0  0  0  0  0
   -0.9757   -7.2149   31.2812 C   0  0  0  0  0  0  0  0  0  0  0  0
   -0.7867   -6.7539   30.0341 F   0  0  0  0  0  0  0  0  0  0  0  0
   -0.6481   -6.4181   32.3755 C   0  0  0  0  0  0  0  0  0  0  0  0
   -0.0544   -4.4602   31.9493 I   0  0  0  0  0  0  0  0  0  0  0  0
  1  2  1  0
  2  3  1  0
  3  4  2  0
  4  5  1  0
  5  6  1  0
  5  7  2  0
  7  8  1  0
  7  9  1  0
  9 10  2  0
 10 11  1  0
 11 12  1  0
 12 13  2  0
 12 14  1  0
 14 15  2  0
 15 16  1  0
 16 17  2  0
 17 18  1  0
 18 19  1  0
 18 20  2  0
 20 21  1  0
 10  3  1  0
 20 14  1  0
M  END
>  <ref_mols>  (231) 
7gov-a

>  <gnina_score>  (231) 
5.177

>  <smina_score_min>  (231) 
-5.584

>  <ref_pdb>  (231) 
7gov-a

>  <inspiration_score>  (231) 
None

>  <inchikey>  (231) 
YAVNCVDGCJUBCX-UHFFFAOYSA-N

>  <tags>  (231) 
BulkDock Fragalysis export,openbind_d68ev3c_c2_elabs_scored,openbind_d68ev3c_c2_elabs_scored_4.5plus,openbind_d68ev3c_c2_elabs,openbind_d68ev3c_c2_elabs_scored_5plus,syndirella_product,openbind_d68ev3c_c2_elabs_scored_top80percent,syndirella_placed

>  <smiles>  (231) 
CCc1cc(Br)c(F)cc1NC(=O)c1ccnc(F)c1I

>  <subsites>  (231) 
None

>  <rmsd(smina/fragmenstein)>  (231) 
0.506

>  <alias>  (231) 
None

>  <energy_score>  (231) 
-21.516286

>  <HIPPO Pose ID>  (231) 
64910

>  <distance_score>  (231) 
0.752578

>  <HIPPO Compound ID>  (231) 
101712

>  <gnina_score_min>  (231) 
5.076

>  <name>  (231) 
P64910

>  <exports>  (231) 
['/opt/xchem-fragalysis-2/maxwin/BulkDock/OUTPUTS/openbind_d68ev3c_c2_elabs_1LOTQJ3.sdf', '/opt/xchem-fragalysis-2/maxwin/BulkDock/OUTPUTS/openbind_d68ev3c_c2_elabs_1LSYEHW.sdf', '/opt/xchem-fragalysis-2/maxwin/BulkDock/OUTPUTS/openbind_d68ev3c_c2_elabs_1LSYI5W.sdf']

$$$$
P64912
     RDKit          3D

 21 22  0  0  0  0  0  0  0  0999 V2000
    3.8692   -3.3551   33.8764 C   0  0  0  0  0  0  0  0  0  0  0  0
    3.0382   -3.4681   34.7369 C   0  0  0  0  0  0  0  0  0  0  0  0
    2.1259   -3.5271   35.8372 C   0  0  0  0  0  0  0  0  0  0  0  0
    2.5819   -2.8861   37.0065 C   0  0  0  0  0  0  0  0  0  0  0  0
    1.8134   -2.8779   38.1607 C   0  0  0  0  0  0  0  0  0  0  0  0
    2.2790   -2.2763   39.2643 F   0  0  0  0  0  0  0  0  0  0  0  0
    0.5724   -3.4833   38.1640 C   0  0  0  0  0  0  0  0  0  0  0  0
   -0.1729   -3.4940   39.2778 F   0  0  0  0  0  0  0  0  0  0  0  0
    0.0889   -4.0953   37.0120 C   0  0  0  0  0  0  0  0  0  0  0  0
    0.8616   -4.1448   35.8323 C   0  0  0  0  0  0  0  0  0  0  0  0
    0.2620   -4.8965   34.8046 N   0  0  0  0  0  0  0  0  0  0  0  0
    0.8038   -5.3143   33.4190 C   0  0  0  0  0  0  0  0  0  0  0  0
    1.8019   -5.0359   32.8816 O   0  0  0  0  0  0  0  0  0  0  0  0
   -0.1067   -6.2697   32.6902 C   0  0  0  0  0  0  0  0  0  0  0  0
    0.0162   -6.2176   31.2948 C   0  0  0  0  0  0  0  0  0  0  0  0
   -0.7017   -7.0959   30.5113 C   0  0  0  0  0  0  0  0  0  0  0  0
   -1.5685   -7.9931   31.0095 N   0  0  0  0  0  0  0  0  0  0  0  0
   -1.6551   -8.0576   32.3541 C   0  0  0  0  0  0  0  0  0  0  0  0
   -2.5030   -8.9870   32.8247 F   0  0  0  0  0  0  0  0  0  0  0  0
   -0.9518   -7.2417   33.2394 C   0  0  0  0  0  0  0  0  0  0  0  0
   -1.2098   -7.6426   35.2497 I   0  0  0  0  0  0  0  0  0  0  0  0
  1  2  3  0
  2  3  1  0
  3  4  2  0
  4  5  1  0
  5  6  1  0
  5  7  2  0
  7  8  1  0
  7  9  1  0
  9 10  2  0
 10 11  1  0
 11 12  1  0
 12 13  2  0
 12 14  1  0
 14 15  2  0
 15 16  1  0
 16 17  2  0
 17 18  1  0
 18 19  1  0
 18 20  2  0
 20 21  1  0
 10  3  1  0
 20 14  1  0
M  END
>  <ref_mols>  (232) 
7gov-a

>  <gnina_score>  (232) 
5.254

>  <smina_score_min>  (232) 
-4.967

>  <ref_pdb>  (232) 
7gov-a

>  <inspiration_score>  (232) 
None

>  <inchikey>  (232) 
GUULBXXBOONFQK-UHFFFAOYSA-N

>  <tags>  (232) 
BulkDock Fragalysis export,openbind_d68ev3c_c2_elabs_scored,openbind_d68ev3c_c2_elabs_scored_4.5plus,openbind_d68ev3c_c2_elabs,openbind_d68ev3c_c2_elabs_scored_5plus,syndirella_product,openbind_d68ev3c_c2_elabs_scored_top80percent,syndirella_placed

>  <smiles>  (232) 
C#Cc1cc(F)c(F)cc1NC(=O)c1ccnc(F)c1I

>  <subsites>  (232) 
None

>  <rmsd(smina/fragmenstein)>  (232) 
1.677

>  <alias>  (232) 
None

>  <energy_score>  (232) 
-7.972478

>  <HIPPO Pose ID>  (232) 
64912

>  <distance_score>  (232) 
1.162487

>  <HIPPO Compound ID>  (232) 
101714

>  <gnina_score_min>  (232) 
5.283

>  <name>  (232) 
P64912

>  <exports>  (232) 
['/opt/xchem-fragalysis-2/maxwin/BulkDock/OUTPUTS/openbind_d68ev3c_c2_elabs_1LOTQJ3.sdf', '/opt/xchem-fragalysis-2/maxwin/BulkDock/OUTPUTS/openbind_d68ev3c_c2_elabs_1LSYEHW.sdf', '/opt/xchem-fragalysis-2/maxwin/BulkDock/OUTPUTS/openbind_d68ev3c_c2_elabs_1LSYI5W.sdf']

$$$$
P64913
     RDKit          3D

 21 22  0  0  0  0  0  0  0  0999 V2000
    1.0034   -7.3148   35.0969 O   0  0  0  0  0  0  0  0  0  0  0  0
    0.2251   -6.5663   34.6617 C   0  0  0  0  0  0  0  0  0  0  0  0
   -0.1451   -5.1428   35.1068 N   0  0  0  0  0  0  0  0  0  0  0  0
    0.4087   -4.3333   36.0852 C   0  0  0  0  0  0  0  0  0  0  0  0
   -0.3872   -3.9684   37.1669 C   0  0  0  0  0  0  0  0  0  0  0  0
    0.1955   -3.2997   38.2369 C   0  0  0  0  0  0  0  0  0  0  0  0
   -0.5291   -3.0582   39.3358 F   0  0  0  0  0  0  0  0  0  0  0  0
    1.5270   -2.9109   38.2094 C   0  0  0  0  0  0  0  0  0  0  0  0
    2.3067   -3.2300   37.1018 C   0  0  0  0  0  0  0  0  0  0  0  0
    1.7689   -3.9716   36.0353 C   0  0  0  0  0  0  0  0  0  0  0  0
    2.6770   -4.3602   34.8913 C   0  0  0  0  0  0  0  0  0  0  0  0
    3.7879   -3.5668   34.7981 F   0  0  0  0  0  0  0  0  0  0  0  0
    2.0748   -4.2416   33.6685 F   0  0  0  0  0  0  0  0  0  0  0  0
   -0.4851   -6.9512   33.4251 C   0  0  0  0  0  0  0  0  0  0  0  0
    0.0593   -6.5006   32.2204 C   0  0  0  0  0  0  0  0  0  0  0  0
   -0.4816   -6.9752   31.0415 C   0  0  0  0  0  0  0  0  0  0  0  0
   -1.5125   -7.8413   30.9949 N   0  0  0  0  0  0  0  0  0  0  0  0
   -1.9931   -8.2674   32.1828 C   0  0  0  0  0  0  0  0  0  0  0  0
   -3.0162   -9.1326   32.1113 F   0  0  0  0  0  0  0  0  0  0  0  0
   -1.5373   -7.8496   33.4162 C   0  0  0  0  0  0  0  0  0  0  0  0
   -2.5137   -8.5139   35.0689 I   0  0  0  0  0  0  0  0  0  0  0  0
  1  2  2  0
  2  3  1  0
  3  4  1  0
  4  5  2  0
  5  6  1  0
  6  7  1  0
  6  8  2  0
  8  9  1  0
  9 10  2  0
 10 11  1  0
 11 12  1  0
 11 13  1  0
  2 14  1  0
 14 15  2  0
 15 16  1  0
 16 17  2  0
 17 18  1  0
 18 19  1  0
 18 20  2  0
 20 21  1  0
 10  4  1  0
 20 14  1  0
M  END
>  <ref_mols>  (233) 
7gov-a

>  <gnina_score>  (233) 
5.14

>  <smina_score_min>  (233) 
-5.153

>  <ref_pdb>  (233) 
7gov-a

>  <inspiration_score>  (233) 
None

>  <inchikey>  (233) 
RPQIPURSZHFEJG-UHFFFAOYSA-N

>  <tags>  (233) 
BulkDock Fragalysis export,openbind_d68ev3c_c2_elabs_scored,openbind_d68ev3c_c2_elabs_scored_4.5plus,openbind_d68ev3c_c2_elabs,openbind_d68ev3c_c2_elabs_scored_5plus,syndirella_product,openbind_d68ev3c_c2_elabs_scored_top80percent,syndirella_placed

>  <smiles>  (233) 
O=C(Nc1cc(F)ccc1C(F)F)c1ccnc(F)c1I

>  <subsites>  (233) 
None

>  <rmsd(smina/fragmenstein)>  (233) 
1.098

>  <alias>  (233) 
None

>  <energy_score>  (233) 
-33.603561

>  <HIPPO Pose ID>  (233) 
64913

>  <distance_score>  (233) 
0.507868

>  <HIPPO Compound ID>  (233) 
101715

>  <gnina_score_min>  (233) 
5.131

>  <name>  (233) 
P64913

>  <exports>  (233) 
['/opt/xchem-fragalysis-2/maxwin/BulkDock/OUTPUTS/openbind_d68ev3c_c2_elabs_1LOTQJ3.sdf', '/opt/xchem-fragalysis-2/maxwin/BulkDock/OUTPUTS/openbind_d68ev3c_c2_elabs_1LSYEHW.sdf', '/opt/xchem-fragalysis-2/maxwin/BulkDock/OUTPUTS/openbind_d68ev3c_c2_elabs_1LSYI5W.sdf']

$$$$
P64914
     RDKit          3D

 21 22  0  0  0  0  0  0  0  0999 V2000
    3.5633   -3.4454   34.4261 O   0  0  0  0  0  0  0  0  0  0  0  0
    2.6747   -4.2121   34.7833 C   0  0  0  0  0  0  0  0  0  0  0  0
    1.8410   -3.9319   35.9717 C   0  0  0  0  0  0  0  0  0  0  0  0
    2.4032   -3.1647   36.9993 C   0  0  0  0  0  0  0  0  0  0  0  0
    1.6660   -2.9204   38.1543 C   0  0  0  0  0  0  0  0  0  0  0  0
    2.4573   -1.9649   39.5811 Br  0  0  0  0  0  0  0  0  0  0  0  0
    0.3587   -3.3931   38.2560 C   0  0  0  0  0  0  0  0  0  0  0  0
   -0.3469   -3.2074   39.3803 F   0  0  0  0  0  0  0  0  0  0  0  0
   -0.2384   -4.0871   37.2061 C   0  0  0  0  0  0  0  0  0  0  0  0
    0.5105   -4.3781   36.0689 C   0  0  0  0  0  0  0  0  0  0  0  0
   -0.0729   -5.1685   35.0894 N   0  0  0  0  0  0  0  0  0  0  0  0
    0.2107   -6.6214   34.6799 C   0  0  0  0  0  0  0  0  0  0  0  0
    0.9247   -7.4114   35.1485 O   0  0  0  0  0  0  0  0  0  0  0  0
   -0.4926   -6.9813   33.4324 C   0  0  0  0  0  0  0  0  0  0  0  0
    0.0602   -6.5249   32.2335 C   0  0  0  0  0  0  0  0  0  0  0  0
   -0.4817   -6.9869   31.0499 C   0  0  0  0  0  0  0  0  0  0  0  0
   -1.5198   -7.8435   30.9952 N   0  0  0  0  0  0  0  0  0  0  0  0
   -2.0079   -8.2761   32.1776 C   0  0  0  0  0  0  0  0  0  0  0  0
   -3.0384   -9.1311   32.0970 F   0  0  0  0  0  0  0  0  0  0  0  0
   -1.5530   -7.8713   33.4145 C   0  0  0  0  0  0  0  0  0  0  0  0
   -2.5472   -8.5359   35.0599 I   0  0  0  0  0  0  0  0  0  0  0  0
  1  2  2  0
  2  3  1  0
  3  4  2  0
  4  5  1  0
  5  6  1  0
  5  7  2  0
  7  8  1  0
  7  9  1  0
  9 10  2  0
 10 11  1  0
 11 12  1  0
 12 13  2  0
 12 14  1  0
 14 15  2  0
 15 16  1  0
 16 17  2  0
 17 18  1  0
 18 19  1  0
 18 20  2  0
 20 21  1  0
 10  3  1  0
 20 14  1  0
M  END
>  <ref_mols>  (234) 
7gov-a

>  <gnina_score>  (234) 
5.262

>  <smina_score_min>  (234) 
-5.154

>  <ref_pdb>  (234) 
7gov-a

>  <inspiration_score>  (234) 
None

>  <inchikey>  (234) 
XIZPDSCBBPZDHJ-UHFFFAOYSA-N

>  <tags>  (234) 
BulkDock Fragalysis export,openbind_d68ev3c_c2_elabs_scored,openbind_d68ev3c_c2_elabs_scored_4.5plus,openbind_d68ev3c_c2_elabs,openbind_d68ev3c_c2_elabs_scored_5plus,syndirella_product,openbind_d68ev3c_c2_elabs_scored_top80percent,syndirella_placed

>  <smiles>  (234) 
O=Cc1cc(Br)c(F)cc1NC(=O)c1ccnc(F)c1I

>  <subsites>  (234) 
None

>  <rmsd(smina/fragmenstein)>  (234) 
1.161

>  <alias>  (234) 
None

>  <energy_score>  (234) 
-0.554189

>  <HIPPO Pose ID>  (234) 
64914

>  <distance_score>  (234) 
0.430023

>  <HIPPO Compound ID>  (234) 
101718

>  <gnina_score_min>  (234) 
5.185

>  <name>  (234) 
P64914

>  <exports>  (234) 
['/opt/xchem-fragalysis-2/maxwin/BulkDock/OUTPUTS/openbind_d68ev3c_c2_elabs_1LOTQJ3.sdf', '/opt/xchem-fragalysis-2/maxwin/BulkDock/OUTPUTS/openbind_d68ev3c_c2_elabs_1LSYEHW.sdf', '/opt/xchem-fragalysis-2/maxwin/BulkDock/OUTPUTS/openbind_d68ev3c_c2_elabs_1LSYI5W.sdf']

$$$$
P64915
     RDKit          3D

 21 22  0  0  0  0  0  0  0  0999 V2000
   -0.0912   -6.4261   30.1100 C   0  0  0  0  0  0  0  0  0  0  0  0
   -0.6275   -7.0694   31.3546 C   0  0  0  0  0  0  0  0  0  0  0  0
   -0.1303   -6.6744   32.5936 C   0  0  0  0  0  0  0  0  0  0  0  0
   -0.7444   -7.1264   33.7696 C   0  0  0  0  0  0  0  0  0  0  0  0
   -0.2765   -6.6504   35.1209 C   0  0  0  0  0  0  0  0  0  0  0  0
   -0.4298   -7.3754   36.0196 O   0  0  0  0  0  0  0  0  0  0  0  0
    0.3013   -5.2187   35.0777 N   0  0  0  0  0  0  0  0  0  0  0  0
    0.8778   -4.4452   36.0827 C   0  0  0  0  0  0  0  0  0  0  0  0
    0.3371   -4.5346   37.3685 C   0  0  0  0  0  0  0  0  0  0  0  0
    0.8262   -3.7199   38.3853 C   0  0  0  0  0  0  0  0  0  0  0  0
    0.2594   -3.7985   39.5984 F   0  0  0  0  0  0  0  0  0  0  0  0
    1.8675   -2.8274   38.1422 C   0  0  0  0  0  0  0  0  0  0  0  0
    2.4785   -1.8282   39.4044 Cl  0  0  0  0  0  0  0  0  0  0  0  0
    2.4262   -2.7419   36.8679 C   0  0  0  0  0  0  0  0  0  0  0  0
    1.9347   -3.5563   35.8387 C   0  0  0  0  0  0  0  0  0  0  0  0
    2.6334   -3.5330   34.5377 C   0  0  0  0  0  0  0  0  0  0  0  0
    3.3132   -2.5770   34.1839 O   0  0  0  0  0  0  0  0  0  0  0  0
   -1.7934   -8.0425   33.6460 C   0  0  0  0  0  0  0  0  0  0  0  0
   -2.8878   -8.6928   35.0426 Br  0  0  0  0  0  0  0  0  0  0  0  0
   -2.1677   -8.4404   32.3729 C   0  0  0  0  0  0  0  0  0  0  0  0
   -1.6451   -7.9490   31.2270 N   0  0  0  0  0  0  0  0  0  0  0  0
  1  2  1  0
  2  3  2  0
  3  4  1  0
  4  5  1  0
  5  6  2  0
  5  7  1  0
  7  8  1  0
  8  9  2  0
  9 10  1  0
 10 11  1  0
 10 12  2  0
 12 13  1  0
 12 14  1  0
 14 15  2  0
 15 16  1  0
 16 17  2  0
  4 18  2  0
 18 19  1  0
 18 20  1  0
 20 21  2  0
 21  2  1  0
 15  8  1  0
M  END
>  <ref_mols>  (235) 
7gov-a

>  <gnina_score>  (235) 
5.217

>  <smina_score_min>  (235) 
-5.561

>  <ref_pdb>  (235) 
7gov-a

>  <inspiration_score>  (235) 
None

>  <inchikey>  (235) 
ICPMJLCHVNLCHX-UHFFFAOYSA-N

>  <tags>  (235) 
BulkDock Fragalysis export,openbind_d68ev3c_c2_elabs_scored,openbind_d68ev3c_c2_elabs_scored_4.5plus,openbind_d68ev3c_c2_elabs,openbind_d68ev3c_c2_elabs_scored_5plus,syndirella_product,openbind_d68ev3c_c2_elabs_scored_top80percent,syndirella_placed

>  <smiles>  (235) 
Cc1cc(C(=O)Nc2cc(F)c(Cl)cc2C=O)c(Br)cn1

>  <subsites>  (235) 
None

>  <rmsd(smina/fragmenstein)>  (235) 
0.992

>  <alias>  (235) 
None

>  <energy_score>  (235) 
-9.257546

>  <HIPPO Pose ID>  (235) 
64915

>  <distance_score>  (235) 
0.557558

>  <HIPPO Compound ID>  (235) 
101719

>  <gnina_score_min>  (235) 
5.205

>  <name>  (235) 
P64915

>  <exports>  (235) 
['/opt/xchem-fragalysis-2/maxwin/BulkDock/OUTPUTS/openbind_d68ev3c_c2_elabs_1LOTQJ3.sdf', '/opt/xchem-fragalysis-2/maxwin/BulkDock/OUTPUTS/openbind_d68ev3c_c2_elabs_1LSYEHW.sdf', '/opt/xchem-fragalysis-2/maxwin/BulkDock/OUTPUTS/openbind_d68ev3c_c2_elabs_1LSYI5W.sdf']

$$$$
P64918
     RDKit          3D

 21 22  0  0  0  0  0  0  0  0999 V2000
    3.5043   -4.6152   34.2943 C   0  0  0  0  0  0  0  0  0  0  0  0
    2.5116   -3.4779   34.4860 C   0  0  0  0  0  0  0  0  0  0  0  0
    1.8307   -3.5373   35.8348 C   0  0  0  0  0  0  0  0  0  0  0  0
    2.3545   -2.7608   36.8849 C   0  0  0  0  0  0  0  0  0  0  0  0
    1.8253   -2.8580   38.1731 C   0  0  0  0  0  0  0  0  0  0  0  0
    2.5531   -1.7988   39.5608 Br  0  0  0  0  0  0  0  0  0  0  0  0
    0.7779   -3.7354   38.4271 C   0  0  0  0  0  0  0  0  0  0  0  0
    0.2376   -3.8259   39.6515 F   0  0  0  0  0  0  0  0  0  0  0  0
    0.2614   -4.5291   37.4115 C   0  0  0  0  0  0  0  0  0  0  0  0
    0.7768   -4.4246   36.1179 C   0  0  0  0  0  0  0  0  0  0  0  0
    0.2219   -5.2113   35.1170 N   0  0  0  0  0  0  0  0  0  0  0  0
   -0.3738   -6.6354   35.1747 C   0  0  0  0  0  0  0  0  0  0  0  0
   -0.5614   -7.3390   36.0846 O   0  0  0  0  0  0  0  0  0  0  0  0
   -0.7983   -7.1373   33.8162 C   0  0  0  0  0  0  0  0  0  0  0  0
   -0.1630   -6.6893   32.6491 C   0  0  0  0  0  0  0  0  0  0  0  0
   -0.6350   -7.0897   31.4019 C   0  0  0  0  0  0  0  0  0  0  0  0
   -0.0862   -6.4382   30.1671 C   0  0  0  0  0  0  0  0  0  0  0  0
   -1.6428   -7.9777   31.2568 N   0  0  0  0  0  0  0  0  0  0  0  0
   -2.1796   -8.4716   32.3953 C   0  0  0  0  0  0  0  0  0  0  0  0
   -1.8337   -8.0660   33.6750 C   0  0  0  0  0  0  0  0  0  0  0  0
   -2.9497   -8.7243   35.0517 Br  0  0  0  0  0  0  0  0  0  0  0  0
  1  2  1  0
  2  3  1  0
  3  4  2  0
  4  5  1  0
  5  6  1  0
  5  7  2  0
  7  8  1  0
  7  9  1  0
  9 10  2  0
 10 11  1  0
 11 12  1  0
 12 13  2  0
 12 14  1  0
 14 15  2  0
 15 16  1  0
 16 17  1  0
 16 18  2  0
 18 19  1  0
 19 20  2  0
 20 21  1  0
 10  3  1  0
 20 14  1  0
M  END
>  <ref_mols>  (236) 
7gov-a

>  <gnina_score>  (236) 
5.263

>  <smina_score_min>  (236) 
-5.421

>  <ref_pdb>  (236) 
7gov-a

>  <inspiration_score>  (236) 
None

>  <inchikey>  (236) 
BNTIOIWNSGHCBA-UHFFFAOYSA-N

>  <tags>  (236) 
BulkDock Fragalysis export,openbind_d68ev3c_c2_elabs_scored,openbind_d68ev3c_c2_elabs_scored_4.5plus,openbind_d68ev3c_c2_elabs,openbind_d68ev3c_c2_elabs_scored_5plus,syndirella_product,openbind_d68ev3c_c2_elabs_scored_top80percent,syndirella_placed

>  <smiles>  (236) 
CCc1cc(Br)c(F)cc1NC(=O)c1cc(C)ncc1Br

>  <subsites>  (236) 
None

>  <rmsd(smina/fragmenstein)>  (236) 
1.206

>  <alias>  (236) 
None

>  <energy_score>  (236) 
-8.892318

>  <HIPPO Pose ID>  (236) 
64918

>  <distance_score>  (236) 
0.599669

>  <HIPPO Compound ID>  (236) 
101723

>  <gnina_score_min>  (236) 
5.223

>  <name>  (236) 
P64918

>  <exports>  (236) 
['/opt/xchem-fragalysis-2/maxwin/BulkDock/OUTPUTS/openbind_d68ev3c_c2_elabs_1LOTQJ3.sdf', '/opt/xchem-fragalysis-2/maxwin/BulkDock/OUTPUTS/openbind_d68ev3c_c2_elabs_1LSYEHW.sdf', '/opt/xchem-fragalysis-2/maxwin/BulkDock/OUTPUTS/openbind_d68ev3c_c2_elabs_1LSYI5W.sdf']

$$$$
P64920
     RDKit          3D

 21 22  0  0  0  0  0  0  0  0999 V2000
   -0.0844   -6.4357   30.1890 C   0  0  0  0  0  0  0  0  0  0  0  0
   -0.6379   -7.0900   31.4209 C   0  0  0  0  0  0  0  0  0  0  0  0
   -0.1851   -6.6714   32.6712 C   0  0  0  0  0  0  0  0  0  0  0  0
   -0.8208   -7.1132   33.8419 C   0  0  0  0  0  0  0  0  0  0  0  0
   -0.4394   -6.5784   35.2127 C   0  0  0  0  0  0  0  0  0  0  0  0
   -0.7750   -7.2111   36.1323 O   0  0  0  0  0  0  0  0  0  0  0  0
    0.2946   -5.2206   35.1465 N   0  0  0  0  0  0  0  0  0  0  0  0
    0.8314   -4.4355   36.1579 C   0  0  0  0  0  0  0  0  0  0  0  0
    0.2923   -4.5095   37.4440 C   0  0  0  0  0  0  0  0  0  0  0  0
    0.8205   -3.7132   38.4524 C   0  0  0  0  0  0  0  0  0  0  0  0
    0.2758   -3.7575   39.6756 F   0  0  0  0  0  0  0  0  0  0  0  0
    1.8940   -2.8679   38.1950 C   0  0  0  0  0  0  0  0  0  0  0  0
    2.4009   -2.1050   39.1740 F   0  0  0  0  0  0  0  0  0  0  0  0
    2.4490   -2.7911   36.9215 C   0  0  0  0  0  0  0  0  0  0  0  0
    1.9069   -3.5693   35.8944 C   0  0  0  0  0  0  0  0  0  0  0  0
    2.5352   -3.4883   34.5556 C   0  0  0  0  0  0  0  0  0  0  0  0
    1.9991   -3.9417   33.5492 O   0  0  0  0  0  0  0  0  0  0  0  0
   -1.8414   -8.0618   33.6894 C   0  0  0  0  0  0  0  0  0  0  0  0
   -2.9741   -8.7443   35.0451 Br  0  0  0  0  0  0  0  0  0  0  0  0
   -2.1672   -8.4849   32.4075 C   0  0  0  0  0  0  0  0  0  0  0  0
   -1.6290   -7.9946   31.2699 N   0  0  0  0  0  0  0  0  0  0  0  0
  1  2  1  0
  2  3  2  0
  3  4  1  0
  4  5  1  0
  5  6  2  0
  5  7  1  0
  7  8  1  0
  8  9  2  0
  9 10  1  0
 10 11  1  0
 10 12  2  0
 12 13  1  0
 12 14  1  0
 14 15  2  0
 15 16  1  0
 16 17  2  0
  4 18  2  0
 18 19  1  0
 18 20  1  0
 20 21  2  0
 21  2  1  0
 15  8  1  0
M  END
>  <ref_mols>  (237) 
7gov-a

>  <gnina_score>  (237) 
5.108

>  <smina_score_min>  (237) 
-5.658

>  <ref_pdb>  (237) 
7gov-a

>  <inspiration_score>  (237) 
None

>  <inchikey>  (237) 
RIVKWOLATNLUNS-UHFFFAOYSA-N

>  <tags>  (237) 
BulkDock Fragalysis export,openbind_d68ev3c_c2_elabs_scored,openbind_d68ev3c_c2_elabs_scored_4.5plus,openbind_d68ev3c_c2_elabs,openbind_d68ev3c_c2_elabs_scored_5plus,syndirella_product,openbind_d68ev3c_c2_elabs_scored_top80percent,syndirella_placed

>  <smiles>  (237) 
Cc1cc(C(=O)Nc2cc(F)c(F)cc2C=O)c(Br)cn1

>  <subsites>  (237) 
None

>  <rmsd(smina/fragmenstein)>  (237) 
0.963

>  <alias>  (237) 
None

>  <energy_score>  (237) 
-26.05321

>  <HIPPO Pose ID>  (237) 
64920

>  <distance_score>  (237) 
0.64361

>  <HIPPO Compound ID>  (237) 
101727

>  <gnina_score_min>  (237) 
5.083

>  <name>  (237) 
P64920

>  <exports>  (237) 
['/opt/xchem-fragalysis-2/maxwin/BulkDock/OUTPUTS/openbind_d68ev3c_c2_elabs_1LOTQJ3.sdf', '/opt/xchem-fragalysis-2/maxwin/BulkDock/OUTPUTS/openbind_d68ev3c_c2_elabs_1LSYEHW.sdf', '/opt/xchem-fragalysis-2/maxwin/BulkDock/OUTPUTS/openbind_d68ev3c_c2_elabs_1LSYI5W.sdf']

$$$$
P64926
     RDKit          3D

 21 23  0  0  0  0  0  0  0  0999 V2000
   -3.4418   -9.2315   32.5550 C   0  0  0  0  0  0  0  0  0  0  0  0
   -2.2643   -8.8058   33.8337 S   0  0  0  0  0  0  0  0  0  0  0  0
   -1.2321   -7.7589   32.8512 C   0  0  0  0  0  0  0  0  0  0  0  0
   -0.4202   -6.8927   33.5416 C   0  0  0  0  0  0  0  0  0  0  0  0
    0.3138   -5.9644   32.8121 C   0  0  0  0  0  0  0  0  0  0  0  0
    1.1981   -5.0090   33.5266 C   0  0  0  0  0  0  0  0  0  0  0  0
    2.2512   -4.7661   33.0827 O   0  0  0  0  0  0  0  0  0  0  0  0
    0.5419   -4.5648   34.8627 N   0  0  0  0  0  0  0  0  0  0  0  0
    1.0671   -3.8321   35.9348 C   0  0  0  0  0  0  0  0  0  0  0  0
    0.2652   -3.9172   37.0927 C   0  0  0  0  0  0  0  0  0  0  0  0
    0.6973   -3.3886   38.2983 C   0  0  0  0  0  0  0  0  0  0  0  0
   -0.0640   -3.5224   39.3921 F   0  0  0  0  0  0  0  0  0  0  0  0
    1.9146   -2.7483   38.3839 C   0  0  0  0  0  0  0  0  0  0  0  0
    2.6924   -2.6242   37.2334 C   0  0  0  0  0  0  0  0  0  0  0  0
    2.2894   -3.1334   35.9742 C   0  0  0  0  0  0  0  0  0  0  0  0
    3.1924   -2.8686   34.7905 C   0  0  0  0  0  0  0  0  0  0  0  0
    2.7265   -1.9459   33.6814 C   0  0  0  0  0  0  0  0  0  0  0  0
    3.8228   -1.5005   34.5915 C   0  0  0  0  0  0  0  0  0  0  0  0
    0.2941   -6.0042   31.4254 C   0  0  0  0  0  0  0  0  0  0  0  0
   -0.5158   -6.9463   30.8214 C   0  0  0  0  0  0  0  0  0  0  0  0
   -1.3134   -7.7985   31.5013 N   0  0  0  0  0  0  0  0  0  0  0  0
  1  2  1  0
  2  3  1  0
  3  4  2  0
  4  5  1  0
  5  6  1  0
  6  7  2  0
  6  8  1  0
  8  9  1  0
  9 10  2  0
 10 11  1  0
 11 12  1  0
 11 13  2  0
 13 14  1  0
 14 15  2  0
 15 16  1  0
 16 17  1  0
 17 18  1  0
  5 19  2  0
 19 20  1  0
 20 21  2  0
 21  3  1  0
 15  9  1  0
 18 16  1  0
M  END
>  <ref_mols>  (238) 
7gov-a

>  <gnina_score>  (238) 
4.833

>  <smina_score_min>  (238) 
-4.54

>  <ref_pdb>  (238) 
7gov-a

>  <inspiration_score>  (238) 
None

>  <inchikey>  (238) 
KURGLTVWVMNCPO-UHFFFAOYSA-N

>  <tags>  (238) 
BulkDock Fragalysis export,openbind_d68ev3c_c2_elabs_scored,openbind_d68ev3c_c2_elabs_scored_4.5plus,openbind_d68ev3c_c2_elabs,openbind_d68ev3c_c2_elabs_scored_5plus,syndirella_product,openbind_d68ev3c_c2_elabs_scored_top80percent,syndirella_placed

>  <smiles>  (238) 
CSc1cc(C(=O)Nc2cc(F)ccc2C2CC2)ccn1

>  <subsites>  (238) 
None

>  <rmsd(smina/fragmenstein)>  (238) 
1.788

>  <alias>  (238) 
None

>  <energy_score>  (238) 
-12.813422

>  <HIPPO Pose ID>  (238) 
64926

>  <distance_score>  (238) 
1.36901

>  <HIPPO Compound ID>  (238) 
101743

>  <gnina_score_min>  (238) 
5.066

>  <name>  (238) 
P64926

>  <exports>  (238) 
['/opt/xchem-fragalysis-2/maxwin/BulkDock/OUTPUTS/openbind_d68ev3c_c2_elabs_1LOTQJ3.sdf', '/opt/xchem-fragalysis-2/maxwin/BulkDock/OUTPUTS/openbind_d68ev3c_c2_elabs_1LSYEHW.sdf', '/opt/xchem-fragalysis-2/maxwin/BulkDock/OUTPUTS/openbind_d68ev3c_c2_elabs_1LSYI5W.sdf']

$$$$
P64933
     RDKit          3D

 21 22  0  0  0  0  0  0  0  0999 V2000
   -3.4641   -9.2369   32.5529 C   0  0  0  0  0  0  0  0  0  0  0  0
   -2.2901   -8.8117   33.8338 S   0  0  0  0  0  0  0  0  0  0  0  0
   -1.2481   -7.7756   32.8507 C   0  0  0  0  0  0  0  0  0  0  0  0
   -0.4160   -6.9330   33.5447 C   0  0  0  0  0  0  0  0  0  0  0  0
    0.3296   -6.0114   32.8198 C   0  0  0  0  0  0  0  0  0  0  0  0
    1.2445   -5.0974   33.5446 C   0  0  0  0  0  0  0  0  0  0  0  0
    2.3247   -4.9299   33.1305 O   0  0  0  0  0  0  0  0  0  0  0  0
    0.5745   -4.5828   34.8506 N   0  0  0  0  0  0  0  0  0  0  0  0
    1.1110   -3.8591   35.9252 C   0  0  0  0  0  0  0  0  0  0  0  0
    0.3162   -3.9403   37.0798 C   0  0  0  0  0  0  0  0  0  0  0  0
    0.7507   -3.4137   38.2851 C   0  0  0  0  0  0  0  0  0  0  0  0
   -0.0371   -3.5574   39.3614 F   0  0  0  0  0  0  0  0  0  0  0  0
    1.9786   -2.7737   38.3948 C   0  0  0  0  0  0  0  0  0  0  0  0
    2.4131   -2.2623   39.7387 C   0  0  0  0  0  0  0  0  0  0  0  0
    2.7637   -2.6496   37.2296 C   0  0  0  0  0  0  0  0  0  0  0  0
    4.4728   -1.7826   37.3919 Br  0  0  0  0  0  0  0  0  0  0  0  0
    2.3272   -3.1575   35.9717 C   0  0  0  0  0  0  0  0  0  0  0  0
    3.1583   -2.9381   34.7402 C   0  0  0  0  0  0  0  0  0  0  0  0
    0.3021   -6.0341   31.4335 C   0  0  0  0  0  0  0  0  0  0  0  0
   -0.5288   -6.9546   30.8249 C   0  0  0  0  0  0  0  0  0  0  0  0
   -1.3379   -7.7996   31.5010 N   0  0  0  0  0  0  0  0  0  0  0  0
  1  2  1  0
  2  3  1  0
  3  4  2  0
  4  5  1  0
  5  6  1  0
  6  7  2  0
  6  8  1  0
  8  9  1  0
  9 10  2  0
 10 11  1  0
 11 12  1  0
 11 13  2  0
 13 14  1  0
 13 15  1  0
 15 16  1  0
 15 17  2  0
 17 18  1  0
  5 19  2  0
 19 20  1  0
 20 21  2  0
 21  3  1  0
 17  9  1  0
M  END
>  <ref_mols>  (239) 
7gov-a

>  <gnina_score>  (239) 
4.905

>  <smina_score_min>  (239) 
-4.609

>  <ref_pdb>  (239) 
7gov-a

>  <inspiration_score>  (239) 
None

>  <inchikey>  (239) 
SHGLYYYLPRAFAK-UHFFFAOYSA-N

>  <tags>  (239) 
BulkDock Fragalysis export,openbind_d68ev3c_c2_elabs_scored,openbind_d68ev3c_c2_elabs_scored_4.5plus,openbind_d68ev3c_c2_elabs,openbind_d68ev3c_c2_elabs_scored_5plus,syndirella_product,openbind_d68ev3c_c2_elabs_scored_top80percent,syndirella_placed

>  <smiles>  (239) 
CSc1cc(C(=O)Nc2cc(F)c(C)c(Br)c2C)ccn1

>  <subsites>  (239) 
None

>  <rmsd(smina/fragmenstein)>  (239) 
1.438

>  <alias>  (239) 
None

>  <energy_score>  (239) 
-10.902954

>  <HIPPO Pose ID>  (239) 
64933

>  <distance_score>  (239) 
1.333136

>  <HIPPO Compound ID>  (239) 
101753

>  <gnina_score_min>  (239) 
5.04

>  <name>  (239) 
P64933

>  <exports>  (239) 
['/opt/xchem-fragalysis-2/maxwin/BulkDock/OUTPUTS/openbind_d68ev3c_c2_elabs_1LOTQJ3.sdf', '/opt/xchem-fragalysis-2/maxwin/BulkDock/OUTPUTS/openbind_d68ev3c_c2_elabs_1LSYEHW.sdf', '/opt/xchem-fragalysis-2/maxwin/BulkDock/OUTPUTS/openbind_d68ev3c_c2_elabs_1LSYI5W.sdf']

$$$$
P64953
     RDKit          3D

 21 22  0  0  0  0  0  0  0  0999 V2000
   -3.4732   -9.2405   32.5499 C   0  0  0  0  0  0  0  0  0  0  0  0
   -2.2843   -8.8344   33.8226 S   0  0  0  0  0  0  0  0  0  0  0  0
   -1.2456   -7.7971   32.8381 C   0  0  0  0  0  0  0  0  0  0  0  0
   -0.4103   -6.9588   33.5335 C   0  0  0  0  0  0  0  0  0  0  0  0
    0.3235   -6.0239   32.8135 C   0  0  0  0  0  0  0  0  0  0  0  0
    1.2363   -5.0971   33.5303 C   0  0  0  0  0  0  0  0  0  0  0  0
    2.2830   -4.8707   33.0696 O   0  0  0  0  0  0  0  0  0  0  0  0
    0.6190   -4.6601   34.8809 N   0  0  0  0  0  0  0  0  0  0  0  0
    1.1801   -3.9563   35.9499 C   0  0  0  0  0  0  0  0  0  0  0  0
    2.3943   -3.2663   35.9792 C   0  0  0  0  0  0  0  0  0  0  0  0
    3.2676   -3.0633   34.8595 C   0  0  0  0  0  0  0  0  0  0  0  0
    4.0410   -2.7428   34.0528 N   0  0  0  0  0  0  0  0  0  0  0  0
    2.7991   -2.6546   37.1870 C   0  0  0  0  0  0  0  0  0  0  0  0
    2.0264   -2.7375   38.3478 C   0  0  0  0  0  0  0  0  0  0  0  0
    0.8301   -3.4294   38.3106 C   0  0  0  0  0  0  0  0  0  0  0  0
    0.0852   -3.5283   39.4197 F   0  0  0  0  0  0  0  0  0  0  0  0
    0.4103   -4.0222   37.1294 C   0  0  0  0  0  0  0  0  0  0  0  0
   -0.7480   -4.7072   37.1178 F   0  0  0  0  0  0  0  0  0  0  0  0
    0.2829   -6.0351   31.4265 C   0  0  0  0  0  0  0  0  0  0  0  0
   -0.5444   -6.9571   30.8151 C   0  0  0  0  0  0  0  0  0  0  0  0
   -1.3423   -7.8135   31.4894 N   0  0  0  0  0  0  0  0  0  0  0  0
  1  2  1  0
  2  3  1  0
  3  4  2  0
  4  5  1  0
  5  6  1  0
  6  7  2  0
  6  8  1  0
  8  9  1  0
  9 10  2  0
 10 11  1  0
 11 12  3  0
 10 13  1  0
 13 14  2  0
 14 15  1  0
 15 16  1  0
 15 17  2  0
 17 18  1  0
  5 19  2  0
 19 20  1  0
 20 21  2  0
 21  3  1  0
 17  9  1  0
M  END
>  <ref_mols>  (240) 
7gov-a

>  <gnina_score>  (240) 
4.928

>  <smina_score_min>  (240) 
-4.556

>  <ref_pdb>  (240) 
7gov-a

>  <inspiration_score>  (240) 
None

>  <inchikey>  (240) 
GQIAMPSAEJALQW-UHFFFAOYSA-N

>  <tags>  (240) 
BulkDock Fragalysis export,openbind_d68ev3c_c2_elabs_scored,openbind_d68ev3c_c2_elabs_scored_4.5plus,openbind_d68ev3c_c2_elabs,openbind_d68ev3c_c2_elabs_scored_5plus,syndirella_product,openbind_d68ev3c_c2_elabs_scored_top80percent,syndirella_placed

>  <smiles>  (240) 
CSc1cc(C(=O)Nc2c(C#N)ccc(F)c2F)ccn1

>  <subsites>  (240) 
None

>  <rmsd(smina/fragmenstein)>  (240) 
1.629

>  <alias>  (240) 
None

>  <energy_score>  (240) 
-7.257293

>  <HIPPO Pose ID>  (240) 
64953

>  <distance_score>  (240) 
1.333249

>  <HIPPO Compound ID>  (240) 
101784

>  <gnina_score_min>  (240) 
5.026

>  <name>  (240) 
P64953

>  <exports>  (240) 
['/opt/xchem-fragalysis-2/maxwin/BulkDock/OUTPUTS/openbind_d68ev3c_c2_elabs_1LOTQJ3.sdf', '/opt/xchem-fragalysis-2/maxwin/BulkDock/OUTPUTS/openbind_d68ev3c_c2_elabs_1LSYEHW.sdf', '/opt/xchem-fragalysis-2/maxwin/BulkDock/OUTPUTS/openbind_d68ev3c_c2_elabs_1LSYI5W.sdf']

$$$$
P64967
     RDKit          3D

 21 22  0  0  0  0  0  0  0  0999 V2000
    3.4905   -3.5973   33.2395 N   0  0  0  0  0  0  0  0  0  0  0  0
    2.9980   -3.5951   34.2912 C   0  0  0  0  0  0  0  0  0  0  0  0
    2.3622   -3.5407   35.5767 C   0  0  0  0  0  0  0  0  0  0  0  0
    2.9253   -2.7054   36.5574 C   0  0  0  0  0  0  0  0  0  0  0  0
    2.3723   -2.6397   37.8334 C   0  0  0  0  0  0  0  0  0  0  0  0
    1.2490   -3.3968   38.1230 C   0  0  0  0  0  0  0  0  0  0  0  0
    0.6976   -3.2829   39.3434 F   0  0  0  0  0  0  0  0  0  0  0  0
    0.6722   -4.2280   37.1569 C   0  0  0  0  0  0  0  0  0  0  0  0
   -0.9789   -4.9882   37.6499 Br  0  0  0  0  0  0  0  0  0  0  0  0
    1.2346   -4.3301   35.8699 C   0  0  0  0  0  0  0  0  0  0  0  0
    0.7175   -5.1617   34.8574 N   0  0  0  0  0  0  0  0  0  0  0  0
    0.0749   -6.5652   34.9415 C   0  0  0  0  0  0  0  0  0  0  0  0
   -0.0564   -7.2834   35.8519 O   0  0  0  0  0  0  0  0  0  0  0  0
   -0.5115   -7.0282   33.6518 C   0  0  0  0  0  0  0  0  0  0  0  0
   -0.0651   -6.6075   32.4058 C   0  0  0  0  0  0  0  0  0  0  0  0
    0.8792   -5.6655   32.2794 F   0  0  0  0  0  0  0  0  0  0  0  0
   -0.6257   -7.1647   31.2644 C   0  0  0  0  0  0  0  0  0  0  0  0
   -1.6208   -8.0883   31.2798 N   0  0  0  0  0  0  0  0  0  0  0  0
   -2.0482   -8.4723   32.5055 C   0  0  0  0  0  0  0  0  0  0  0  0
   -1.5403   -7.9713   33.6910 C   0  0  0  0  0  0  0  0  0  0  0  0
   -2.1050   -8.3680   34.8387 F   0  0  0  0  0  0  0  0  0  0  0  0
  1  2  3  0
  2  3  1  0
  3  4  2  0
  4  5  1  0
  5  6  2  0
  6  7  1  0
  6  8  1  0
  8  9  1  0
  8 10  2  0
 10 11  1  0
 11 12  1  0
 12 13  2  0
 12 14  1  0
 14 15  2  0
 15 16  1  0
 15 17  1  0
 17 18  2  0
 18 19  1  0
 19 20  2  0
 20 21  1  0
 10  3  1  0
 20 14  1  0
M  END
>  <ref_mols>  (241) 
7gov-a

>  <gnina_score>  (241) 
5.108

>  <smina_score_min>  (241) 
-5.447

>  <ref_pdb>  (241) 
7gov-a

>  <inspiration_score>  (241) 
None

>  <inchikey>  (241) 
KQNOLBKIVPGXPA-UHFFFAOYSA-N

>  <tags>  (241) 
BulkDock Fragalysis export,openbind_d68ev3c_c2_elabs_scored,openbind_d68ev3c_c2_elabs_scored_4.5plus,openbind_d68ev3c_c2_elabs,openbind_d68ev3c_c2_elabs_scored_5plus,syndirella_product,openbind_d68ev3c_c2_elabs_scored_top80percent,syndirella_placed

>  <smiles>  (241) 
N#Cc1ccc(F)c(Br)c1NC(=O)c1c(F)cncc1F

>  <subsites>  (241) 
None

>  <rmsd(smina/fragmenstein)>  (241) 
1.204

>  <alias>  (241) 
None

>  <energy_score>  (241) 
-1.041943

>  <HIPPO Pose ID>  (241) 
64967

>  <distance_score>  (241) 
0.585313

>  <HIPPO Compound ID>  (241) 
101808

>  <gnina_score_min>  (241) 
5.008

>  <name>  (241) 
P64967

>  <exports>  (241) 
['/opt/xchem-fragalysis-2/maxwin/BulkDock/OUTPUTS/openbind_d68ev3c_c2_elabs_1LOTQJ3.sdf', '/opt/xchem-fragalysis-2/maxwin/BulkDock/OUTPUTS/openbind_d68ev3c_c2_elabs_1LSYEHW.sdf', '/opt/xchem-fragalysis-2/maxwin/BulkDock/OUTPUTS/openbind_d68ev3c_c2_elabs_1LSYI5W.sdf']

$$$$
P64969
     RDKit          3D

 21 22  0  0  0  0  0  0  0  0999 V2000
    2.3040   -1.9129   39.2281 C   0  0  0  0  0  0  0  0  0  0  0  0
    1.8707   -2.8087   38.1028 C   0  0  0  0  0  0  0  0  0  0  0  0
    0.7469   -3.6151   38.2788 C   0  0  0  0  0  0  0  0  0  0  0  0
    0.0711   -3.5798   39.4376 F   0  0  0  0  0  0  0  0  0  0  0  0
    0.2838   -4.4522   37.2745 C   0  0  0  0  0  0  0  0  0  0  0  0
    0.9604   -4.5263   36.0574 C   0  0  0  0  0  0  0  0  0  0  0  0
    0.4497   -5.3410   35.0434 N   0  0  0  0  0  0  0  0  0  0  0  0
   -0.7197   -6.3528   35.0611 C   0  0  0  0  0  0  0  0  0  0  0  0
   -1.4872   -6.6072   35.9032 O   0  0  0  0  0  0  0  0  0  0  0  0
   -0.9184   -7.0426   33.7483 C   0  0  0  0  0  0  0  0  0  0  0  0
   -1.7875   -8.1334   33.6978 C   0  0  0  0  0  0  0  0  0  0  0  0
   -2.4082   -8.6140   34.7824 F   0  0  0  0  0  0  0  0  0  0  0  0
   -2.0692   -8.7202   32.4780 C   0  0  0  0  0  0  0  0  0  0  0  0
   -1.5487   -8.3065   31.3001 N   0  0  0  0  0  0  0  0  0  0  0  0
   -0.6760   -7.2729   31.3709 C   0  0  0  0  0  0  0  0  0  0  0  0
   -0.3492   -6.6179   32.5496 C   0  0  0  0  0  0  0  0  0  0  0  0
    0.4870   -5.5715   32.4926 F   0  0  0  0  0  0  0  0  0  0  0  0
    2.1276   -3.7611   35.8436 C   0  0  0  0  0  0  0  0  0  0  0  0
    2.8821   -3.8803   34.5415 C   0  0  0  0  0  0  0  0  0  0  0  0
    2.5498   -2.8762   36.8689 C   0  0  0  0  0  0  0  0  0  0  0  0
    4.0514   -1.7168   36.5889 Br  0  0  0  0  0  0  0  0  0  0  0  0
  1  2  1  0
  2  3  2  0
  3  4  1  0
  3  5  1  0
  5  6  2  0
  6  7  1  0
  7  8  1  0
  8  9  2  0
  8 10  1  0
 10 11  2  0
 11 12  1  0
 11 13  1  0
 13 14  2  0
 14 15  1  0
 15 16  2  0
 16 17  1  0
  6 18  1  0
 18 19  1  0
 18 20  2  0
 20 21  1  0
 20  2  1  0
 16 10  1  0
M  END
>  <ref_mols>  (242) 
7gov-a

>  <gnina_score>  (242) 
5.136

>  <smina_score_min>  (242) 
-6.031

>  <ref_pdb>  (242) 
7gov-a

>  <inspiration_score>  (242) 
None

>  <inchikey>  (242) 
BZJHDMWSAIEWAS-UHFFFAOYSA-N

>  <tags>  (242) 
BulkDock Fragalysis export,openbind_d68ev3c_c2_elabs_scored,openbind_d68ev3c_c2_elabs_scored_4.5plus,openbind_d68ev3c_c2_elabs,openbind_d68ev3c_c2_elabs_scored_5plus,syndirella_product,openbind_d68ev3c_c2_elabs_scored_top80percent,syndirella_placed

>  <smiles>  (242) 
Cc1c(F)cc(NC(=O)c2c(F)cncc2F)c(C)c1Br

>  <subsites>  (242) 
None

>  <rmsd(smina/fragmenstein)>  (242) 
1.21

>  <alias>  (242) 
None

>  <energy_score>  (242) 
-24.183521

>  <HIPPO Pose ID>  (242) 
64969

>  <distance_score>  (242) 
0.74997

>  <HIPPO Compound ID>  (242) 
101811

>  <gnina_score_min>  (242) 
5.002

>  <name>  (242) 
P64969

>  <exports>  (242) 
['/opt/xchem-fragalysis-2/maxwin/BulkDock/OUTPUTS/openbind_d68ev3c_c2_elabs_1LOTQJ3.sdf', '/opt/xchem-fragalysis-2/maxwin/BulkDock/OUTPUTS/openbind_d68ev3c_c2_elabs_1LSYEHW.sdf', '/opt/xchem-fragalysis-2/maxwin/BulkDock/OUTPUTS/openbind_d68ev3c_c2_elabs_1LSYI5W.sdf']

$$$$
P65014
     RDKit          3D

 21 22  0  0  0  0  0  0  0  0999 V2000
    3.3765   -2.5941   34.2011 O   0  0  0  0  0  0  0  0  0  0  0  0
    2.6774   -3.5411   34.5423 C   0  0  0  0  0  0  0  0  0  0  0  0
    1.9543   -3.5546   35.8314 C   0  0  0  0  0  0  0  0  0  0  0  0
    2.4119   -2.7125   36.8544 C   0  0  0  0  0  0  0  0  0  0  0  0
    1.8311   -2.7856   38.1194 C   0  0  0  0  0  0  0  0  0  0  0  0
    2.4637   -1.6606   39.5012 Br  0  0  0  0  0  0  0  0  0  0  0  0
    0.8000   -3.6896   38.3591 C   0  0  0  0  0  0  0  0  0  0  0  0
    0.2168   -3.7625   39.5647 F   0  0  0  0  0  0  0  0  0  0  0  0
    0.3418   -4.5285   37.3472 C   0  0  0  0  0  0  0  0  0  0  0  0
    0.9075   -4.4582   36.0709 C   0  0  0  0  0  0  0  0  0  0  0  0
    0.4024   -5.2796   35.0634 N   0  0  0  0  0  0  0  0  0  0  0  0
   -0.3744   -6.6120   35.1504 C   0  0  0  0  0  0  0  0  0  0  0  0
   -0.6457   -7.2685   36.0741 O   0  0  0  0  0  0  0  0  0  0  0  0
   -0.8033   -7.1336   33.7964 C   0  0  0  0  0  0  0  0  0  0  0  0
   -0.1539   -6.7278   32.6237 C   0  0  0  0  0  0  0  0  0  0  0  0
   -0.5672   -7.2550   31.4167 C   0  0  0  0  0  0  0  0  0  0  0  0
    0.0248   -6.8160   30.2762 O   0  0  0  0  0  0  0  0  0  0  0  0
   -1.5166   -8.1851   31.2626 N   0  0  0  0  0  0  0  0  0  0  0  0
   -2.1115   -8.5894   32.4056 C   0  0  0  0  0  0  0  0  0  0  0  0
   -1.8225   -8.0908   33.6706 C   0  0  0  0  0  0  0  0  0  0  0  0
   -2.9641   -8.7118   35.0457 Br  0  0  0  0  0  0  0  0  0  0  0  0
  1  2  2  0
  2  3  1  0
  3  4  2  0
  4  5  1  0
  5  6  1  0
  5  7  2  0
  7  8  1  0
  7  9  1  0
  9 10  2  0
 10 11  1  0
 11 12  1  0
 12 13  2  0
 12 14  1  0
 14 15  2  0
 15 16  1  0
 16 17  1  0
 16 18  2  0
 18 19  1  0
 19 20  2  0
 20 21  1  0
 10  3  1  0
 20 14  1  0
M  END
>  <ref_mols>  (243) 
7gov-a

>  <gnina_score>  (243) 
5.101

>  <smina_score_min>  (243) 
-6.283

>  <ref_pdb>  (243) 
7gov-a

>  <inspiration_score>  (243) 
None

>  <inchikey>  (243) 
OGUOZGBSEROPBU-UHFFFAOYSA-N

>  <tags>  (243) 
BulkDock Fragalysis export,openbind_d68ev3c_c2_elabs_scored,openbind_d68ev3c_c2_elabs_scored_4.5plus,openbind_d68ev3c_c2_elabs,openbind_d68ev3c_c2_elabs_scored_5plus,syndirella_product,openbind_d68ev3c_c2_elabs_scored_top80percent,syndirella_placed

>  <smiles>  (243) 
O=Cc1cc(Br)c(F)cc1NC(=O)c1cc(O)ncc1Br

>  <subsites>  (243) 
None

>  <rmsd(smina/fragmenstein)>  (243) 
1.217

>  <alias>  (243) 
None

>  <energy_score>  (243) 
-7.198476

>  <HIPPO Pose ID>  (243) 
65014

>  <distance_score>  (243) 
0.596191

>  <HIPPO Compound ID>  (243) 
101894

>  <gnina_score_min>  (243) 
5.096

>  <name>  (243) 
P65014

>  <exports>  (243) 
['/opt/xchem-fragalysis-2/maxwin/BulkDock/OUTPUTS/openbind_d68ev3c_c2_elabs_1LOTQJ3.sdf', '/opt/xchem-fragalysis-2/maxwin/BulkDock/OUTPUTS/openbind_d68ev3c_c2_elabs_1LSYEHW.sdf', '/opt/xchem-fragalysis-2/maxwin/BulkDock/OUTPUTS/openbind_d68ev3c_c2_elabs_1LSYI5W.sdf']

$$$$
P65028
     RDKit          3D

 21 22  0  0  0  0  0  0  0  0999 V2000
    3.4819   -3.6711   33.2884 N   0  0  0  0  0  0  0  0  0  0  0  0
    2.9949   -3.6511   34.3424 C   0  0  0  0  0  0  0  0  0  0  0  0
    2.3662   -3.5809   35.6308 C   0  0  0  0  0  0  0  0  0  0  0  0
    2.9553   -2.7554   36.6047 C   0  0  0  0  0  0  0  0  0  0  0  0
    2.4102   -2.6694   37.8824 C   0  0  0  0  0  0  0  0  0  0  0  0
    1.2703   -3.3974   38.1804 C   0  0  0  0  0  0  0  0  0  0  0  0
    0.7291   -3.2663   39.4035 F   0  0  0  0  0  0  0  0  0  0  0  0
    0.6651   -4.2158   37.2207 C   0  0  0  0  0  0  0  0  0  0  0  0
   -1.0027   -4.9243   37.7314 Br  0  0  0  0  0  0  0  0  0  0  0  0
    1.2168   -4.3380   35.9311 C   0  0  0  0  0  0  0  0  0  0  0  0
    0.6461   -5.1302   34.9137 N   0  0  0  0  0  0  0  0  0  0  0  0
   -0.0051   -6.5323   34.9778 C   0  0  0  0  0  0  0  0  0  0  0  0
   -0.2396   -7.2169   35.8950 O   0  0  0  0  0  0  0  0  0  0  0  0
   -0.4912   -7.0259   33.6523 C   0  0  0  0  0  0  0  0  0  0  0  0
   -1.4375   -8.0593   33.6609 C   0  0  0  0  0  0  0  0  0  0  0  0
   -1.9384   -8.4993   32.4544 C   0  0  0  0  0  0  0  0  0  0  0  0
   -2.8894   -9.4382   32.4561 F   0  0  0  0  0  0  0  0  0  0  0  0
   -1.5605   -8.0197   31.2509 N   0  0  0  0  0  0  0  0  0  0  0  0
   -0.6147   -7.0512   31.2685 C   0  0  0  0  0  0  0  0  0  0  0  0
   -0.0785   -6.5157   32.4279 C   0  0  0  0  0  0  0  0  0  0  0  0
    0.8021   -5.5104   32.3409 F   0  0  0  0  0  0  0  0  0  0  0  0
  1  2  3  0
  2  3  1  0
  3  4  2  0
  4  5  1  0
  5  6  2  0
  6  7  1  0
  6  8  1  0
  8  9  1  0
  8 10  2  0
 10 11  1  0
 11 12  1  0
 12 13  2  0
 12 14  1  0
 14 15  2  0
 15 16  1  0
 16 17  1  0
 16 18  2  0
 18 19  1  0
 19 20  2  0
 20 21  1  0
 10  3  1  0
 20 14  1  0
M  END
>  <ref_mols>  (244) 
7gov-a

>  <gnina_score>  (244) 
5.218

>  <smina_score_min>  (244) 
-5.98

>  <ref_pdb>  (244) 
7gov-a

>  <inspiration_score>  (244) 
None

>  <inchikey>  (244) 
XLXIMXYUORWBRV-UHFFFAOYSA-N

>  <tags>  (244) 
BulkDock Fragalysis export,openbind_d68ev3c_c2_elabs_scored,openbind_d68ev3c_c2_elabs_scored_4.5plus,openbind_d68ev3c_c2_elabs,openbind_d68ev3c_c2_elabs_scored_5plus,syndirella_product,openbind_d68ev3c_c2_elabs_scored_top80percent,syndirella_placed

>  <smiles>  (244) 
N#Cc1ccc(F)c(Br)c1NC(=O)c1cc(F)ncc1F

>  <subsites>  (244) 
None

>  <rmsd(smina/fragmenstein)>  (244) 
1.485

>  <alias>  (244) 
None

>  <energy_score>  (244) 
-0.23871

>  <HIPPO Pose ID>  (244) 
65028

>  <distance_score>  (244) 
0.606418

>  <HIPPO Compound ID>  (244) 
101921

>  <gnina_score_min>  (244) 
5.098

>  <name>  (244) 
P65028

>  <exports>  (244) 
['/opt/xchem-fragalysis-2/maxwin/BulkDock/OUTPUTS/openbind_d68ev3c_c2_elabs_1LOTQJ3.sdf', '/opt/xchem-fragalysis-2/maxwin/BulkDock/OUTPUTS/openbind_d68ev3c_c2_elabs_1LSYEHW.sdf', '/opt/xchem-fragalysis-2/maxwin/BulkDock/OUTPUTS/openbind_d68ev3c_c2_elabs_1LSYI5W.sdf']

$$$$
P65049
     RDKit          3D

 21 22  0  0  0  0  0  0  0  0999 V2000
    3.6073   -2.5945   34.0461 C   0  0  0  0  0  0  0  0  0  0  0  0
    2.9219   -3.8979   34.4805 C   0  0  0  0  0  0  0  0  0  0  0  0
    3.9519   -5.0267   34.5602 C   0  0  0  0  0  0  0  0  0  0  0  0
    2.1270   -3.7991   35.7805 C   0  0  0  0  0  0  0  0  0  0  0  0
    2.5506   -2.9277   36.8049 C   0  0  0  0  0  0  0  0  0  0  0  0
    1.8449   -2.8197   38.0041 C   0  0  0  0  0  0  0  0  0  0  0  0
    0.7047   -3.5807   38.1940 C   0  0  0  0  0  0  0  0  0  0  0  0
    0.0310   -3.4840   39.3483 F   0  0  0  0  0  0  0  0  0  0  0  0
    0.2589   -4.4518   37.2111 C   0  0  0  0  0  0  0  0  0  0  0  0
    0.9744   -4.5860   36.0154 C   0  0  0  0  0  0  0  0  0  0  0  0
    0.5331   -5.5009   35.0561 N   0  0  0  0  0  0  0  0  0  0  0  0
   -0.7212   -6.4044   35.0324 C   0  0  0  0  0  0  0  0  0  0  0  0
   -1.5406   -6.5823   35.8442 O   0  0  0  0  0  0  0  0  0  0  0  0
   -0.9130   -7.0704   33.7134 C   0  0  0  0  0  0  0  0  0  0  0  0
   -0.4946   -6.4951   32.5102 C   0  0  0  0  0  0  0  0  0  0  0  0
   -0.8402   -7.1285   31.3313 C   0  0  0  0  0  0  0  0  0  0  0  0
   -0.5003   -6.5488   30.1728 F   0  0  0  0  0  0  0  0  0  0  0  0
   -1.5856   -8.2531   31.2641 N   0  0  0  0  0  0  0  0  0  0  0  0
   -1.9672   -8.7883   32.4452 C   0  0  0  0  0  0  0  0  0  0  0  0
   -1.6617   -8.2422   33.6728 C   0  0  0  0  0  0  0  0  0  0  0  0
   -2.1264   -8.8375   34.7753 F   0  0  0  0  0  0  0  0  0  0  0  0
  1  2  1  0
  2  3  1  0
  2  4  1  0
  4  5  2  0
  5  6  1  0
  6  7  2  0
  7  8  1  0
  7  9  1  0
  9 10  2  0
 10 11  1  0
 11 12  1  0
 12 13  2  0
 12 14  1  0
 14 15  2  0
 15 16  1  0
 16 17  1  0
 16 18  2  0
 18 19  1  0
 19 20  2  0
 20 21  1  0
 10  4  1  0
 20 14  1  0
M  END
>  <ref_mols>  (245) 
7gov-a

>  <gnina_score>  (245) 
4.982

>  <smina_score_min>  (245) 
-5.801

>  <ref_pdb>  (245) 
7gov-a

>  <inspiration_score>  (245) 
None

>  <inchikey>  (245) 
ONLXWPDJNUFENJ-UHFFFAOYSA-N

>  <tags>  (245) 
BulkDock Fragalysis export,openbind_d68ev3c_c2_elabs_scored,openbind_d68ev3c_c2_elabs_scored_4.5plus,openbind_d68ev3c_c2_elabs,openbind_d68ev3c_c2_elabs_scored_5plus,syndirella_product,openbind_d68ev3c_c2_elabs_scored_top80percent,syndirella_placed

>  <smiles>  (245) 
CC(C)c1ccc(F)cc1NC(=O)c1cc(F)ncc1F

>  <subsites>  (245) 
None

>  <rmsd(smina/fragmenstein)>  (245) 
1.258

>  <alias>  (245) 
None

>  <energy_score>  (245) 
-19.83455

>  <HIPPO Pose ID>  (245) 
65049

>  <distance_score>  (245) 
0.761383

>  <HIPPO Compound ID>  (245) 
101955

>  <gnina_score_min>  (245) 
5.009

>  <name>  (245) 
P65049

>  <exports>  (245) 
['/opt/xchem-fragalysis-2/maxwin/BulkDock/OUTPUTS/openbind_d68ev3c_c2_elabs_1LOTQJ3.sdf', '/opt/xchem-fragalysis-2/maxwin/BulkDock/OUTPUTS/openbind_d68ev3c_c2_elabs_1LSYEHW.sdf', '/opt/xchem-fragalysis-2/maxwin/BulkDock/OUTPUTS/openbind_d68ev3c_c2_elabs_1LSYI5W.sdf']

$$$$
P65051
     RDKit          3D

 21 23  0  0  0  0  0  0  0  0999 V2000
   -1.5579   -6.6005   35.8474 O   0  0  0  0  0  0  0  0  0  0  0  0
   -0.7301   -6.4148   35.0462 C   0  0  0  0  0  0  0  0  0  0  0  0
    0.5220   -5.5104   35.0910 N   0  0  0  0  0  0  0  0  0  0  0  0
    0.9513   -4.6038   36.0617 C   0  0  0  0  0  0  0  0  0  0  0  0
    0.2121   -4.4389   37.2378 C   0  0  0  0  0  0  0  0  0  0  0  0
    0.6573   -3.5583   38.2123 C   0  0  0  0  0  0  0  0  0  0  0  0
   -0.0325   -3.4312   39.3539 F   0  0  0  0  0  0  0  0  0  0  0  0
    1.8125   -2.8172   38.0277 C   0  0  0  0  0  0  0  0  0  0  0  0
    2.5393   -2.9669   36.8457 C   0  0  0  0  0  0  0  0  0  0  0  0
    2.1314   -3.8580   35.8320 C   0  0  0  0  0  0  0  0  0  0  0  0
    2.9822   -4.0296   34.5863 C   0  0  0  0  0  0  0  0  0  0  0  0
    2.4349   -3.6430   33.2297 C   0  0  0  0  0  0  0  0  0  0  0  0
    3.5234   -2.8242   33.8498 C   0  0  0  0  0  0  0  0  0  0  0  0
   -0.9104   -7.0735   33.7220 C   0  0  0  0  0  0  0  0  0  0  0  0
   -0.4874   -6.4903   32.5248 C   0  0  0  0  0  0  0  0  0  0  0  0
   -0.8295   -7.1153   31.3400 C   0  0  0  0  0  0  0  0  0  0  0  0
   -0.4857   -6.5267   30.1870 F   0  0  0  0  0  0  0  0  0  0  0  0
   -1.5752   -8.2394   31.2616 N   0  0  0  0  0  0  0  0  0  0  0  0
   -1.9594   -8.7837   32.4376 C   0  0  0  0  0  0  0  0  0  0  0  0
   -1.6579   -8.2461   33.6699 C   0  0  0  0  0  0  0  0  0  0  0  0
   -2.1256   -8.8504   34.7662 F   0  0  0  0  0  0  0  0  0  0  0  0
  1  2  2  0
  2  3  1  0
  3  4  1  0
  4  5  2  0
  5  6  1  0
  6  7  1  0
  6  8  2  0
  8  9  1  0
  9 10  2  0
 10 11  1  0
 11 12  1  0
 12 13  1  0
  2 14  1  0
 14 15  2  0
 15 16  1  0
 16 17  1  0
 16 18  2  0
 18 19  1  0
 19 20  2  0
 20 21  1  0
 10  4  1  0
 13 11  1  0
 20 14  1  0
M  END
>  <ref_mols>  (246) 
7gov-a

>  <gnina_score>  (246) 
5.098

>  <smina_score_min>  (246) 
-5.953

>  <ref_pdb>  (246) 
7gov-a

>  <inspiration_score>  (246) 
None

>  <inchikey>  (246) 
UZEXEOCLLHBTOR-UHFFFAOYSA-N

>  <tags>  (246) 
BulkDock Fragalysis export,openbind_d68ev3c_c2_elabs_scored,openbind_d68ev3c_c2_elabs_scored_4.5plus,openbind_d68ev3c_c2_elabs,openbind_d68ev3c_c2_elabs_scored_5plus,syndirella_product,openbind_d68ev3c_c2_elabs_scored_top80percent,syndirella_placed

>  <smiles>  (246) 
O=C(Nc1cc(F)ccc1C1CC1)c1cc(F)ncc1F

>  <subsites>  (246) 
None

>  <rmsd(smina/fragmenstein)>  (246) 
1.176

>  <alias>  (246) 
None

>  <energy_score>  (246) 
-0.524573

>  <HIPPO Pose ID>  (246) 
65051

>  <distance_score>  (246) 
0.765217

>  <HIPPO Compound ID>  (246) 
101957

>  <gnina_score_min>  (246) 
5.012

>  <name>  (246) 
P65051

>  <exports>  (246) 
['/opt/xchem-fragalysis-2/maxwin/BulkDock/OUTPUTS/openbind_d68ev3c_c2_elabs_1LOTQJ3.sdf', '/opt/xchem-fragalysis-2/maxwin/BulkDock/OUTPUTS/openbind_d68ev3c_c2_elabs_1LSYEHW.sdf', '/opt/xchem-fragalysis-2/maxwin/BulkDock/OUTPUTS/openbind_d68ev3c_c2_elabs_1LSYI5W.sdf']

$$$$
P65058
     RDKit          3D

 21 22  0  0  0  0  0  0  0  0999 V2000
    3.7372   -3.0926   33.6386 N   0  0  0  0  0  0  0  0  0  0  0  0
    3.2092   -3.1601   34.6706 C   0  0  0  0  0  0  0  0  0  0  0  0
    2.5105   -3.2041   35.9234 C   0  0  0  0  0  0  0  0  0  0  0  0
    2.9716   -2.4339   36.9987 C   0  0  0  0  0  0  0  0  0  0  0  0
    2.3295   -2.4990   38.2360 C   0  0  0  0  0  0  0  0  0  0  0  0
    1.2235   -3.3245   38.3942 C   0  0  0  0  0  0  0  0  0  0  0  0
    0.5910   -3.3331   39.5785 F   0  0  0  0  0  0  0  0  0  0  0  0
    0.7530   -4.0977   37.3349 C   0  0  0  0  0  0  0  0  0  0  0  0
   -0.8684   -5.0255   37.6146 Br  0  0  0  0  0  0  0  0  0  0  0  0
    1.4055   -4.0488   36.0923 C   0  0  0  0  0  0  0  0  0  0  0  0
    0.9941   -4.8131   35.0018 N   0  0  0  0  0  0  0  0  0  0  0  0
    0.6025   -6.2960   34.9130 C   0  0  0  0  0  0  0  0  0  0  0  0
    0.6344   -7.1356   35.7206 O   0  0  0  0  0  0  0  0  0  0  0  0
    0.0090   -6.6299   33.5982 C   0  0  0  0  0  0  0  0  0  0  0  0
    0.4195   -6.0817   32.3887 C   0  0  0  0  0  0  0  0  0  0  0  0
   -0.2116   -6.5370   31.2525 C   0  0  0  0  0  0  0  0  0  0  0  0
    0.1644   -6.0568   30.0408 O   0  0  0  0  0  0  0  0  0  0  0  0
   -1.1919   -7.4481   31.2134 N   0  0  0  0  0  0  0  0  0  0  0  0
   -1.5479   -7.9420   32.4147 C   0  0  0  0  0  0  0  0  0  0  0  0
   -2.9224   -9.1859   32.4648 Br  0  0  0  0  0  0  0  0  0  0  0  0
   -0.9970   -7.5827   33.6195 C   0  0  0  0  0  0  0  0  0  0  0  0
  1  2  3  0
  2  3  1  0
  3  4  2  0
  4  5  1  0
  5  6  2  0
  6  7  1  0
  6  8  1  0
  8  9  1  0
  8 10  2  0
 10 11  1  0
 11 12  1  0
 12 13  2  0
 12 14  1  0
 14 15  2  0
 15 16  1  0
 16 17  1  0
 16 18  2  0
 18 19  1  0
 19 20  1  0
 19 21  2  0
 10  3  1  0
 21 14  1  0
M  END
>  <ref_mols>  (247) 
7gov-a

>  <gnina_score>  (247) 
5.013

>  <smina_score_min>  (247) 
-5.278

>  <ref_pdb>  (247) 
7gov-a

>  <inspiration_score>  (247) 
None

>  <inchikey>  (247) 
YXRMZBDCIMTQFK-UHFFFAOYSA-N

>  <tags>  (247) 
BulkDock Fragalysis export,openbind_d68ev3c_c2_elabs_scored,openbind_d68ev3c_c2_elabs_scored_4.5plus,openbind_d68ev3c_c2_elabs,openbind_d68ev3c_c2_elabs_scored_5plus,syndirella_product,openbind_d68ev3c_c2_elabs_scored_top80percent,syndirella_placed

>  <smiles>  (247) 
N#Cc1ccc(F)c(Br)c1NC(=O)c1cc(O)nc(Br)c1

>  <subsites>  (247) 
None

>  <rmsd(smina/fragmenstein)>  (247) 
1.158

>  <alias>  (247) 
None

>  <energy_score>  (247) 
-10.665324

>  <HIPPO Pose ID>  (247) 
65058

>  <distance_score>  (247) 
0.839018

>  <HIPPO Compound ID>  (247) 
101969

>  <gnina_score_min>  (247) 
5.04

>  <name>  (247) 
P65058

>  <exports>  (247) 
['/opt/xchem-fragalysis-2/maxwin/BulkDock/OUTPUTS/openbind_d68ev3c_c2_elabs_1LOTQJ3.sdf', '/opt/xchem-fragalysis-2/maxwin/BulkDock/OUTPUTS/openbind_d68ev3c_c2_elabs_1LSYEHW.sdf', '/opt/xchem-fragalysis-2/maxwin/BulkDock/OUTPUTS/openbind_d68ev3c_c2_elabs_1LSYI5W.sdf']

$$$$
P65072
     RDKit          3D

 21 22  0  0  0  0  0  0  0  0999 V2000
   -0.6602   -7.3138   36.0782 O   0  0  0  0  0  0  0  0  0  0  0  0
   -0.3764   -6.6833   35.1402 C   0  0  0  0  0  0  0  0  0  0  0  0
    0.3889   -5.3462   35.0273 N   0  0  0  0  0  0  0  0  0  0  0  0
    0.8645   -4.4895   36.0178 C   0  0  0  0  0  0  0  0  0  0  0  0
    0.3205   -4.5650   37.3039 C   0  0  0  0  0  0  0  0  0  0  0  0
    0.7722   -3.7073   38.2982 C   0  0  0  0  0  0  0  0  0  0  0  0
    0.2274   -3.7669   39.5206 F   0  0  0  0  0  0  0  0  0  0  0  0
    1.7749   -2.7842   38.0419 C   0  0  0  0  0  0  0  0  0  0  0  0
    2.3319   -2.7150   36.7649 C   0  0  0  0  0  0  0  0  0  0  0  0
    1.8756   -3.5579   35.7318 C   0  0  0  0  0  0  0  0  0  0  0  0
    2.5582   -3.5085   34.3907 C   0  0  0  0  0  0  0  0  0  0  0  0
    3.0423   -2.2692   34.0845 F   0  0  0  0  0  0  0  0  0  0  0  0
    1.7262   -3.8286   33.3513 F   0  0  0  0  0  0  0  0  0  0  0  0
    3.6179   -4.3540   34.2864 F   0  0  0  0  0  0  0  0  0  0  0  0
   -0.8100   -7.2203   33.7941 C   0  0  0  0  0  0  0  0  0  0  0  0
   -0.1271   -6.8738   32.6171 C   0  0  0  0  0  0  0  0  0  0  0  0
   -0.5672   -7.3721   31.3996 C   0  0  0  0  0  0  0  0  0  0  0  0
   -1.6119   -8.2110   31.2703 N   0  0  0  0  0  0  0  0  0  0  0  0
   -2.2165   -8.5850   32.4182 C   0  0  0  0  0  0  0  0  0  0  0  0
   -1.8780   -8.1205   33.6809 C   0  0  0  0  0  0  0  0  0  0  0  0
   -3.0164   -8.7137   35.0705 Br  0  0  0  0  0  0  0  0  0  0  0  0
  1  2  2  0
  2  3  1  0
  3  4  1  0
  4  5  2  0
  5  6  1  0
  6  7  1  0
  6  8  2  0
  8  9  1  0
  9 10  2  0
 10 11  1  0
 11 12  1  0
 11 13  1  0
 11 14  1  0
  2 15  1  0
 15 16  2  0
 16 17  1  0
 17 18  2  0
 18 19  1  0
 19 20  2  0
 20 21  1  0
 10  4  1  0
 20 15  1  0
M  END
>  <ref_mols>  (248) 
7gov-a

>  <gnina_score>  (248) 
5.094

>  <smina_score_min>  (248) 
-5.642

>  <ref_pdb>  (248) 
7gov-a

>  <inspiration_score>  (248) 
None

>  <inchikey>  (248) 
CTLXOQFXTDYWCY-UHFFFAOYSA-N

>  <tags>  (248) 
BulkDock Fragalysis export,openbind_d68ev3c_c2_elabs_scored,openbind_d68ev3c_c2_elabs_scored_4.5plus,openbind_d68ev3c_c2_elabs,openbind_d68ev3c_c2_elabs_scored_5plus,syndirella_product,openbind_d68ev3c_c2_elabs_scored_top80percent,syndirella_placed

>  <smiles>  (248) 
O=C(Nc1cc(F)ccc1C(F)(F)F)c1ccncc1Br

>  <subsites>  (248) 
None

>  <rmsd(smina/fragmenstein)>  (248) 
1.081

>  <alias>  (248) 
None

>  <energy_score>  (248) 
-1.256088

>  <HIPPO Pose ID>  (248) 
65072

>  <distance_score>  (248) 
0.605045

>  <HIPPO Compound ID>  (248) 
101996

>  <gnina_score_min>  (248) 
5.051

>  <name>  (248) 
P65072

>  <exports>  (248) 
['/opt/xchem-fragalysis-2/maxwin/BulkDock/OUTPUTS/openbind_d68ev3c_c2_elabs_1LOTQJ3.sdf', '/opt/xchem-fragalysis-2/maxwin/BulkDock/OUTPUTS/openbind_d68ev3c_c2_elabs_1LSYEHW.sdf', '/opt/xchem-fragalysis-2/maxwin/BulkDock/OUTPUTS/openbind_d68ev3c_c2_elabs_1LSYI5W.sdf']

$$$$
P65076
     RDKit          3D

 21 22  0  0  0  0  0  0  0  0999 V2000
    3.9365   -3.3967   34.2714 C   0  0  0  0  0  0  0  0  0  0  0  0
    2.4539   -3.6253   34.4057 C   0  0  0  0  0  0  0  0  0  0  0  0
    1.7357   -3.7971   33.4205 O   0  0  0  0  0  0  0  0  0  0  0  0
    1.8536   -3.6216   35.7700 C   0  0  0  0  0  0  0  0  0  0  0  0
    2.3914   -2.7949   36.7701 C   0  0  0  0  0  0  0  0  0  0  0  0
    1.8677   -2.8295   38.0640 C   0  0  0  0  0  0  0  0  0  0  0  0
    0.8189   -3.6930   38.3567 C   0  0  0  0  0  0  0  0  0  0  0  0
    0.3024   -3.6982   39.5936 F   0  0  0  0  0  0  0  0  0  0  0  0
    0.2887   -4.5249   37.3778 C   0  0  0  0  0  0  0  0  0  0  0  0
   -0.7600   -5.2965   37.6979 F   0  0  0  0  0  0  0  0  0  0  0  0
    0.7918   -4.4924   36.0725 C   0  0  0  0  0  0  0  0  0  0  0  0
    0.2489   -5.3001   35.0743 N   0  0  0  0  0  0  0  0  0  0  0  0
   -0.3842   -6.7039   35.1556 C   0  0  0  0  0  0  0  0  0  0  0  0
   -0.6208   -7.3725   36.0791 O   0  0  0  0  0  0  0  0  0  0  0  0
   -0.8115   -7.2217   33.8056 C   0  0  0  0  0  0  0  0  0  0  0  0
   -0.1275   -6.8498   32.6387 C   0  0  0  0  0  0  0  0  0  0  0  0
   -0.5565   -7.3409   31.4145 C   0  0  0  0  0  0  0  0  0  0  0  0
   -1.5920   -8.1915   31.2702 N   0  0  0  0  0  0  0  0  0  0  0  0
   -2.2020   -8.5797   32.4115 C   0  0  0  0  0  0  0  0  0  0  0  0
   -1.8735   -8.1256   33.6799 C   0  0  0  0  0  0  0  0  0  0  0  0
   -3.0178   -8.7236   35.0623 Br  0  0  0  0  0  0  0  0  0  0  0  0
  1  2  1  0
  2  3  2  0
  2  4  1  0
  4  5  2  0
  5  6  1  0
  6  7  2  0
  7  8  1  0
  7  9  1  0
  9 10  1  0
  9 11  2  0
 11 12  1  0
 12 13  1  0
 13 14  2  0
 13 15  1  0
 15 16  2  0
 16 17  1  0
 17 18  2  0
 18 19  1  0
 19 20  2  0
 20 21  1  0
 11  4  1  0
 20 15  1  0
M  END
>  <ref_mols>  (249) 
7gov-a

>  <gnina_score>  (249) 
5.198

>  <smina_score_min>  (249) 
-5.125

>  <ref_pdb>  (249) 
7gov-a

>  <inspiration_score>  (249) 
None

>  <inchikey>  (249) 
BFWDAMMYYBLOQE-UHFFFAOYSA-N

>  <tags>  (249) 
BulkDock Fragalysis export,openbind_d68ev3c_c2_elabs_scored,openbind_d68ev3c_c2_elabs_scored_4.5plus,openbind_d68ev3c_c2_elabs,openbind_d68ev3c_c2_elabs_scored_5plus,syndirella_product,openbind_d68ev3c_c2_elabs_scored_top80percent,syndirella_placed

>  <smiles>  (249) 
CC(=O)c1ccc(F)c(F)c1NC(=O)c1ccncc1Br

>  <subsites>  (249) 
None

>  <rmsd(smina/fragmenstein)>  (249) 
0.374

>  <alias>  (249) 
None

>  <energy_score>  (249) 
-3.550382

>  <HIPPO Pose ID>  (249) 
65076

>  <distance_score>  (249) 
0.591792

>  <HIPPO Compound ID>  (249) 
102005

>  <gnina_score_min>  (249) 
5.092

>  <name>  (249) 
P65076

>  <exports>  (249) 
['/opt/xchem-fragalysis-2/maxwin/BulkDock/OUTPUTS/openbind_d68ev3c_c2_elabs_1LOTQJ3.sdf', '/opt/xchem-fragalysis-2/maxwin/BulkDock/OUTPUTS/openbind_d68ev3c_c2_elabs_1LSYEHW.sdf', '/opt/xchem-fragalysis-2/maxwin/BulkDock/OUTPUTS/openbind_d68ev3c_c2_elabs_1LSYI5W.sdf']

$$$$
P65077
     RDKit          3D

 21 22  0  0  0  0  0  0  0  0999 V2000
    2.6660   -3.7284   34.4700 C   0  0  0  0  0  0  0  0  0  0  0  0
    1.9706   -3.6888   35.8058 C   0  0  0  0  0  0  0  0  0  0  0  0
    0.8525   -4.5020   36.0648 C   0  0  0  0  0  0  0  0  0  0  0  0
    0.2857   -5.2947   35.0704 N   0  0  0  0  0  0  0  0  0  0  0  0
   -0.4109   -6.6709   35.1599 C   0  0  0  0  0  0  0  0  0  0  0  0
   -0.6863   -7.3186   36.0887 O   0  0  0  0  0  0  0  0  0  0  0  0
   -0.8229   -7.2120   33.8085 C   0  0  0  0  0  0  0  0  0  0  0  0
   -0.1337   -6.8627   32.6366 C   0  0  0  0  0  0  0  0  0  0  0  0
   -0.5625   -7.3654   31.4160 C   0  0  0  0  0  0  0  0  0  0  0  0
   -1.6014   -8.2099   31.2789 N   0  0  0  0  0  0  0  0  0  0  0  0
   -2.2117   -8.5875   32.4223 C   0  0  0  0  0  0  0  0  0  0  0  0
   -1.8844   -8.1203   33.6872 C   0  0  0  0  0  0  0  0  0  0  0  0
   -3.0306   -8.7196   35.0688 Br  0  0  0  0  0  0  0  0  0  0  0  0
    0.2710   -4.5391   37.3384 C   0  0  0  0  0  0  0  0  0  0  0  0
    0.7690   -3.7393   38.3567 C   0  0  0  0  0  0  0  0  0  0  0  0
    0.1845   -3.7629   39.5612 F   0  0  0  0  0  0  0  0  0  0  0  0
    1.8483   -2.9027   38.1404 C   0  0  0  0  0  0  0  0  0  0  0  0
    2.4404   -2.8845   36.8710 C   0  0  0  0  0  0  0  0  0  0  0  0
    3.5673   -1.9749   36.6922 N   0  0  0  0  0  0  0  0  0  0  0  0
    3.5547   -1.2422   35.6924 O   0  0  0  0  0  0  0  0  0  0  0  0
    4.4406   -1.9625   37.5718 O   0  0  0  0  0  0  0  0  0  0  0  0
  1  2  1  0
  2  3  2  0
  3  4  1  0
  4  5  1  0
  5  6  2  0
  5  7  1  0
  7  8  2  0
  8  9  1  0
  9 10  2  0
 10 11  1  0
 11 12  2  0
 12 13  1  0
  3 14  1  0
 14 15  2  0
 15 16  1  0
 15 17  1  0
 17 18  2  0
 18 19  1  0
 19 20  2  0
 19 21  1  0
 18  2  1  0
 12  7  1  0
M  CHG  2  19   1  21  -1
M  END
>  <ref_mols>  (250) 
7gov-a

>  <gnina_score>  (250) 
5.027

>  <smina_score_min>  (250) 
-5.643

>  <ref_pdb>  (250) 
7gov-a

>  <inspiration_score>  (250) 
None

>  <inchikey>  (250) 
VPNSCWQYLHAFJG-UHFFFAOYSA-N

>  <tags>  (250) 
BulkDock Fragalysis export,openbind_d68ev3c_c2_elabs_scored,openbind_d68ev3c_c2_elabs_scored_4.5plus,openbind_d68ev3c_c2_elabs,openbind_d68ev3c_c2_elabs_scored_5plus,syndirella_product,openbind_d68ev3c_c2_elabs_scored_top80percent,syndirella_placed

>  <smiles>  (250) 
Cc1c(NC(=O)c2ccncc2Br)cc(F)cc1[N+](=O)[O-]

>  <subsites>  (250) 
None

>  <rmsd(smina/fragmenstein)>  (250) 
1.048

>  <alias>  (250) 
None

>  <energy_score>  (250) 
-5.892317

>  <HIPPO Pose ID>  (250) 
65077

>  <distance_score>  (250) 
0.581767

>  <HIPPO Compound ID>  (250) 
102006

>  <gnina_score_min>  (250) 
5.018

>  <name>  (250) 
P65077

>  <exports>  (250) 
['/opt/xchem-fragalysis-2/maxwin/BulkDock/OUTPUTS/openbind_d68ev3c_c2_elabs_1LOTQJ3.sdf', '/opt/xchem-fragalysis-2/maxwin/BulkDock/OUTPUTS/openbind_d68ev3c_c2_elabs_1LSYEHW.sdf', '/opt/xchem-fragalysis-2/maxwin/BulkDock/OUTPUTS/openbind_d68ev3c_c2_elabs_1LSYI5W.sdf']

$$$$
P65093
     RDKit          3D

 21 22  0  0  0  0  0  0  0  0999 V2000
    2.1844   -2.7518   33.7419 C   0  0  0  0  0  0  0  0  0  0  0  0
    2.7726   -3.7232   34.7543 C   0  0  0  0  0  0  0  0  0  0  0  0
    1.9971   -3.7227   36.0545 C   0  0  0  0  0  0  0  0  0  0  0  0
    2.4396   -2.8797   37.0899 C   0  0  0  0  0  0  0  0  0  0  0  0
    1.7884   -2.8726   38.3223 C   0  0  0  0  0  0  0  0  0  0  0  0
    2.4254   -1.7521   39.7061 Br  0  0  0  0  0  0  0  0  0  0  0  0
    0.6823   -3.6897   38.5245 C   0  0  0  0  0  0  0  0  0  0  0  0
    0.0350   -3.6883   39.6992 F   0  0  0  0  0  0  0  0  0  0  0  0
    0.2180   -4.5204   37.5121 C   0  0  0  0  0  0  0  0  0  0  0  0
    0.8724   -4.5433   36.2802 C   0  0  0  0  0  0  0  0  0  0  0  0
    0.3998   -5.3501   35.2515 N   0  0  0  0  0  0  0  0  0  0  0  0
   -0.6652   -6.4701   35.2623 C   0  0  0  0  0  0  0  0  0  0  0  0
   -1.3674   -6.8385   36.1197 O   0  0  0  0  0  0  0  0  0  0  0  0
   -0.8682   -7.0925   33.9182 C   0  0  0  0  0  0  0  0  0  0  0  0
   -1.6439   -8.2541   33.8319 C   0  0  0  0  0  0  0  0  0  0  0  0
   -1.9664   -8.7405   32.5770 C   0  0  0  0  0  0  0  0  0  0  0  0
   -1.5728   -8.1648   31.4192 N   0  0  0  0  0  0  0  0  0  0  0  0
   -0.7789   -7.0692   31.5353 C   0  0  0  0  0  0  0  0  0  0  0  0
   -0.1629   -6.0937   29.8115 I   0  0  0  0  0  0  0  0  0  0  0  0
   -0.4147   -6.5060   32.7450 C   0  0  0  0  0  0  0  0  0  0  0  0
    0.3177   -5.3813   32.7692 F   0  0  0  0  0  0  0  0  0  0  0  0
  1  2  1  0
  2  3  1  0
  3  4  2  0
  4  5  1  0
  5  6  1  0
  5  7  2  0
  7  8  1  0
  7  9  1  0
  9 10  2  0
 10 11  1  0
 11 12  1  0
 12 13  2  0
 12 14  1  0
 14 15  2  0
 15 16  1  0
 16 17  2  0
 17 18  1  0
 18 19  1  0
 18 20  2  0
 20 21  1  0
 10  3  1  0
 20 14  1  0
M  END
>  <ref_mols>  (251) 
7gov-a

>  <gnina_score>  (251) 
5.257

>  <smina_score_min>  (251) 
-5.59

>  <ref_pdb>  (251) 
7gov-a

>  <inspiration_score>  (251) 
None

>  <inchikey>  (251) 
AULXQMZOQJZNDA-UHFFFAOYSA-N

>  <tags>  (251) 
BulkDock Fragalysis export,openbind_d68ev3c_c2_elabs_scored,openbind_d68ev3c_c2_elabs_scored_4.5plus,openbind_d68ev3c_c2_elabs,openbind_d68ev3c_c2_elabs_scored_5plus,syndirella_product,openbind_d68ev3c_c2_elabs_scored_top80percent,syndirella_placed

>  <smiles>  (251) 
CCc1cc(Br)c(F)cc1NC(=O)c1ccnc(I)c1F

>  <subsites>  (251) 
None

>  <rmsd(smina/fragmenstein)>  (251) 
0.976

>  <alias>  (251) 
None

>  <energy_score>  (251) 
-18.799839

>  <HIPPO Pose ID>  (251) 
65093

>  <distance_score>  (251) 
0.761506

>  <HIPPO Compound ID>  (251) 
102037

>  <gnina_score_min>  (251) 
5.012

>  <name>  (251) 
P65093

>  <exports>  (251) 
['/opt/xchem-fragalysis-2/maxwin/BulkDock/OUTPUTS/openbind_d68ev3c_c2_elabs_1LOTQJ3.sdf', '/opt/xchem-fragalysis-2/maxwin/BulkDock/OUTPUTS/openbind_d68ev3c_c2_elabs_1LSYEHW.sdf', '/opt/xchem-fragalysis-2/maxwin/BulkDock/OUTPUTS/openbind_d68ev3c_c2_elabs_1LSYI5W.sdf']

$$$$
P65096
     RDKit          3D

 21 22  0  0  0  0  0  0  0  0999 V2000
    2.1418   -4.7673   32.9506 O   0  0  0  0  0  0  0  0  0  0  0  0
    1.1378   -5.0502   33.4773 C   0  0  0  0  0  0  0  0  0  0  0  0
    0.5863   -4.6511   34.8738 N   0  0  0  0  0  0  0  0  0  0  0  0
    1.1801   -3.9238   35.9119 C   0  0  0  0  0  0  0  0  0  0  0  0
    0.3979   -3.9493   37.0888 C   0  0  0  0  0  0  0  0  0  0  0  0
    0.8314   -3.3452   38.2587 C   0  0  0  0  0  0  0  0  0  0  0  0
    0.0759   -3.4207   39.3623 F   0  0  0  0  0  0  0  0  0  0  0  0
    2.0350   -2.6747   38.2911 C   0  0  0  0  0  0  0  0  0  0  0  0
    2.8116   -2.6289   37.1340 C   0  0  0  0  0  0  0  0  0  0  0  0
    2.4113   -3.2605   35.9296 C   0  0  0  0  0  0  0  0  0  0  0  0
    3.3585   -3.1605   34.7648 C   0  0  0  0  0  0  0  0  0  0  0  0
    4.5263   -2.5093   35.0851 F   0  0  0  0  0  0  0  0  0  0  0  0
    2.8436   -2.4196   33.7422 F   0  0  0  0  0  0  0  0  0  0  0  0
    0.2334   -6.0211   32.8050 C   0  0  0  0  0  0  0  0  0  0  0  0
    0.1968   -6.1283   31.4191 C   0  0  0  0  0  0  0  0  0  0  0  0
   -0.6420   -7.0804   30.8553 C   0  0  0  0  0  0  0  0  0  0  0  0
   -1.4591   -7.8952   31.5672 N   0  0  0  0  0  0  0  0  0  0  0  0
   -1.3566   -7.7871   32.9133 C   0  0  0  0  0  0  0  0  0  0  0  0
   -2.5111   -8.9324   34.1577 I   0  0  0  0  0  0  0  0  0  0  0  0
   -0.5217   -6.8998   33.5593 C   0  0  0  0  0  0  0  0  0  0  0  0
   -0.4531   -6.8880   34.9025 F   0  0  0  0  0  0  0  0  0  0  0  0
  1  2  2  0
  2  3  1  0
  3  4  1  0
  4  5  2  0
  5  6  1  0
  6  7  1  0
  6  8  2  0
  8  9  1  0
  9 10  2  0
 10 11  1  0
 11 12  1  0
 11 13  1  0
  2 14  1  0
 14 15  2  0
 15 16  1  0
 16 17  2  0
 17 18  1  0
 18 19  1  0
 18 20  2  0
 20 21  1  0
 10  4  1  0
 20 14  1  0
M  END
>  <ref_mols>  (252) 
7gov-a

>  <gnina_score>  (252) 
5.027

>  <smina_score_min>  (252) 
-4.615

>  <ref_pdb>  (252) 
7gov-a

>  <inspiration_score>  (252) 
None

>  <inchikey>  (252) 
BZTWLUFGBNLYAV-UHFFFAOYSA-N

>  <tags>  (252) 
BulkDock Fragalysis export,openbind_d68ev3c_c2_elabs_scored,openbind_d68ev3c_c2_elabs_scored_4.5plus,openbind_d68ev3c_c2_elabs,openbind_d68ev3c_c2_elabs_scored_5plus,syndirella_product,openbind_d68ev3c_c2_elabs_scored_top80percent,syndirella_placed

>  <smiles>  (252) 
O=C(Nc1cc(F)ccc1C(F)F)c1ccnc(I)c1F

>  <subsites>  (252) 
None

>  <rmsd(smina/fragmenstein)>  (252) 
1.556

>  <alias>  (252) 
None

>  <energy_score>  (252) 
-9.305301

>  <HIPPO Pose ID>  (252) 
65096

>  <distance_score>  (252) 
1.336076

>  <HIPPO Compound ID>  (252) 
102040

>  <gnina_score_min>  (252) 
5.203

>  <name>  (252) 
P65096

>  <exports>  (252) 
['/opt/xchem-fragalysis-2/maxwin/BulkDock/OUTPUTS/openbind_d68ev3c_c2_elabs_1LOTQJ3.sdf', '/opt/xchem-fragalysis-2/maxwin/BulkDock/OUTPUTS/openbind_d68ev3c_c2_elabs_1LSYEHW.sdf', '/opt/xchem-fragalysis-2/maxwin/BulkDock/OUTPUTS/openbind_d68ev3c_c2_elabs_1LSYI5W.sdf']

$$$$
P65097
     RDKit          3D

 21 22  0  0  0  0  0  0  0  0999 V2000
    4.3298   -2.6469   34.6450 O   0  0  0  0  0  0  0  0  0  0  0  0
    3.5181   -3.5363   34.8858 C   0  0  0  0  0  0  0  0  0  0  0  0
    2.5090   -3.3776   35.9467 C   0  0  0  0  0  0  0  0  0  0  0  0
    2.9265   -2.6463   37.0753 C   0  0  0  0  0  0  0  0  0  0  0  0
    2.1526   -2.6270   38.2343 C   0  0  0  0  0  0  0  0  0  0  0  0
    2.7145   -1.7757   39.6205 Cl  0  0  0  0  0  0  0  0  0  0  0  0
    0.9512   -3.3192   38.2671 C   0  0  0  0  0  0  0  0  0  0  0  0
    0.1930   -3.3467   39.3735 F   0  0  0  0  0  0  0  0  0  0  0  0
    0.5079   -4.0023   37.1417 C   0  0  0  0  0  0  0  0  0  0  0  0
    1.2737   -4.0294   35.9597 C   0  0  0  0  0  0  0  0  0  0  0  0
    0.6639   -4.7528   34.9336 N   0  0  0  0  0  0  0  0  0  0  0  0
    1.0659   -4.9241   33.4429 C   0  0  0  0  0  0  0  0  0  0  0  0
    1.9250   -4.4242   32.8281 O   0  0  0  0  0  0  0  0  0  0  0  0
    0.2194   -5.9540   32.7649 C   0  0  0  0  0  0  0  0  0  0  0  0
    0.1761   -6.0320   31.3748 C   0  0  0  0  0  0  0  0  0  0  0  0
   -0.6289   -7.0002   30.7869 C   0  0  0  0  0  0  0  0  0  0  0  0
   -1.4198   -7.8547   31.4784 N   0  0  0  0  0  0  0  0  0  0  0  0
   -1.3154   -7.7753   32.8243 C   0  0  0  0  0  0  0  0  0  0  0  0
   -2.4452   -8.9665   34.0400 I   0  0  0  0  0  0  0  0  0  0  0  0
   -0.5023   -6.8828   33.4920 C   0  0  0  0  0  0  0  0  0  0  0  0
   -0.4281   -6.9204   34.8346 F   0  0  0  0  0  0  0  0  0  0  0  0
  1  2  2  0
  2  3  1  0
  3  4  2  0
  4  5  1  0
  5  6  1  0
  5  7  2  0
  7  8  1  0
  7  9  1  0
  9 10  2  0
 10 11  1  0
 11 12  1  0
 12 13  2  0
 12 14  1  0
 14 15  2  0
 15 16  1  0
 16 17  2  0
 17 18  1  0
 18 19  1  0
 18 20  2  0
 20 21  1  0
 10  3  1  0
 20 14  1  0
M  END
>  <ref_mols>  (253) 
7gov-a

>  <gnina_score>  (253) 
5.169

>  <smina_score_min>  (253) 
-4.693

>  <ref_pdb>  (253) 
7gov-a

>  <inspiration_score>  (253) 
None

>  <inchikey>  (253) 
KKFOIENWBCNVIR-UHFFFAOYSA-N

>  <tags>  (253) 
BulkDock Fragalysis export,openbind_d68ev3c_c2_elabs_scored,openbind_d68ev3c_c2_elabs_scored_4.5plus,openbind_d68ev3c_c2_elabs,openbind_d68ev3c_c2_elabs_scored_5plus,syndirella_product,openbind_d68ev3c_c2_elabs_scored_top80percent,syndirella_placed

>  <smiles>  (253) 
O=Cc1cc(Cl)c(F)cc1NC(=O)c1ccnc(I)c1F

>  <subsites>  (253) 
None

>  <rmsd(smina/fragmenstein)>  (253) 
1.892

>  <alias>  (253) 
None

>  <energy_score>  (253) 
-10.035246

>  <HIPPO Pose ID>  (253) 
65097

>  <distance_score>  (253) 
1.400895

>  <HIPPO Compound ID>  (253) 
102041

>  <gnina_score_min>  (253) 
5.187

>  <name>  (253) 
P65097

>  <exports>  (253) 
['/opt/xchem-fragalysis-2/maxwin/BulkDock/OUTPUTS/openbind_d68ev3c_c2_elabs_1LOTQJ3.sdf', '/opt/xchem-fragalysis-2/maxwin/BulkDock/OUTPUTS/openbind_d68ev3c_c2_elabs_1LSYEHW.sdf', '/opt/xchem-fragalysis-2/maxwin/BulkDock/OUTPUTS/openbind_d68ev3c_c2_elabs_1LSYI5W.sdf']

$$$$
P65098
     RDKit          3D

 21 22  0  0  0  0  0  0  0  0999 V2000
    2.0819   -4.6743   32.8933 O   0  0  0  0  0  0  0  0  0  0  0  0
    1.1067   -5.0030   33.4502 C   0  0  0  0  0  0  0  0  0  0  0  0
    0.5884   -4.6444   34.8732 N   0  0  0  0  0  0  0  0  0  0  0  0
    1.1908   -3.9089   35.9031 C   0  0  0  0  0  0  0  0  0  0  0  0
    0.4357   -3.9596   37.0964 C   0  0  0  0  0  0  0  0  0  0  0  0
    0.8924   -3.3785   38.2705 C   0  0  0  0  0  0  0  0  0  0  0  0
    0.1424   -3.4868   39.3777 F   0  0  0  0  0  0  0  0  0  0  0  0
    2.1029   -2.7141   38.2840 C   0  0  0  0  0  0  0  0  0  0  0  0
    2.7596   -1.9304   39.8736 Br  0  0  0  0  0  0  0  0  0  0  0  0
    2.8499   -2.6322   37.1091 C   0  0  0  0  0  0  0  0  0  0  0  0
    2.4150   -3.2262   35.8983 C   0  0  0  0  0  0  0  0  0  0  0  0
    3.3128   -3.1357   34.6945 C   0  0  0  0  0  0  0  0  0  0  0  0
    4.4132   -2.2388   34.8900 O   0  0  0  0  0  0  0  0  0  0  0  0
    0.2173   -5.9996   32.7907 C   0  0  0  0  0  0  0  0  0  0  0  0
    0.1829   -6.1182   31.4049 C   0  0  0  0  0  0  0  0  0  0  0  0
   -0.6440   -7.0832   30.8453 C   0  0  0  0  0  0  0  0  0  0  0  0
   -1.4539   -7.9008   31.5607 N   0  0  0  0  0  0  0  0  0  0  0  0
   -1.3545   -7.7830   32.9060 C   0  0  0  0  0  0  0  0  0  0  0  0
   -2.4991   -8.9347   34.1537 I   0  0  0  0  0  0  0  0  0  0  0  0
   -0.5304   -6.8823   33.5483 C   0  0  0  0  0  0  0  0  0  0  0  0
   -0.4677   -6.8624   34.8915 F   0  0  0  0  0  0  0  0  0  0  0  0
  1  2  2  0
  2  3  1  0
  3  4  1  0
  4  5  2  0
  5  6  1  0
  6  7  1  0
  6  8  2  0
  8  9  1  0
  8 10  1  0
 10 11  2  0
 11 12  1  0
 12 13  1  0
  2 14  1  0
 14 15  2  0
 15 16  1  0
 16 17  2  0
 17 18  1  0
 18 19  1  0
 18 20  2  0
 20 21  1  0
 11  4  1  0
 20 14  1  0
M  END
>  <ref_mols>  (254) 
7gov-a

>  <gnina_score>  (254) 
5.026

>  <smina_score_min>  (254) 
-4.62

>  <ref_pdb>  (254) 
7gov-a

>  <inspiration_score>  (254) 
None

>  <inchikey>  (254) 
CNTKVVGAYIQPAK-UHFFFAOYSA-N

>  <tags>  (254) 
BulkDock Fragalysis export,openbind_d68ev3c_c2_elabs_scored,openbind_d68ev3c_c2_elabs_scored_4.5plus,openbind_d68ev3c_c2_elabs,openbind_d68ev3c_c2_elabs_scored_5plus,syndirella_product,openbind_d68ev3c_c2_elabs_scored_top80percent,syndirella_placed

>  <smiles>  (254) 
O=C(Nc1cc(F)c(Br)cc1CO)c1ccnc(I)c1F

>  <subsites>  (254) 
None

>  <rmsd(smina/fragmenstein)>  (254) 
2.224

>  <alias>  (254) 
None

>  <energy_score>  (254) 
-8.646903

>  <HIPPO Pose ID>  (254) 
65098

>  <distance_score>  (254) 
1.356848

>  <HIPPO Compound ID>  (254) 
102042

>  <gnina_score_min>  (254) 
5.052

>  <name>  (254) 
P65098

>  <exports>  (254) 
['/opt/xchem-fragalysis-2/maxwin/BulkDock/OUTPUTS/openbind_d68ev3c_c2_elabs_1LOTQJ3.sdf', '/opt/xchem-fragalysis-2/maxwin/BulkDock/OUTPUTS/openbind_d68ev3c_c2_elabs_1LSYEHW.sdf', '/opt/xchem-fragalysis-2/maxwin/BulkDock/OUTPUTS/openbind_d68ev3c_c2_elabs_1LSYI5W.sdf']

$$$$
P65099
     RDKit          3D

 21 22  0  0  0  0  0  0  0  0999 V2000
    3.6847   -2.8660   34.5338 O   0  0  0  0  0  0  0  0  0  0  0  0
    2.9454   -3.7885   34.8602 C   0  0  0  0  0  0  0  0  0  0  0  0
    2.1150   -3.7282   36.0852 C   0  0  0  0  0  0  0  0  0  0  0  0
    2.5059   -2.8244   37.0837 C   0  0  0  0  0  0  0  0  0  0  0  0
    1.8060   -2.7795   38.2865 C   0  0  0  0  0  0  0  0  0  0  0  0
    2.3633   -1.5887   39.6452 Br  0  0  0  0  0  0  0  0  0  0  0  0
    0.7092   -3.6132   38.4821 C   0  0  0  0  0  0  0  0  0  0  0  0
    0.0194   -3.5801   39.6314 F   0  0  0  0  0  0  0  0  0  0  0  0
    0.2986   -4.4963   37.4880 C   0  0  0  0  0  0  0  0  0  0  0  0
    1.0022   -4.5689   36.2829 C   0  0  0  0  0  0  0  0  0  0  0  0
    0.5582   -5.4306   35.2785 N   0  0  0  0  0  0  0  0  0  0  0  0
   -0.5271   -6.5322   35.3072 C   0  0  0  0  0  0  0  0  0  0  0  0
   -1.1649   -6.9433   36.1949 O   0  0  0  0  0  0  0  0  0  0  0  0
   -0.8032   -7.1026   33.9510 C   0  0  0  0  0  0  0  0  0  0  0  0
   -1.6134   -8.2392   33.8515 C   0  0  0  0  0  0  0  0  0  0  0  0
   -1.9687   -8.6885   32.5905 C   0  0  0  0  0  0  0  0  0  0  0  0
   -1.5783   -8.0969   31.4386 N   0  0  0  0  0  0  0  0  0  0  0  0
   -0.7578   -7.0220   31.5661 C   0  0  0  0  0  0  0  0  0  0  0  0
   -0.1301   -6.0195   29.8608 I   0  0  0  0  0  0  0  0  0  0  0  0
   -0.3598   -6.4976   32.7829 C   0  0  0  0  0  0  0  0  0  0  0  0
    0.4121   -5.3992   32.8230 F   0  0  0  0  0  0  0  0  0  0  0  0
  1  2  2  0
  2  3  1  0
  3  4  2  0
  4  5  1  0
  5  6  1  0
  5  7  2  0
  7  8  1  0
  7  9  1  0
  9 10  2  0
 10 11  1  0
 11 12  1  0
 12 13  2  0
 12 14  1  0
 14 15  2  0
 15 16  1  0
 16 17  2  0
 17 18  1  0
 18 19  1  0
 18 20  2  0
 20 21  1  0
 10  3  1  0
 20 14  1  0
M  END
>  <ref_mols>  (255) 
7gov-a

>  <gnina_score>  (255) 
5.099

>  <smina_score_min>  (255) 
-5.666

>  <ref_pdb>  (255) 
7gov-a

>  <inspiration_score>  (255) 
None

>  <inchikey>  (255) 
DFYLTMBHAIVRFV-UHFFFAOYSA-N

>  <tags>  (255) 
BulkDock Fragalysis export,openbind_d68ev3c_c2_elabs_scored,openbind_d68ev3c_c2_elabs_scored_4.5plus,openbind_d68ev3c_c2_elabs,openbind_d68ev3c_c2_elabs_scored_5plus,syndirella_product,openbind_d68ev3c_c2_elabs_scored_top80percent,syndirella_placed

>  <smiles>  (255) 
O=Cc1cc(Br)c(F)cc1NC(=O)c1ccnc(I)c1F

>  <subsites>  (255) 
None

>  <rmsd(smina/fragmenstein)>  (255) 
1.093

>  <alias>  (255) 
None

>  <energy_score>  (255) 
-19.765251

>  <HIPPO Pose ID>  (255) 
65099

>  <distance_score>  (255) 
0.733323

>  <HIPPO Compound ID>  (255) 
102043

>  <gnina_score_min>  (255) 
5.005

>  <name>  (255) 
P65099

>  <exports>  (255) 
['/opt/xchem-fragalysis-2/maxwin/BulkDock/OUTPUTS/openbind_d68ev3c_c2_elabs_1LOTQJ3.sdf', '/opt/xchem-fragalysis-2/maxwin/BulkDock/OUTPUTS/openbind_d68ev3c_c2_elabs_1LSYEHW.sdf', '/opt/xchem-fragalysis-2/maxwin/BulkDock/OUTPUTS/openbind_d68ev3c_c2_elabs_1LSYI5W.sdf']

$$$$
P65100
     RDKit          3D

 21 22  0  0  0  0  0  0  0  0999 V2000
    2.1589   -1.9115   39.4851 C   0  0  0  0  0  0  0  0  0  0  0  0
    1.7577   -2.8127   38.3518 C   0  0  0  0  0  0  0  0  0  0  0  0
    0.6701   -3.6701   38.5264 C   0  0  0  0  0  0  0  0  0  0  0  0
    0.0004   -3.6737   39.6884 F   0  0  0  0  0  0  0  0  0  0  0  0
    0.2339   -4.5171   37.5198 C   0  0  0  0  0  0  0  0  0  0  0  0
    0.9032   -4.5404   36.3007 C   0  0  0  0  0  0  0  0  0  0  0  0
    0.4233   -5.3422   35.2674 N   0  0  0  0  0  0  0  0  0  0  0  0
   -0.6390   -6.4658   35.2782 C   0  0  0  0  0  0  0  0  0  0  0  0
   -1.3331   -6.8431   36.1386 O   0  0  0  0  0  0  0  0  0  0  0  0
   -0.8508   -7.0777   33.9301 C   0  0  0  0  0  0  0  0  0  0  0  0
   -1.6274   -8.2385   33.8381 C   0  0  0  0  0  0  0  0  0  0  0  0
   -1.9521   -8.7182   32.5807 C   0  0  0  0  0  0  0  0  0  0  0  0
   -1.5601   -8.1362   31.4253 N   0  0  0  0  0  0  0  0  0  0  0  0
   -0.7659   -7.0409   31.5469 C   0  0  0  0  0  0  0  0  0  0  0  0
   -0.1452   -6.0544   29.8301 I   0  0  0  0  0  0  0  0  0  0  0  0
   -0.4004   -6.4838   32.7595 C   0  0  0  0  0  0  0  0  0  0  0  0
    0.3309   -5.3580   32.7890 F   0  0  0  0  0  0  0  0  0  0  0  0
    2.0333   -3.7190   36.0817 C   0  0  0  0  0  0  0  0  0  0  0  0
    2.7808   -3.7941   34.7698 C   0  0  0  0  0  0  0  0  0  0  0  0
    2.4292   -2.8327   37.1128 C   0  0  0  0  0  0  0  0  0  0  0  0
    3.8776   -1.6083   36.8370 Br  0  0  0  0  0  0  0  0  0  0  0  0
  1  2  1  0
  2  3  2  0
  3  4  1  0
  3  5  1  0
  5  6  2  0
  6  7  1  0
  7  8  1  0
  8  9  2  0
  8 10  1  0
 10 11  2  0
 11 12  1  0
 12 13  2  0
 13 14  1  0
 14 15  1  0
 14 16  2  0
 16 17  1  0
  6 18  1  0
 18 19  1  0
 18 20  2  0
 20 21  1  0
 20  2  1  0
 16 10  1  0
M  END
>  <ref_mols>  (256) 
7gov-a

>  <gnina_score>  (256) 
5.211

>  <smina_score_min>  (256) 
-5.837

>  <ref_pdb>  (256) 
7gov-a

>  <inspiration_score>  (256) 
None

>  <inchikey>  (256) 
RGXUJMBMOIRLGM-UHFFFAOYSA-N

>  <tags>  (256) 
BulkDock Fragalysis export,openbind_d68ev3c_c2_elabs_scored,openbind_d68ev3c_c2_elabs_scored_4.5plus,openbind_d68ev3c_c2_elabs,openbind_d68ev3c_c2_elabs_scored_5plus,syndirella_product,openbind_d68ev3c_c2_elabs_scored_top80percent,syndirella_placed

>  <smiles>  (256) 
Cc1c(F)cc(NC(=O)c2ccnc(I)c2F)c(C)c1Br

>  <subsites>  (256) 
None

>  <rmsd(smina/fragmenstein)>  (256) 
0.949

>  <alias>  (256) 
None

>  <energy_score>  (256) 
-22.109689

>  <HIPPO Pose ID>  (256) 
65100

>  <distance_score>  (256) 
0.761956

>  <HIPPO Compound ID>  (256) 
102045

>  <gnina_score_min>  (256) 
5.116

>  <name>  (256) 
P65100

>  <exports>  (256) 
['/opt/xchem-fragalysis-2/maxwin/BulkDock/OUTPUTS/openbind_d68ev3c_c2_elabs_1LOTQJ3.sdf', '/opt/xchem-fragalysis-2/maxwin/BulkDock/OUTPUTS/openbind_d68ev3c_c2_elabs_1LSYEHW.sdf', '/opt/xchem-fragalysis-2/maxwin/BulkDock/OUTPUTS/openbind_d68ev3c_c2_elabs_1LSYI5W.sdf']

$$$$
P65101
     RDKit          3D

 21 22  0  0  0  0  0  0  0  0999 V2000
    4.1635   -4.5178   34.5535 C   0  0  0  0  0  0  0  0  0  0  0  0
    3.4160   -3.1871   34.6952 C   0  0  0  0  0  0  0  0  0  0  0  0
    4.4574   -2.0500   34.7235 C   0  0  0  0  0  0  0  0  0  0  0  0
    2.4427   -3.2318   35.8610 C   0  0  0  0  0  0  0  0  0  0  0  0
    2.8394   -2.6281   37.0839 C   0  0  0  0  0  0  0  0  0  0  0  0
    2.0555   -2.6682   38.2377 C   0  0  0  0  0  0  0  0  0  0  0  0
    0.8457   -3.3194   38.1967 C   0  0  0  0  0  0  0  0  0  0  0  0
    0.0860   -3.3984   39.2975 F   0  0  0  0  0  0  0  0  0  0  0  0
    0.4161   -3.9104   37.0211 C   0  0  0  0  0  0  0  0  0  0  0  0
    1.1980   -3.8872   35.8384 C   0  0  0  0  0  0  0  0  0  0  0  0
    0.5794   -4.6537   34.8360 N   0  0  0  0  0  0  0  0  0  0  0  0
    0.9908   -4.9044   33.3563 C   0  0  0  0  0  0  0  0  0  0  0  0
    1.8644   -4.4496   32.7247 O   0  0  0  0  0  0  0  0  0  0  0  0
    0.1415   -5.9576   32.7288 C   0  0  0  0  0  0  0  0  0  0  0  0
    0.1197   -6.1110   31.3449 C   0  0  0  0  0  0  0  0  0  0  0  0
   -0.6695   -7.1145   30.8003 C   0  0  0  0  0  0  0  0  0  0  0  0
   -1.4594   -7.9404   31.5272 N   0  0  0  0  0  0  0  0  0  0  0  0
   -1.3733   -7.7884   32.8698 C   0  0  0  0  0  0  0  0  0  0  0  0
   -2.4854   -8.9497   34.1371 I   0  0  0  0  0  0  0  0  0  0  0  0
   -0.5856   -6.8465   33.4990 C   0  0  0  0  0  0  0  0  0  0  0  0
   -0.5474   -6.7968   34.8421 F   0  0  0  0  0  0  0  0  0  0  0  0
  1  2  1  0
  2  3  1  0
  2  4  1  0
  4  5  2  0
  5  6  1  0
  6  7  2  0
  7  8  1  0
  7  9  1  0
  9 10  2  0
 10 11  1  0
 11 12  1  0
 12 13  2  0
 12 14  1  0
 14 15  2  0
 15 16  1  0
 16 17  2  0
 17 18  1  0
 18 19  1  0
 18 20  2  0
 20 21  1  0
 10  4  1  0
 20 14  1  0
M  END
>  <ref_mols>  (257) 
7gov-a

>  <gnina_score>  (257) 
5.139

>  <smina_score_min>  (257) 
-4.399

>  <ref_pdb>  (257) 
7gov-a

>  <inspiration_score>  (257) 
None

>  <inchikey>  (257) 
AABKSUDQUGOZEO-UHFFFAOYSA-N

>  <tags>  (257) 
BulkDock Fragalysis export,openbind_d68ev3c_c2_elabs_scored,openbind_d68ev3c_c2_elabs_scored_4.5plus,openbind_d68ev3c_c2_elabs,openbind_d68ev3c_c2_elabs_scored_5plus,syndirella_product,openbind_d68ev3c_c2_elabs_scored_top80percent,syndirella_placed

>  <smiles>  (257) 
CC(C)c1ccc(F)cc1NC(=O)c1ccnc(I)c1F

>  <subsites>  (257) 
None

>  <rmsd(smina/fragmenstein)>  (257) 
0.886

>  <alias>  (257) 
None

>  <energy_score>  (257) 
-6.511856

>  <HIPPO Pose ID>  (257) 
65101

>  <distance_score>  (257) 
1.4075

>  <HIPPO Compound ID>  (257) 
102047

>  <gnina_score_min>  (257) 
5.279

>  <name>  (257) 
P65101

>  <exports>  (257) 
['/opt/xchem-fragalysis-2/maxwin/BulkDock/OUTPUTS/openbind_d68ev3c_c2_elabs_1LOTQJ3.sdf', '/opt/xchem-fragalysis-2/maxwin/BulkDock/OUTPUTS/openbind_d68ev3c_c2_elabs_1LSYEHW.sdf', '/opt/xchem-fragalysis-2/maxwin/BulkDock/OUTPUTS/openbind_d68ev3c_c2_elabs_1LSYI5W.sdf']

$$$$
P65103
     RDKit          3D

 21 23  0  0  0  0  0  0  0  0999 V2000
    0.7019   -6.9032   35.8423 O   0  0  0  0  0  0  0  0  0  0  0  0
    0.6922   -6.0634   35.0363 C   0  0  0  0  0  0  0  0  0  0  0  0
    1.0511   -4.5785   35.1449 N   0  0  0  0  0  0  0  0  0  0  0  0
    1.3942   -3.8167   36.2435 C   0  0  0  0  0  0  0  0  0  0  0  0
    0.8213   -4.1452   37.4752 C   0  0  0  0  0  0  0  0  0  0  0  0
    1.0874   -3.3546   38.5745 C   0  0  0  0  0  0  0  0  0  0  0  0
    0.4928   -3.6267   39.7435 F   0  0  0  0  0  0  0  0  0  0  0  0
    1.9384   -2.2660   38.4669 C   0  0  0  0  0  0  0  0  0  0  0  0
    2.5196   -1.9586   37.2313 C   0  0  0  0  0  0  0  0  0  0  0  0
    2.2596   -2.7246   36.0825 C   0  0  0  0  0  0  0  0  0  0  0  0
    2.9136   -2.3970   34.7544 C   0  0  0  0  0  0  0  0  0  0  0  0
    3.8268   -3.4042   34.0900 C   0  0  0  0  0  0  0  0  0  0  0  0
    4.4059   -2.1574   34.6823 C   0  0  0  0  0  0  0  0  0  0  0  0
    0.1704   -6.3944   33.6985 C   0  0  0  0  0  0  0  0  0  0  0  0
    0.6648   -5.9016   32.4903 C   0  0  0  0  0  0  0  0  0  0  0  0
    0.0720   -6.3421   31.3156 C   0  0  0  0  0  0  0  0  0  0  0  0
   -0.9498   -7.2176   31.2779 N   0  0  0  0  0  0  0  0  0  0  0  0
   -1.3626   -7.6863   32.4732 C   0  0  0  0  0  0  0  0  0  0  0  0
   -2.7347   -9.1405   32.4840 I   0  0  0  0  0  0  0  0  0  0  0  0
   -0.8764   -7.2893   33.6921 C   0  0  0  0  0  0  0  0  0  0  0  0
   -1.4151   -7.7521   34.8326 F   0  0  0  0  0  0  0  0  0  0  0  0
  1  2  2  0
  2  3  1  0
  3  4  1  0
  4  5  2  0
  5  6  1  0
  6  7  1  0
  6  8  2  0
  8  9  1  0
  9 10  2  0
 10 11  1  0
 11 12  1  0
 12 13  1  0
  2 14  1  0
 14 15  2  0
 15 16  1  0
 16 17  2  0
 17 18  1  0
 18 19  1  0
 18 20  2  0
 20 21  1  0
 10  4  1  0
 13 11  1  0
 20 14  1  0
M  END
>  <ref_mols>  (258) 
7gov-a

>  <gnina_score>  (258) 
5.14

>  <smina_score_min>  (258) 
-4.267

>  <ref_pdb>  (258) 
7gov-a

>  <inspiration_score>  (258) 
None

>  <inchikey>  (258) 
YWEQSCPIXKCOLQ-UHFFFAOYSA-N

>  <tags>  (258) 
BulkDock Fragalysis export,openbind_d68ev3c_c2_elabs_scored,openbind_d68ev3c_c2_elabs_scored_4.5plus,openbind_d68ev3c_c2_elabs,openbind_d68ev3c_c2_elabs_scored_5plus,syndirella_product,openbind_d68ev3c_c2_elabs_scored_top80percent,syndirella_placed

>  <smiles>  (258) 
O=C(Nc1cc(F)ccc1C1CC1)c1ccnc(I)c1F

>  <subsites>  (258) 
None

>  <rmsd(smina/fragmenstein)>  (258) 
1.462

>  <alias>  (258) 
None

>  <energy_score>  (258) 
-7.823213

>  <HIPPO Pose ID>  (258) 
65103

>  <distance_score>  (258) 
1.106474

>  <HIPPO Compound ID>  (258) 
102049

>  <gnina_score_min>  (258) 
5.117

>  <name>  (258) 
P65103

>  <exports>  (258) 
['/opt/xchem-fragalysis-2/maxwin/BulkDock/OUTPUTS/openbind_d68ev3c_c2_elabs_1LOTQJ3.sdf', '/opt/xchem-fragalysis-2/maxwin/BulkDock/OUTPUTS/openbind_d68ev3c_c2_elabs_1LSYEHW.sdf', '/opt/xchem-fragalysis-2/maxwin/BulkDock/OUTPUTS/openbind_d68ev3c_c2_elabs_1LSYI5W.sdf']

$$$$
P65105
     RDKit          3D

 21 22  0  0  0  0  0  0  0  0999 V2000
    4.1181   -2.4961   34.4805 O   0  0  0  0  0  0  0  0  0  0  0  0
    3.4860   -3.4690   34.8780 C   0  0  0  0  0  0  0  0  0  0  0  0
    2.5012   -3.3600   35.9590 C   0  0  0  0  0  0  0  0  0  0  0  0
    2.9069   -2.6610   37.1062 C   0  0  0  0  0  0  0  0  0  0  0  0
    4.0967   -2.0415   37.1549 F   0  0  0  0  0  0  0  0  0  0  0  0
    2.1263   -2.6315   38.2583 C   0  0  0  0  0  0  0  0  0  0  0  0
    0.9276   -3.3159   38.2686 C   0  0  0  0  0  0  0  0  0  0  0  0
    0.1746   -3.3351   39.3760 F   0  0  0  0  0  0  0  0  0  0  0  0
    0.4922   -3.9925   37.1380 C   0  0  0  0  0  0  0  0  0  0  0  0
    1.2682   -4.0162   35.9611 C   0  0  0  0  0  0  0  0  0  0  0  0
    0.6629   -4.7409   34.9301 N   0  0  0  0  0  0  0  0  0  0  0  0
    1.1102   -4.9703   33.4605 C   0  0  0  0  0  0  0  0  0  0  0  0
    2.0122   -4.5257   32.8656 O   0  0  0  0  0  0  0  0  0  0  0  0
    0.2436   -5.9808   32.7824 C   0  0  0  0  0  0  0  0  0  0  0  0
    0.1964   -6.0590   31.3931 C   0  0  0  0  0  0  0  0  0  0  0  0
   -0.6252   -7.0155   30.8094 C   0  0  0  0  0  0  0  0  0  0  0  0
   -1.4258   -7.8585   31.5049 N   0  0  0  0  0  0  0  0  0  0  0  0
   -1.3169   -7.7790   32.8508 C   0  0  0  0  0  0  0  0  0  0  0  0
   -2.4605   -8.9547   34.0713 I   0  0  0  0  0  0  0  0  0  0  0  0
   -0.4897   -6.8964   33.5144 C   0  0  0  0  0  0  0  0  0  0  0  0
   -0.4127   -6.9274   34.8572 F   0  0  0  0  0  0  0  0  0  0  0  0
  1  2  2  0
  2  3  1  0
  3  4  2  0
  4  5  1  0
  4  6  1  0
  6  7  2  0
  7  8  1  0
  7  9  1  0
  9 10  2  0
 10 11  1  0
 11 12  1  0
 12 13  2  0
 12 14  1  0
 14 15  2  0
 15 16  1  0
 16 17  2  0
 17 18  1  0
 18 19  1  0
 18 20  2  0
 20 21  1  0
 10  3  1  0
 20 14  1  0
M  END
>  <ref_mols>  (259) 
7gov-a

>  <gnina_score>  (259) 
5.077

>  <smina_score_min>  (259) 
-4.598

>  <ref_pdb>  (259) 
7gov-a

>  <inspiration_score>  (259) 
None

>  <inchikey>  (259) 
IPUUQYQHLHEXOX-UHFFFAOYSA-N

>  <tags>  (259) 
BulkDock Fragalysis export,openbind_d68ev3c_c2_elabs_scored,openbind_d68ev3c_c2_elabs_scored_4.5plus,openbind_d68ev3c_c2_elabs,openbind_d68ev3c_c2_elabs_scored_5plus,syndirella_product,openbind_d68ev3c_c2_elabs_scored_top80percent,syndirella_placed

>  <smiles>  (259) 
O=Cc1c(F)cc(F)cc1NC(=O)c1ccnc(I)c1F

>  <subsites>  (259) 
None

>  <rmsd(smina/fragmenstein)>  (259) 
2.448

>  <alias>  (259) 
None

>  <energy_score>  (259) 
-2.645045

>  <HIPPO Pose ID>  (259) 
65105

>  <distance_score>  (259) 
1.382312

>  <HIPPO Compound ID>  (259) 
102053

>  <gnina_score_min>  (259) 
5.064

>  <name>  (259) 
P65105

>  <exports>  (259) 
['/opt/xchem-fragalysis-2/maxwin/BulkDock/OUTPUTS/openbind_d68ev3c_c2_elabs_1LOTQJ3.sdf', '/opt/xchem-fragalysis-2/maxwin/BulkDock/OUTPUTS/openbind_d68ev3c_c2_elabs_1LSYEHW.sdf', '/opt/xchem-fragalysis-2/maxwin/BulkDock/OUTPUTS/openbind_d68ev3c_c2_elabs_1LSYI5W.sdf']

$$$$
P65109
     RDKit          3D

 21 22  0  0  0  0  0  0  0  0999 V2000
    3.2880   -3.7103   33.8126 N   0  0  0  0  0  0  0  0  0  0  0  0
    2.7433   -3.7166   34.8376 C   0  0  0  0  0  0  0  0  0  0  0  0
    2.0370   -3.7018   36.0889 C   0  0  0  0  0  0  0  0  0  0  0  0
    2.5079   -2.8503   37.1018 C   0  0  0  0  0  0  0  0  0  0  0  0
    1.8698   -2.8113   38.3398 C   0  0  0  0  0  0  0  0  0  0  0  0
    0.7617   -3.6185   38.5593 C   0  0  0  0  0  0  0  0  0  0  0  0
    0.1406   -3.5652   39.7452 F   0  0  0  0  0  0  0  0  0  0  0  0
    0.2805   -4.4624   37.5640 C   0  0  0  0  0  0  0  0  0  0  0  0
   -0.8254   -5.1695   37.8280 F   0  0  0  0  0  0  0  0  0  0  0  0
    0.9114   -4.5222   36.3163 C   0  0  0  0  0  0  0  0  0  0  0  0
    0.4232   -5.3209   35.2716 N   0  0  0  0  0  0  0  0  0  0  0  0
   -0.5311   -6.5390   35.2991 C   0  0  0  0  0  0  0  0  0  0  0  0
   -1.1199   -7.0193   36.1860 O   0  0  0  0  0  0  0  0  0  0  0  0
   -0.7916   -7.1046   33.9371 C   0  0  0  0  0  0  0  0  0  0  0  0
   -1.5902   -8.2500   33.8313 C   0  0  0  0  0  0  0  0  0  0  0  0
   -1.9436   -8.6975   32.5695 C   0  0  0  0  0  0  0  0  0  0  0  0
   -1.5596   -8.0985   31.4198 N   0  0  0  0  0  0  0  0  0  0  0  0
   -0.7457   -7.0185   31.5525 C   0  0  0  0  0  0  0  0  0  0  0  0
   -0.1262   -6.0041   29.8501 I   0  0  0  0  0  0  0  0  0  0  0  0
   -0.3535   -6.4932   32.7711 C   0  0  0  0  0  0  0  0  0  0  0  0
    0.3975   -5.3815   32.8120 F   0  0  0  0  0  0  0  0  0  0  0  0
  1  2  3  0
  2  3  1  0
  3  4  2  0
  4  5  1  0
  5  6  2  0
  6  7  1  0
  6  8  1  0
  8  9  1  0
  8 10  2  0
 10 11  1  0
 11 12  1  0
 12 13  2  0
 12 14  1  0
 14 15  2  0
 15 16  1  0
 16 17  2  0
 17 18  1  0
 18 19  1  0
 18 20  2  0
 20 21  1  0
 10  3  1  0
 20 14  1  0
M  END
>  <ref_mols>  (260) 
7gov-a

>  <gnina_score>  (260) 
5.159

>  <smina_score_min>  (260) 
-5.334

>  <ref_pdb>  (260) 
7gov-a

>  <inspiration_score>  (260) 
None

>  <inchikey>  (260) 
IZPZSPPOYUKSHG-UHFFFAOYSA-N

>  <tags>  (260) 
BulkDock Fragalysis export,openbind_d68ev3c_c2_elabs_scored,openbind_d68ev3c_c2_elabs_scored_4.5plus,openbind_d68ev3c_c2_elabs,openbind_d68ev3c_c2_elabs_scored_5plus,syndirella_product,openbind_d68ev3c_c2_elabs_scored_top80percent,syndirella_placed

>  <smiles>  (260) 
N#Cc1ccc(F)c(F)c1NC(=O)c1ccnc(I)c1F

>  <subsites>  (260) 
None

>  <rmsd(smina/fragmenstein)>  (260) 
0.851

>  <alias>  (260) 
None

>  <energy_score>  (260) 
-7.820489

>  <HIPPO Pose ID>  (260) 
65109

>  <distance_score>  (260) 
0.722473

>  <HIPPO Compound ID>  (260) 
102059

>  <gnina_score_min>  (260) 
5.075

>  <name>  (260) 
P65109

>  <exports>  (260) 
['/opt/xchem-fragalysis-2/maxwin/BulkDock/OUTPUTS/openbind_d68ev3c_c2_elabs_1LOTQJ3.sdf', '/opt/xchem-fragalysis-2/maxwin/BulkDock/OUTPUTS/openbind_d68ev3c_c2_elabs_1LSYEHW.sdf', '/opt/xchem-fragalysis-2/maxwin/BulkDock/OUTPUTS/openbind_d68ev3c_c2_elabs_1LSYI5W.sdf']

$$$$
P65111
     RDKit          3D

 21 22  0  0  0  0  0  0  0  0999 V2000
    3.4444   -3.4737   34.8086 C   0  0  0  0  0  0  0  0  0  0  0  0
    2.4686   -3.3668   35.9457 C   0  0  0  0  0  0  0  0  0  0  0  0
    2.8699   -2.7148   37.1450 C   0  0  0  0  0  0  0  0  0  0  0  0
    4.1512   -2.0754   37.2811 C   0  0  0  0  0  0  0  0  0  0  0  0
    5.1748   -1.5460   37.4268 N   0  0  0  0  0  0  0  0  0  0  0  0
    2.0446   -2.6983   38.2776 C   0  0  0  0  0  0  0  0  0  0  0  0
    0.8187   -3.3245   38.2321 C   0  0  0  0  0  0  0  0  0  0  0  0
    0.0398   -3.3515   39.3211 F   0  0  0  0  0  0  0  0  0  0  0  0
    0.3878   -3.9309   37.0666 C   0  0  0  0  0  0  0  0  0  0  0  0
    1.1926   -3.9508   35.9075 C   0  0  0  0  0  0  0  0  0  0  0  0
    0.5847   -4.6725   34.8725 N   0  0  0  0  0  0  0  0  0  0  0  0
    1.0385   -4.9088   33.4021 C   0  0  0  0  0  0  0  0  0  0  0  0
    1.9490   -4.4730   32.8104 O   0  0  0  0  0  0  0  0  0  0  0  0
    0.1876   -5.9362   32.7325 C   0  0  0  0  0  0  0  0  0  0  0  0
    0.1580   -6.0396   31.3445 C   0  0  0  0  0  0  0  0  0  0  0  0
   -0.6371   -7.0228   30.7689 C   0  0  0  0  0  0  0  0  0  0  0  0
   -1.4263   -7.8714   31.4701 N   0  0  0  0  0  0  0  0  0  0  0  0
   -1.3305   -7.7689   32.8157 C   0  0  0  0  0  0  0  0  0  0  0  0
   -2.4415   -8.9656   34.0443 I   0  0  0  0  0  0  0  0  0  0  0  0
   -0.5332   -6.8552   33.4729 C   0  0  0  0  0  0  0  0  0  0  0  0
   -0.4732   -6.8628   34.8165 F   0  0  0  0  0  0  0  0  0  0  0  0
  1  2  1  0
  2  3  2  0
  3  4  1  0
  4  5  3  0
  3  6  1  0
  6  7  2  0
  7  8  1  0
  7  9  1  0
  9 10  2  0
 10 11  1  0
 11 12  1  0
 12 13  2  0
 12 14  1  0
 14 15  2  0
 15 16  1  0
 16 17  2  0
 17 18  1  0
 18 19  1  0
 18 20  2  0
 20 21  1  0
 10  2  1  0
 20 14  1  0
M  END
>  <ref_mols>  (261) 
7gov-a

>  <gnina_score>  (261) 
5.087

>  <smina_score_min>  (261) 
-4.709

>  <ref_pdb>  (261) 
7gov-a

>  <inspiration_score>  (261) 
None

>  <inchikey>  (261) 
DUYNNFAZKPACJU-UHFFFAOYSA-N

>  <tags>  (261) 
BulkDock Fragalysis export,openbind_d68ev3c_c2_elabs_scored,openbind_d68ev3c_c2_elabs_scored_4.5plus,openbind_d68ev3c_c2_elabs,openbind_d68ev3c_c2_elabs_scored_5plus,syndirella_product,openbind_d68ev3c_c2_elabs_scored_top80percent,syndirella_placed

>  <smiles>  (261) 
Cc1c(C#N)cc(F)cc1NC(=O)c1ccnc(I)c1F

>  <subsites>  (261) 
None

>  <rmsd(smina/fragmenstein)>  (261) 
1.365

>  <alias>  (261) 
None

>  <energy_score>  (261) 
-5.878817

>  <HIPPO Pose ID>  (261) 
65111

>  <distance_score>  (261) 
1.393725

>  <HIPPO Compound ID>  (261) 
102061

>  <gnina_score_min>  (261) 
5.285

>  <name>  (261) 
P65111

>  <exports>  (261) 
['/opt/xchem-fragalysis-2/maxwin/BulkDock/OUTPUTS/openbind_d68ev3c_c2_elabs_1LOTQJ3.sdf', '/opt/xchem-fragalysis-2/maxwin/BulkDock/OUTPUTS/openbind_d68ev3c_c2_elabs_1LSYEHW.sdf', '/opt/xchem-fragalysis-2/maxwin/BulkDock/OUTPUTS/openbind_d68ev3c_c2_elabs_1LSYI5W.sdf']

$$$$
P65128
     RDKit          3D

 21 22  0  0  0  0  0  0  0  0999 V2000
    0.8464   -7.4161   35.2013 O   0  0  0  0  0  0  0  0  0  0  0  0
    0.0866   -6.6514   34.7601 C   0  0  0  0  0  0  0  0  0  0  0  0
   -0.2287   -5.2070   35.1769 N   0  0  0  0  0  0  0  0  0  0  0  0
    0.3668   -4.3945   36.1273 C   0  0  0  0  0  0  0  0  0  0  0  0
   -0.3933   -4.0065   37.2267 C   0  0  0  0  0  0  0  0  0  0  0  0
    0.2210   -3.3214   38.2694 C   0  0  0  0  0  0  0  0  0  0  0  0
   -0.4918   -3.0658   39.3754 F   0  0  0  0  0  0  0  0  0  0  0  0
    1.5550   -2.9396   38.1874 C   0  0  0  0  0  0  0  0  0  0  0  0
    2.3784   -1.9938   39.6027 Br  0  0  0  0  0  0  0  0  0  0  0  0
    2.2993   -3.2754   37.0601 C   0  0  0  0  0  0  0  0  0  0  0  0
    1.7280   -4.0432   36.0289 C   0  0  0  0  0  0  0  0  0  0  0  0
    2.6088   -4.4595   34.8780 C   0  0  0  0  0  0  0  0  0  0  0  0
    2.1188   -3.9173   33.6559 O   0  0  0  0  0  0  0  0  0  0  0  0
   -0.6463   -7.0495   33.5490 C   0  0  0  0  0  0  0  0  0  0  0  0
   -0.1220   -6.6267   32.3295 C   0  0  0  0  0  0  0  0  0  0  0  0
   -0.6455   -7.1947   31.1927 C   0  0  0  0  0  0  0  0  0  0  0  0
   -0.1303   -6.8665   29.9802 O   0  0  0  0  0  0  0  0  0  0  0  0
   -1.6228   -8.1172   31.1734 N   0  0  0  0  0  0  0  0  0  0  0  0
   -2.1142   -8.4881   32.3774 C   0  0  0  0  0  0  0  0  0  0  0  0
   -1.6733   -7.9794   33.5830 C   0  0  0  0  0  0  0  0  0  0  0  0
   -2.5643   -8.5057   35.1396 Br  0  0  0  0  0  0  0  0  0  0  0  0
  1  2  2  0
  2  3  1  0
  3  4  1  0
  4  5  2  0
  5  6  1  0
  6  7  1  0
  6  8  2  0
  8  9  1  0
  8 10  1  0
 10 11  2  0
 11 12  1  0
 12 13  1  0
  2 14  1  0
 14 15  2  0
 15 16  1  0
 16 17  1  0
 16 18  2  0
 18 19  1  0
 19 20  2  0
 20 21  1  0
 11  4  1  0
 20 14  1  0
M  END
>  <ref_mols>  (262) 
7gov-a

>  <gnina_score>  (262) 
4.979

>  <smina_score_min>  (262) 
-6.179

>  <ref_pdb>  (262) 
7gov-a

>  <inspiration_score>  (262) 
None

>  <inchikey>  (262) 
DEVKUOMEWSHQON-UHFFFAOYSA-N

>  <tags>  (262) 
BulkDock Fragalysis export,openbind_d68ev3c_c2_elabs_scored,openbind_d68ev3c_c2_elabs_scored_4.5plus,openbind_d68ev3c_c2_elabs,openbind_d68ev3c_c2_elabs_scored_5plus,syndirella_product,openbind_d68ev3c_c2_elabs_scored_top80percent,syndirella_placed

>  <smiles>  (262) 
O=C(Nc1cc(F)c(Br)cc1CO)c1cc(O)ncc1Br

>  <subsites>  (262) 
None

>  <rmsd(smina/fragmenstein)>  (262) 
0.924

>  <alias>  (262) 
None

>  <energy_score>  (262) 
-11.803764

>  <HIPPO Pose ID>  (262) 
65128

>  <distance_score>  (262) 
0.443092

>  <HIPPO Compound ID>  (262) 
102094

>  <gnina_score_min>  (262) 
5.037

>  <name>  (262) 
P65128

>  <exports>  (262) 
['/opt/xchem-fragalysis-2/maxwin/BulkDock/OUTPUTS/openbind_d68ev3c_c2_elabs_1LOTQJ3.sdf', '/opt/xchem-fragalysis-2/maxwin/BulkDock/OUTPUTS/openbind_d68ev3c_c2_elabs_1LSYEHW.sdf', '/opt/xchem-fragalysis-2/maxwin/BulkDock/OUTPUTS/openbind_d68ev3c_c2_elabs_1LSYI5W.sdf']

$$$$
P65137
     RDKit          3D

 21 22  0  0  0  0  0  0  0  0999 V2000
   -3.0700   -9.0565   35.1001 C   0  0  0  0  0  0  0  0  0  0  0  0
   -1.9412   -8.0548   34.9949 C   0  0  0  0  0  0  0  0  0  0  0  0
   -1.3660   -7.7980   33.6290 C   0  0  0  0  0  0  0  0  0  0  0  0
   -1.9647   -8.2666   32.4664 C   0  0  0  0  0  0  0  0  0  0  0  0
   -1.5682   -7.9441   31.2149 N   0  0  0  0  0  0  0  0  0  0  0  0
   -0.4920   -7.1324   31.1140 C   0  0  0  0  0  0  0  0  0  0  0  0
    0.1962   -6.6161   32.1984 C   0  0  0  0  0  0  0  0  0  0  0  0
   -0.2420   -6.9640   33.4736 C   0  0  0  0  0  0  0  0  0  0  0  0
    0.5230   -6.5331   34.6897 C   0  0  0  0  0  0  0  0  0  0  0  0
    0.7930   -7.3513   35.4738 O   0  0  0  0  0  0  0  0  0  0  0  0
    0.7343   -5.0103   34.7251 N   0  0  0  0  0  0  0  0  0  0  0  0
    1.2223   -4.1837   35.7435 C   0  0  0  0  0  0  0  0  0  0  0  0
    2.2998   -3.3296   35.4797 C   0  0  0  0  0  0  0  0  0  0  0  0
    2.9180   -3.3113   34.1863 C   0  0  0  0  0  0  0  0  0  0  0  0
    3.3810   -3.2683   33.1220 N   0  0  0  0  0  0  0  0  0  0  0  0
    2.8281   -2.5273   36.5041 C   0  0  0  0  0  0  0  0  0  0  0  0
    2.2806   -2.5646   37.7875 C   0  0  0  0  0  0  0  0  0  0  0  0
    1.2077   -3.4045   38.0476 C   0  0  0  0  0  0  0  0  0  0  0  0
    0.6652   -3.3977   39.2770 F   0  0  0  0  0  0  0  0  0  0  0  0
    0.6811   -4.2158   37.0419 C   0  0  0  0  0  0  0  0  0  0  0  0
   -0.8578   -5.2131   37.4806 Br  0  0  0  0  0  0  0  0  0  0  0  0
  1  2  1  0
  2  3  1  0
  3  4  2  0
  4  5  1  0
  5  6  2  0
  6  7  1  0
  7  8  2  0
  8  9  1  0
  9 10  2  0
  9 11  1  0
 11 12  1  0
 12 13  2  0
 13 14  1  0
 14 15  3  0
 13 16  1  0
 16 17  2  0
 17 18  1  0
 18 19  1  0
 18 20  2  0
 20 21  1  0
  8  3  1  0
 20 12  1  0
M  END
>  <ref_mols>  (263) 
7gov-a

>  <gnina_score>  (263) 
5.009

>  <smina_score_min>  (263) 
-4.925

>  <ref_pdb>  (263) 
7gov-a

>  <inspiration_score>  (263) 
None

>  <inchikey>  (263) 
KYFCNOWUIOXGLN-UHFFFAOYSA-N

>  <tags>  (263) 
BulkDock Fragalysis export,openbind_d68ev3c_c2_elabs_scored,openbind_d68ev3c_c2_elabs_scored_4.5plus,openbind_d68ev3c_c2_elabs,openbind_d68ev3c_c2_elabs_scored_5plus,syndirella_product,openbind_d68ev3c_c2_elabs_scored_top80percent,syndirella_placed

>  <smiles>  (263) 
CCc1cnccc1C(=O)Nc1c(C#N)ccc(F)c1Br

>  <subsites>  (263) 
None

>  <rmsd(smina/fragmenstein)>  (263) 
0.344

>  <alias>  (263) 
None

>  <energy_score>  (263) 
-7.863349

>  <HIPPO Pose ID>  (263) 
65137

>  <distance_score>  (263) 
0.597985

>  <HIPPO Compound ID>  (263) 
102108

>  <gnina_score_min>  (263) 
5.074

>  <name>  (263) 
P65137

>  <exports>  (263) 
['/opt/xchem-fragalysis-2/maxwin/BulkDock/OUTPUTS/openbind_d68ev3c_c2_elabs_1LOTQJ3.sdf', '/opt/xchem-fragalysis-2/maxwin/BulkDock/OUTPUTS/openbind_d68ev3c_c2_elabs_1LSYEHW.sdf', '/opt/xchem-fragalysis-2/maxwin/BulkDock/OUTPUTS/openbind_d68ev3c_c2_elabs_1LSYI5W.sdf']

$$$$
P65142
     RDKit          3D

 21 22  0  0  0  0  0  0  0  0999 V2000
    2.9330   -3.4823   33.3114 C   0  0  0  0  0  0  0  0  0  0  0  0
    2.4466   -3.5367   34.4081 C   0  0  0  0  0  0  0  0  0  0  0  0
    1.8685   -3.5993   35.7201 C   0  0  0  0  0  0  0  0  0  0  0  0
    2.4366   -2.8294   36.7428 C   0  0  0  0  0  0  0  0  0  0  0  0
    1.9384   -2.9139   38.0492 C   0  0  0  0  0  0  0  0  0  0  0  0
    2.5433   -2.1577   39.1002 C   0  0  0  0  0  0  0  0  0  0  0  0
    3.0602   -1.5293   39.9290 N   0  0  0  0  0  0  0  0  0  0  0  0
    0.8649   -3.7567   38.3205 C   0  0  0  0  0  0  0  0  0  0  0  0
    0.3461   -3.8246   39.5554 F   0  0  0  0  0  0  0  0  0  0  0  0
    0.3071   -4.5438   37.3194 C   0  0  0  0  0  0  0  0  0  0  0  0
    0.8079   -4.4690   36.0175 C   0  0  0  0  0  0  0  0  0  0  0  0
    0.2451   -5.2772   35.0346 N   0  0  0  0  0  0  0  0  0  0  0  0
   -0.4184   -6.6668   35.1383 C   0  0  0  0  0  0  0  0  0  0  0  0
   -0.6659   -7.3171   36.0728 O   0  0  0  0  0  0  0  0  0  0  0  0
   -0.8294   -7.2179   33.7937 C   0  0  0  0  0  0  0  0  0  0  0  0
   -0.1388   -6.8728   32.6216 C   0  0  0  0  0  0  0  0  0  0  0  0
   -0.5679   -7.3797   31.4040 C   0  0  0  0  0  0  0  0  0  0  0  0
   -1.6070   -8.2252   31.2719 N   0  0  0  0  0  0  0  0  0  0  0  0
   -2.2165   -8.5997   32.4173 C   0  0  0  0  0  0  0  0  0  0  0  0
   -1.8890   -8.1275   33.6795 C   0  0  0  0  0  0  0  0  0  0  0  0
   -3.0298   -8.7188   35.0681 Br  0  0  0  0  0  0  0  0  0  0  0  0
  1  2  3  0
  2  3  1  0
  3  4  2  0
  4  5  1  0
  5  6  1  0
  6  7  3  0
  5  8  2  0
  8  9  1  0
  8 10  1  0
 10 11  2  0
 11 12  1  0
 12 13  1  0
 13 14  2  0
 13 15  1  0
 15 16  2  0
 16 17  1  0
 17 18  2  0
 18 19  1  0
 19 20  2  0
 20 21  1  0
 11  3  1  0
 20 15  1  0
M  END
>  <ref_mols>  (264) 
7gov-a

>  <gnina_score>  (264) 
5.1

>  <smina_score_min>  (264) 
-5.264

>  <ref_pdb>  (264) 
7gov-a

>  <inspiration_score>  (264) 
None

>  <inchikey>  (264) 
IPMJINYAYVVJBV-UHFFFAOYSA-N

>  <tags>  (264) 
BulkDock Fragalysis export,openbind_d68ev3c_c2_elabs_scored,openbind_d68ev3c_c2_elabs_scored_4.5plus,openbind_d68ev3c_c2_elabs,openbind_d68ev3c_c2_elabs_scored_5plus,syndirella_product,openbind_d68ev3c_c2_elabs_scored_top80percent,syndirella_placed

>  <smiles>  (264) 
C#Cc1cc(C#N)c(F)cc1NC(=O)c1ccncc1Br

>  <subsites>  (264) 
None

>  <rmsd(smina/fragmenstein)>  (264) 
1.215

>  <alias>  (264) 
None

>  <energy_score>  (264) 
-30.628316

>  <HIPPO Pose ID>  (264) 
65142

>  <distance_score>  (264) 
0.600933

>  <HIPPO Compound ID>  (264) 
102119

>  <gnina_score_min>  (264) 
5.061

>  <name>  (264) 
P65142

>  <exports>  (264) 
['/opt/xchem-fragalysis-2/maxwin/BulkDock/OUTPUTS/openbind_d68ev3c_c2_elabs_1LOTQJ3.sdf', '/opt/xchem-fragalysis-2/maxwin/BulkDock/OUTPUTS/openbind_d68ev3c_c2_elabs_1LSYEHW.sdf', '/opt/xchem-fragalysis-2/maxwin/BulkDock/OUTPUTS/openbind_d68ev3c_c2_elabs_1LSYI5W.sdf']

$$$$
P65143
     RDKit          3D

 21 22  0  0  0  0  0  0  0  0999 V2000
    2.8935   -3.4481   33.2924 C   0  0  0  0  0  0  0  0  0  0  0  0
    2.4159   -3.5093   34.3925 C   0  0  0  0  0  0  0  0  0  0  0  0
    1.8479   -3.5801   35.7087 C   0  0  0  0  0  0  0  0  0  0  0  0
    2.4061   -2.7914   36.7232 C   0  0  0  0  0  0  0  0  0  0  0  0
    1.9143   -2.8751   38.0278 C   0  0  0  0  0  0  0  0  0  0  0  0
    2.6076   -1.8834   39.2544 Cl  0  0  0  0  0  0  0  0  0  0  0  0
    0.8688   -3.7421   38.3248 C   0  0  0  0  0  0  0  0  0  0  0  0
    0.3536   -3.7952   39.5633 F   0  0  0  0  0  0  0  0  0  0  0  0
    0.3291   -4.5441   37.3275 C   0  0  0  0  0  0  0  0  0  0  0  0
   -0.7087   -5.3374   37.6348 F   0  0  0  0  0  0  0  0  0  0  0  0
    0.8066   -4.4702   36.0123 C   0  0  0  0  0  0  0  0  0  0  0  0
    0.2412   -5.2677   35.0159 N   0  0  0  0  0  0  0  0  0  0  0  0
   -0.2692   -6.7213   35.0666 C   0  0  0  0  0  0  0  0  0  0  0  0
   -0.3686   -7.4551   35.9650 O   0  0  0  0  0  0  0  0  0  0  0  0
   -0.7509   -7.2081   33.7325 C   0  0  0  0  0  0  0  0  0  0  0  0
   -0.0924   -6.8346   32.5535 C   0  0  0  0  0  0  0  0  0  0  0  0
   -0.5571   -7.3216   31.3421 C   0  0  0  0  0  0  0  0  0  0  0  0
   -1.6059   -8.1604   31.2263 N   0  0  0  0  0  0  0  0  0  0  0  0
   -2.1925   -8.5460   32.3811 C   0  0  0  0  0  0  0  0  0  0  0  0
   -1.8260   -8.0978   33.6386 C   0  0  0  0  0  0  0  0  0  0  0  0
   -2.9308   -8.6755   35.0578 Br  0  0  0  0  0  0  0  0  0  0  0  0
  1  2  3  0
  2  3  1  0
  3  4  2  0
  4  5  1  0
  5  6  1  0
  5  7  2  0
  7  8  1  0
  7  9  1  0
  9 10  1  0
  9 11  2  0
 11 12  1  0
 12 13  1  0
 13 14  2  0
 13 15  1  0
 15 16  2  0
 16 17  1  0
 17 18  2  0
 18 19  1  0
 19 20  2  0
 20 21  1  0
 11  3  1  0
 20 15  1  0
M  END
>  <ref_mols>  (265) 
7gov-a

>  <gnina_score>  (265) 
5.371

>  <smina_score_min>  (265) 
-5.026

>  <ref_pdb>  (265) 
7gov-a

>  <inspiration_score>  (265) 
None

>  <inchikey>  (265) 
IBORLGGIKMYPFV-UHFFFAOYSA-N

>  <tags>  (265) 
BulkDock Fragalysis export,openbind_d68ev3c_c2_elabs_scored,openbind_d68ev3c_c2_elabs_scored_4.5plus,openbind_d68ev3c_c2_elabs,openbind_d68ev3c_c2_elabs_scored_5plus,syndirella_product,openbind_d68ev3c_c2_elabs_scored_top80percent,syndirella_placed

>  <smiles>  (265) 
C#Cc1cc(Cl)c(F)c(F)c1NC(=O)c1ccncc1Br

>  <subsites>  (265) 
None

>  <rmsd(smina/fragmenstein)>  (265) 
0.907

>  <alias>  (265) 
None

>  <energy_score>  (265) 
-9.466446

>  <HIPPO Pose ID>  (265) 
65143

>  <distance_score>  (265) 
0.53886

>  <HIPPO Compound ID>  (265) 
102120

>  <gnina_score_min>  (265) 
5.268

>  <name>  (265) 
P65143

>  <exports>  (265) 
['/opt/xchem-fragalysis-2/maxwin/BulkDock/OUTPUTS/openbind_d68ev3c_c2_elabs_1LOTQJ3.sdf', '/opt/xchem-fragalysis-2/maxwin/BulkDock/OUTPUTS/openbind_d68ev3c_c2_elabs_1LSYEHW.sdf', '/opt/xchem-fragalysis-2/maxwin/BulkDock/OUTPUTS/openbind_d68ev3c_c2_elabs_1LSYI5W.sdf']

$$$$
P65145
     RDKit          3D

 21 22  0  0  0  0  0  0  0  0999 V2000
    4.0202   -3.2790   34.3273 C   0  0  0  0  0  0  0  0  0  0  0  0
    2.5626   -3.6415   34.4435 C   0  0  0  0  0  0  0  0  0  0  0  0
    1.8943   -3.9311   33.4502 O   0  0  0  0  0  0  0  0  0  0  0  0
    1.9259   -3.6304   35.7940 C   0  0  0  0  0  0  0  0  0  0  0  0
    2.4446   -2.8216   36.8134 C   0  0  0  0  0  0  0  0  0  0  0  0
    1.8772   -2.8682   38.0841 C   0  0  0  0  0  0  0  0  0  0  0  0
    2.3739   -2.0803   39.0484 F   0  0  0  0  0  0  0  0  0  0  0  0
    0.8061   -3.7103   38.3529 C   0  0  0  0  0  0  0  0  0  0  0  0
    0.2555   -3.7330   39.5743 F   0  0  0  0  0  0  0  0  0  0  0  0
    0.2859   -4.5238   37.3551 C   0  0  0  0  0  0  0  0  0  0  0  0
    0.8355   -4.4781   36.0698 C   0  0  0  0  0  0  0  0  0  0  0  0
    0.2865   -5.2802   35.0756 N   0  0  0  0  0  0  0  0  0  0  0  0
   -0.4358   -6.6409   35.1702 C   0  0  0  0  0  0  0  0  0  0  0  0
   -0.7512   -7.2648   36.1025 O   0  0  0  0  0  0  0  0  0  0  0  0
   -0.8275   -7.1978   33.8156 C   0  0  0  0  0  0  0  0  0  0  0  0
   -0.1384   -6.8467   32.6438 C   0  0  0  0  0  0  0  0  0  0  0  0
   -0.5578   -7.3565   31.4225 C   0  0  0  0  0  0  0  0  0  0  0  0
   -1.5871   -8.2133   31.2816 N   0  0  0  0  0  0  0  0  0  0  0  0
   -2.1977   -8.5915   32.4242 C   0  0  0  0  0  0  0  0  0  0  0  0
   -1.8805   -8.1167   33.6897 C   0  0  0  0  0  0  0  0  0  0  0  0
   -3.0325   -8.7254   35.0640 Br  0  0  0  0  0  0  0  0  0  0  0  0
  1  2  1  0
  2  3  2  0
  2  4  1  0
  4  5  2  0
  5  6  1  0
  6  7  1  0
  6  8  2  0
  8  9  1  0
  8 10  1  0
 10 11  2  0
 11 12  1  0
 12 13  1  0
 13 14  2  0
 13 15  1  0
 15 16  2  0
 16 17  1  0
 17 18  2  0
 18 19  1  0
 19 20  2  0
 20 21  1  0
 11  4  1  0
 20 15  1  0
M  END
>  <ref_mols>  (266) 
7gov-a

>  <gnina_score>  (266) 
5.116

>  <smina_score_min>  (266) 
-5.493

>  <ref_pdb>  (266) 
7gov-a

>  <inspiration_score>  (266) 
None

>  <inchikey>  (266) 
IEUVWPJLYCKGAY-UHFFFAOYSA-N

>  <tags>  (266) 
BulkDock Fragalysis export,openbind_d68ev3c_c2_elabs_scored,openbind_d68ev3c_c2_elabs_scored_4.5plus,openbind_d68ev3c_c2_elabs,openbind_d68ev3c_c2_elabs_scored_5plus,syndirella_product,openbind_d68ev3c_c2_elabs_scored_top80percent,syndirella_placed

>  <smiles>  (266) 
CC(=O)c1cc(F)c(F)cc1NC(=O)c1ccncc1Br

>  <subsites>  (266) 
None

>  <rmsd(smina/fragmenstein)>  (266) 
1.023

>  <alias>  (266) 
None

>  <energy_score>  (266) 
-7.777196

>  <HIPPO Pose ID>  (266) 
65145

>  <distance_score>  (266) 
0.608149

>  <HIPPO Compound ID>  (266) 
102122

>  <gnina_score_min>  (266) 
5.059

>  <name>  (266) 
P65145

>  <exports>  (266) 
['/opt/xchem-fragalysis-2/maxwin/BulkDock/OUTPUTS/openbind_d68ev3c_c2_elabs_1LOTQJ3.sdf', '/opt/xchem-fragalysis-2/maxwin/BulkDock/OUTPUTS/openbind_d68ev3c_c2_elabs_1LSYEHW.sdf', '/opt/xchem-fragalysis-2/maxwin/BulkDock/OUTPUTS/openbind_d68ev3c_c2_elabs_1LSYI5W.sdf']

$$$$
P65161
     RDKit          3D

 21 23  0  0  0  0  0  0  0  0999 V2000
   -3.6758   -8.9119   34.8317 C   0  0  0  0  0  0  0  0  0  0  0  0
   -2.1642   -8.8729   34.7232 C   0  0  0  0  0  0  0  0  0  0  0  0
   -1.6040   -8.1182   33.5493 C   0  0  0  0  0  0  0  0  0  0  0  0
   -2.0401   -8.5011   32.2877 C   0  0  0  0  0  0  0  0  0  0  0  0
   -1.5899   -7.9968   31.1201 N   0  0  0  0  0  0  0  0  0  0  0  0
   -0.5848   -7.1045   31.2037 C   0  0  0  0  0  0  0  0  0  0  0  0
   -0.0598   -6.6499   32.3997 C   0  0  0  0  0  0  0  0  0  0  0  0
   -0.5912   -7.1409   33.5979 C   0  0  0  0  0  0  0  0  0  0  0  0
   -0.0218   -6.6726   34.9087 C   0  0  0  0  0  0  0  0  0  0  0  0
    0.0703   -7.4569   35.7639 O   0  0  0  0  0  0  0  0  0  0  0  0
    0.2555   -5.1585   34.9096 N   0  0  0  0  0  0  0  0  0  0  0  0
    0.7764   -4.3366   35.9024 C   0  0  0  0  0  0  0  0  0  0  0  0
    0.3620   -4.5536   37.2201 C   0  0  0  0  0  0  0  0  0  0  0  0
    0.8319   -3.7297   38.2298 C   0  0  0  0  0  0  0  0  0  0  0  0
    0.3853   -3.8946   39.4825 F   0  0  0  0  0  0  0  0  0  0  0  0
    1.7464   -2.7260   37.9548 C   0  0  0  0  0  0  0  0  0  0  0  0
    2.1777   -2.5312   36.6398 C   0  0  0  0  0  0  0  0  0  0  0  0
    1.6843   -3.3105   35.5739 C   0  0  0  0  0  0  0  0  0  0  0  0
    2.2147   -3.1208   34.1666 C   0  0  0  0  0  0  0  0  0  0  0  0
    1.2975   -2.6130   33.0751 C   0  0  0  0  0  0  0  0  0  0  0  0
    2.3961   -1.7351   33.5880 C   0  0  0  0  0  0  0  0  0  0  0  0
  1  2  1  0
  2  3  1  0
  3  4  2  0
  4  5  1  0
  5  6  2  0
  6  7  1  0
  7  8  2  0
  8  9  1  0
  9 10  2  0
  9 11  1  0
 11 12  1  0
 12 13  2  0
 13 14  1  0
 14 15  1  0
 14 16  2  0
 16 17  1  0
 17 18  2  0
 18 19  1  0
 19 20  1  0
 20 21  1  0
  8  3  1  0
 18 12  1  0
 21 19  1  0
M  END
>  <ref_mols>  (267) 
7gov-a

>  <gnina_score>  (267) 
4.976

>  <smina_score_min>  (267) 
-5.669

>  <ref_pdb>  (267) 
7gov-a

>  <inspiration_score>  (267) 
None

>  <inchikey>  (267) 
HGGZQSDWUCIUBP-UHFFFAOYSA-N

>  <tags>  (267) 
BulkDock Fragalysis export,openbind_d68ev3c_c2_elabs_scored,openbind_d68ev3c_c2_elabs_scored_4.5plus,openbind_d68ev3c_c2_elabs,openbind_d68ev3c_c2_elabs_scored_5plus,syndirella_product,openbind_d68ev3c_c2_elabs_scored_top80percent,syndirella_placed

>  <smiles>  (267) 
CCc1cnccc1C(=O)Nc1cc(F)ccc1C1CC1

>  <subsites>  (267) 
None

>  <rmsd(smina/fragmenstein)>  (267) 
1.151

>  <alias>  (267) 
None

>  <energy_score>  (267) 
-15.382526

>  <HIPPO Pose ID>  (267) 
65161

>  <distance_score>  (267) 
0.553838

>  <HIPPO Compound ID>  (267) 
102149

>  <gnina_score_min>  (267) 
5.047

>  <name>  (267) 
P65161

>  <exports>  (267) 
['/opt/xchem-fragalysis-2/maxwin/BulkDock/OUTPUTS/openbind_d68ev3c_c2_elabs_1LOTQJ3.sdf', '/opt/xchem-fragalysis-2/maxwin/BulkDock/OUTPUTS/openbind_d68ev3c_c2_elabs_1LSYEHW.sdf', '/opt/xchem-fragalysis-2/maxwin/BulkDock/OUTPUTS/openbind_d68ev3c_c2_elabs_1LSYI5W.sdf']

$$$$
P65165
     RDKit          3D

 21 22  0  0  0  0  0  0  0  0999 V2000
    3.5122   -3.0901   33.8703 N   0  0  0  0  0  0  0  0  0  0  0  0
    3.0054   -3.1547   34.9127 C   0  0  0  0  0  0  0  0  0  0  0  0
    2.3194   -3.2213   36.1715 C   0  0  0  0  0  0  0  0  0  0  0  0
    2.7735   -2.4533   37.2514 C   0  0  0  0  0  0  0  0  0  0  0  0
    2.1404   -2.5444   38.4943 C   0  0  0  0  0  0  0  0  0  0  0  0
    1.0601   -3.4042   38.6555 C   0  0  0  0  0  0  0  0  0  0  0  0
    0.4314   -3.4636   39.8369 F   0  0  0  0  0  0  0  0  0  0  0  0
    0.6095   -4.1762   37.5974 C   0  0  0  0  0  0  0  0  0  0  0  0
   -0.4801   -4.9348   37.7833 F   0  0  0  0  0  0  0  0  0  0  0  0
    1.2320   -4.0867   36.3476 C   0  0  0  0  0  0  0  0  0  0  0  0
    0.7677   -4.8322   35.2705 N   0  0  0  0  0  0  0  0  0  0  0  0
    0.0563   -6.1910   35.2312 C   0  0  0  0  0  0  0  0  0  0  0  0
   -0.3243   -6.8697   36.0981 O   0  0  0  0  0  0  0  0  0  0  0  0
   -0.2609   -6.6227   33.8420 C   0  0  0  0  0  0  0  0  0  0  0  0
    0.3281   -6.1426   32.6758 C   0  0  0  0  0  0  0  0  0  0  0  0
   -0.1122   -6.6677   31.4792 C   0  0  0  0  0  0  0  0  0  0  0  0
    0.4847   -6.2725   30.3265 O   0  0  0  0  0  0  0  0  0  0  0  0
   -1.0662   -7.5922   31.3375 N   0  0  0  0  0  0  0  0  0  0  0  0
   -1.6011   -8.0193   32.4924 C   0  0  0  0  0  0  0  0  0  0  0  0
   -2.9970   -9.2279   32.4131 Br  0  0  0  0  0  0  0  0  0  0  0  0
   -1.2403   -7.5972   33.7459 C   0  0  0  0  0  0  0  0  0  0  0  0
  1  2  3  0
  2  3  1  0
  3  4  2  0
  4  5  1  0
  5  6  2  0
  6  7  1  0
  6  8  1  0
  8  9  1  0
  8 10  2  0
 10 11  1  0
 11 12  1  0
 12 13  2  0
 12 14  1  0
 14 15  2  0
 15 16  1  0
 16 17  1  0
 16 18  2  0
 18 19  1  0
 19 20  1  0
 19 21  2  0
 10  3  1  0
 21 14  1  0
M  END
>  <ref_mols>  (268) 
7gov-a

>  <gnina_score>  (268) 
4.923

>  <smina_score_min>  (268) 
-5.554

>  <ref_pdb>  (268) 
7gov-a

>  <inspiration_score>  (268) 
None

>  <inchikey>  (268) 
SGABQHXAYWXCAU-UHFFFAOYSA-N

>  <tags>  (268) 
BulkDock Fragalysis export,openbind_d68ev3c_c2_elabs_scored,openbind_d68ev3c_c2_elabs_scored_4.5plus,openbind_d68ev3c_c2_elabs,openbind_d68ev3c_c2_elabs_scored_5plus,syndirella_product,openbind_d68ev3c_c2_elabs_scored_top80percent,syndirella_placed

>  <smiles>  (268) 
N#Cc1ccc(F)c(F)c1NC(=O)c1cc(O)nc(Br)c1

>  <subsites>  (268) 
None

>  <rmsd(smina/fragmenstein)>  (268) 
1.287

>  <alias>  (268) 
None

>  <energy_score>  (268) 
-11.576749

>  <HIPPO Pose ID>  (268) 
65165

>  <distance_score>  (268) 
0.879589

>  <HIPPO Compound ID>  (268) 
102160

>  <gnina_score_min>  (268) 
5.031

>  <name>  (268) 
P65165

>  <exports>  (268) 
['/opt/xchem-fragalysis-2/maxwin/BulkDock/OUTPUTS/openbind_d68ev3c_c2_elabs_1LOTQJ3.sdf', '/opt/xchem-fragalysis-2/maxwin/BulkDock/OUTPUTS/openbind_d68ev3c_c2_elabs_1LSYEHW.sdf', '/opt/xchem-fragalysis-2/maxwin/BulkDock/OUTPUTS/openbind_d68ev3c_c2_elabs_1LSYI5W.sdf']

$$$$
P65207
     RDKit          3D

 21 22  0  0  0  0  0  0  0  0999 V2000
    3.6095   -2.0771   34.2739 O   0  0  0  0  0  0  0  0  0  0  0  0
    2.9356   -3.0674   34.5338 C   0  0  0  0  0  0  0  0  0  0  0  0
    2.1961   -3.1949   35.8037 C   0  0  0  0  0  0  0  0  0  0  0  0
    2.5717   -2.4057   36.8973 C   0  0  0  0  0  0  0  0  0  0  0  0
    1.9624   -2.6084   38.1374 C   0  0  0  0  0  0  0  0  0  0  0  0
    2.4772   -1.5401   39.6106 Br  0  0  0  0  0  0  0  0  0  0  0  0
    0.9899   -3.5943   38.2851 C   0  0  0  0  0  0  0  0  0  0  0  0
    0.3720   -3.7843   39.4607 F   0  0  0  0  0  0  0  0  0  0  0  0
    0.6259   -4.3892   37.2048 C   0  0  0  0  0  0  0  0  0  0  0  0
    1.2164   -4.1761   35.9551 C   0  0  0  0  0  0  0  0  0  0  0  0
    0.7764   -4.9522   34.8946 N   0  0  0  0  0  0  0  0  0  0  0  0
    0.5138   -6.4596   34.8055 C   0  0  0  0  0  0  0  0  0  0  0  0
    0.6973   -7.3041   35.5836 O   0  0  0  0  0  0  0  0  0  0  0  0
   -0.1714   -6.8263   33.5403 C   0  0  0  0  0  0  0  0  0  0  0  0
    0.3251   -6.4182   32.2992 C   0  0  0  0  0  0  0  0  0  0  0  0
   -0.3004   -6.8866   31.1547 C   0  0  0  0  0  0  0  0  0  0  0  0
   -1.3598   -7.7172   31.1707 N   0  0  0  0  0  0  0  0  0  0  0  0
   -1.7931   -8.0940   32.3929 C   0  0  0  0  0  0  0  0  0  0  0  0
   -3.0892   -9.1872   32.3117 Cl  0  0  0  0  0  0  0  0  0  0  0  0
   -1.2795   -7.6646   33.5978 C   0  0  0  0  0  0  0  0  0  0  0  0
   -2.1444   -8.1352   35.2104 Br  0  0  0  0  0  0  0  0  0  0  0  0
  1  2  2  0
  2  3  1  0
  3  4  2  0
  4  5  1  0
  5  6  1  0
  5  7  2  0
  7  8  1  0
  7  9  1  0
  9 10  2  0
 10 11  1  0
 11 12  1  0
 12 13  2  0
 12 14  1  0
 14 15  2  0
 15 16  1  0
 16 17  2  0
 17 18  1  0
 18 19  1  0
 18 20  2  0
 20 21  1  0
 10  3  1  0
 20 14  1  0
M  END
>  <ref_mols>  (269) 
7gov-a

>  <gnina_score>  (269) 
5.27

>  <smina_score_min>  (269) 
-4.768

>  <ref_pdb>  (269) 
7gov-a

>  <inspiration_score>  (269) 
None

>  <inchikey>  (269) 
NUZNLYOVWXGFBN-UHFFFAOYSA-N

>  <tags>  (269) 
BulkDock Fragalysis export,openbind_d68ev3c_c2_elabs_scored,openbind_d68ev3c_c2_elabs_scored_4.5plus,openbind_d68ev3c_c2_elabs,openbind_d68ev3c_c2_elabs_scored_5plus,syndirella_product,openbind_d68ev3c_c2_elabs_scored_top80percent,syndirella_placed

>  <smiles>  (269) 
O=Cc1cc(Br)c(F)cc1NC(=O)c1ccnc(Cl)c1Br

>  <subsites>  (269) 
None

>  <rmsd(smina/fragmenstein)>  (269) 
1.478

>  <alias>  (269) 
None

>  <energy_score>  (269) 
-11.674844

>  <HIPPO Pose ID>  (269) 
65207

>  <distance_score>  (269) 
0.633317

>  <HIPPO Compound ID>  (269) 
102231

>  <gnina_score_min>  (269) 
5.169

>  <name>  (269) 
P65207

>  <exports>  (269) 
['/opt/xchem-fragalysis-2/maxwin/BulkDock/OUTPUTS/openbind_d68ev3c_c2_elabs_1LOTQJ3.sdf', '/opt/xchem-fragalysis-2/maxwin/BulkDock/OUTPUTS/openbind_d68ev3c_c2_elabs_1LSYEHW.sdf', '/opt/xchem-fragalysis-2/maxwin/BulkDock/OUTPUTS/openbind_d68ev3c_c2_elabs_1LSYI5W.sdf']

$$$$
P65208
     RDKit          3D

 21 22  0  0  0  0  0  0  0  0999 V2000
    0.5703   -7.2647   35.6764 O   0  0  0  0  0  0  0  0  0  0  0  0
    0.4516   -6.4394   34.8656 C   0  0  0  0  0  0  0  0  0  0  0  0
    0.7645   -4.9406   34.9206 N   0  0  0  0  0  0  0  0  0  0  0  0
    1.1847   -4.1494   35.9720 C   0  0  0  0  0  0  0  0  0  0  0  0
    0.6365   -4.3837   37.2365 C   0  0  0  0  0  0  0  0  0  0  0  0
    1.0205   -3.5934   38.3087 C   0  0  0  0  0  0  0  0  0  0  0  0
    0.4389   -3.7945   39.5010 F   0  0  0  0  0  0  0  0  0  0  0  0
    1.9768   -2.6001   38.1347 C   0  0  0  0  0  0  0  0  0  0  0  0
    2.5289   -1.5305   39.5939 Br  0  0  0  0  0  0  0  0  0  0  0  0
    2.5378   -2.3794   36.8716 C   0  0  0  0  0  0  0  0  0  0  0  0
    2.1448   -3.1539   35.7668 C   0  0  0  0  0  0  0  0  0  0  0  0
    2.7868   -2.9197   34.4228 C   0  0  0  0  0  0  0  0  0  0  0  0
    3.1813   -4.1187   33.7663 O   0  0  0  0  0  0  0  0  0  0  0  0
   -0.1914   -6.8231   33.5825 C   0  0  0  0  0  0  0  0  0  0  0  0
    0.3278   -6.4081   32.3524 C   0  0  0  0  0  0  0  0  0  0  0  0
   -0.2722   -6.8731   31.1928 C   0  0  0  0  0  0  0  0  0  0  0  0
   -1.3275   -7.7095   31.1819 N   0  0  0  0  0  0  0  0  0  0  0  0
   -1.7802   -8.0956   32.3937 C   0  0  0  0  0  0  0  0  0  0  0  0
   -3.0658   -9.1984   32.2839 Cl  0  0  0  0  0  0  0  0  0  0  0  0
   -1.2946   -7.6705   33.6118 C   0  0  0  0  0  0  0  0  0  0  0  0
   -2.1988   -8.1648   35.1978 Br  0  0  0  0  0  0  0  0  0  0  0  0
  1  2  2  0
  2  3  1  0
  3  4  1  0
  4  5  2  0
  5  6  1  0
  6  7  1  0
  6  8  2  0
  8  9  1  0
  8 10  1  0
 10 11  2  0
 11 12  1  0
 12 13  1  0
  2 14  1  0
 14 15  2  0
 15 16  1  0
 16 17  2  0
 17 18  1  0
 18 19  1  0
 18 20  2  0
 20 21  1  0
 11  4  1  0
 20 14  1  0
M  END
>  <ref_mols>  (270) 
7gov-a

>  <gnina_score>  (270) 
5.183

>  <smina_score_min>  (270) 
-5.062

>  <ref_pdb>  (270) 
7gov-a

>  <inspiration_score>  (270) 
None

>  <inchikey>  (270) 
FTSBFHJDTUCWJK-UHFFFAOYSA-N

>  <tags>  (270) 
BulkDock Fragalysis export,openbind_d68ev3c_c2_elabs_scored,openbind_d68ev3c_c2_elabs_scored_4.5plus,openbind_d68ev3c_c2_elabs,openbind_d68ev3c_c2_elabs_scored_5plus,syndirella_product,openbind_d68ev3c_c2_elabs_scored_top80percent,syndirella_placed

>  <smiles>  (270) 
O=C(Nc1cc(F)c(Br)cc1CO)c1ccnc(Cl)c1Br

>  <subsites>  (270) 
None

>  <rmsd(smina/fragmenstein)>  (270) 
1.468

>  <alias>  (270) 
None

>  <energy_score>  (270) 
-11.278229

>  <HIPPO Pose ID>  (270) 
65208

>  <distance_score>  (270) 
0.664242

>  <HIPPO Compound ID>  (270) 
102232

>  <gnina_score_min>  (270) 
5.096

>  <name>  (270) 
P65208

>  <exports>  (270) 
['/opt/xchem-fragalysis-2/maxwin/BulkDock/OUTPUTS/openbind_d68ev3c_c2_elabs_1LOTQJ3.sdf', '/opt/xchem-fragalysis-2/maxwin/BulkDock/OUTPUTS/openbind_d68ev3c_c2_elabs_1LSYEHW.sdf', '/opt/xchem-fragalysis-2/maxwin/BulkDock/OUTPUTS/openbind_d68ev3c_c2_elabs_1LSYI5W.sdf']

$$$$
P65209
     RDKit          3D

 21 22  0  0  0  0  0  0  0  0999 V2000
    3.8791   -3.0762   34.3792 O   0  0  0  0  0  0  0  0  0  0  0  0
    3.1117   -3.9694   34.7199 C   0  0  0  0  0  0  0  0  0  0  0  0
    2.2358   -3.8378   35.9037 C   0  0  0  0  0  0  0  0  0  0  0  0
    2.6295   -2.9269   36.8967 C   0  0  0  0  0  0  0  0  0  0  0  0
    1.8919   -2.8213   38.0725 C   0  0  0  0  0  0  0  0  0  0  0  0
    2.4067   -1.7342   39.3040 Cl  0  0  0  0  0  0  0  0  0  0  0  0
    0.7519   -3.5995   38.2438 C   0  0  0  0  0  0  0  0  0  0  0  0
    0.0291   -3.5160   39.3709 F   0  0  0  0  0  0  0  0  0  0  0  0
    0.3336   -4.4794   37.2477 C   0  0  0  0  0  0  0  0  0  0  0  0
    1.0735   -4.6141   36.0667 C   0  0  0  0  0  0  0  0  0  0  0  0
    0.6114   -5.4748   35.0624 N   0  0  0  0  0  0  0  0  0  0  0  0
   -0.6601   -6.3460   34.9957 C   0  0  0  0  0  0  0  0  0  0  0  0
   -1.4848   -6.5441   35.7984 O   0  0  0  0  0  0  0  0  0  0  0  0
   -0.8534   -7.0176   33.6675 C   0  0  0  0  0  0  0  0  0  0  0  0
   -1.5464   -8.2384   33.7473 C   0  0  0  0  0  0  0  0  0  0  0  0
   -1.9023   -8.8826   32.5852 C   0  0  0  0  0  0  0  0  0  0  0  0
   -1.5889   -8.4278   31.3630 N   0  0  0  0  0  0  0  0  0  0  0  0
   -0.8773   -7.2765   31.3013 C   0  0  0  0  0  0  0  0  0  0  0  0
   -0.5598   -6.8430   29.6644 Cl  0  0  0  0  0  0  0  0  0  0  0  0
   -0.5164   -6.5053   32.4047 C   0  0  0  0  0  0  0  0  0  0  0  0
    0.2532   -4.7883   32.1284 Br  0  0  0  0  0  0  0  0  0  0  0  0
  1  2  2  0
  2  3  1  0
  3  4  2  0
  4  5  1  0
  5  6  1  0
  5  7  2  0
  7  8  1  0
  7  9  1  0
  9 10  2  0
 10 11  1  0
 11 12  1  0
 12 13  2  0
 12 14  1  0
 14 15  2  0
 15 16  1  0
 16 17  2  0
 17 18  1  0
 18 19  1  0
 18 20  2  0
 20 21  1  0
 10  3  1  0
 20 14  1  0
M  END
>  <ref_mols>  (271) 
7gov-a

>  <gnina_score>  (271) 
5.215

>  <smina_score_min>  (271) 
-5.704

>  <ref_pdb>  (271) 
7gov-a

>  <inspiration_score>  (271) 
None

>  <inchikey>  (271) 
LKJHJHWMCMCZPF-UHFFFAOYSA-N

>  <tags>  (271) 
BulkDock Fragalysis export,openbind_d68ev3c_c2_elabs_scored,openbind_d68ev3c_c2_elabs_scored_4.5plus,openbind_d68ev3c_c2_elabs,openbind_d68ev3c_c2_elabs_scored_5plus,syndirella_product,openbind_d68ev3c_c2_elabs_scored_top80percent,syndirella_placed

>  <smiles>  (271) 
O=Cc1cc(Cl)c(F)cc1NC(=O)c1ccnc(Cl)c1Br

>  <subsites>  (271) 
None

>  <rmsd(smina/fragmenstein)>  (271) 
1.273

>  <alias>  (271) 
None

>  <energy_score>  (271) 
-17.387999

>  <HIPPO Pose ID>  (271) 
65209

>  <distance_score>  (271) 
0.747966

>  <HIPPO Compound ID>  (271) 
102233

>  <gnina_score_min>  (271) 
5.118

>  <name>  (271) 
P65209

>  <exports>  (271) 
['/opt/xchem-fragalysis-2/maxwin/BulkDock/OUTPUTS/openbind_d68ev3c_c2_elabs_1LOTQJ3.sdf', '/opt/xchem-fragalysis-2/maxwin/BulkDock/OUTPUTS/openbind_d68ev3c_c2_elabs_1LSYEHW.sdf', '/opt/xchem-fragalysis-2/maxwin/BulkDock/OUTPUTS/openbind_d68ev3c_c2_elabs_1LSYI5W.sdf']

$$$$
P65210
     RDKit          3D

 21 22  0  0  0  0  0  0  0  0999 V2000
   -1.5458   -6.5661   35.7865 O   0  0  0  0  0  0  0  0  0  0  0  0
   -0.7323   -6.3193   34.9848 C   0  0  0  0  0  0  0  0  0  0  0  0
    0.5159   -5.4140   35.0710 N   0  0  0  0  0  0  0  0  0  0  0  0
    0.9592   -4.5757   36.0956 C   0  0  0  0  0  0  0  0  0  0  0  0
    0.1708   -4.4093   37.2398 C   0  0  0  0  0  0  0  0  0  0  0  0
    0.5834   -3.5526   38.2528 C   0  0  0  0  0  0  0  0  0  0  0  0
   -0.1609   -3.4317   39.3598 F   0  0  0  0  0  0  0  0  0  0  0  0
    1.7553   -2.8230   38.1386 C   0  0  0  0  0  0  0  0  0  0  0  0
    2.5440   -2.9783   37.0013 C   0  0  0  0  0  0  0  0  0  0  0  0
    2.1697   -3.8709   35.9752 C   0  0  0  0  0  0  0  0  0  0  0  0
    3.1540   -4.0946   34.8560 C   0  0  0  0  0  0  0  0  0  0  0  0
    3.7044   -2.9335   34.3965 F   0  0  0  0  0  0  0  0  0  0  0  0
    2.6215   -4.6999   33.7567 F   0  0  0  0  0  0  0  0  0  0  0  0
   -0.8960   -6.9922   33.6575 C   0  0  0  0  0  0  0  0  0  0  0  0
   -1.5164   -8.2515   33.7327 C   0  0  0  0  0  0  0  0  0  0  0  0
   -1.8378   -8.9081   32.5680 C   0  0  0  0  0  0  0  0  0  0  0  0
   -1.5404   -8.4365   31.3480 N   0  0  0  0  0  0  0  0  0  0  0  0
   -0.8944   -7.2458   31.2937 C   0  0  0  0  0  0  0  0  0  0  0  0
   -0.5598   -6.8066   29.6616 Cl  0  0  0  0  0  0  0  0  0  0  0  0
   -0.6038   -6.4489   32.3989 C   0  0  0  0  0  0  0  0  0  0  0  0
   -0.0465   -4.6523   32.1318 Br  0  0  0  0  0  0  0  0  0  0  0  0
  1  2  2  0
  2  3  1  0
  3  4  1  0
  4  5  2  0
  5  6  1  0
  6  7  1  0
  6  8  2  0
  8  9  1  0
  9 10  2  0
 10 11  1  0
 11 12  1  0
 11 13  1  0
  2 14  1  0
 14 15  2  0
 15 16  1  0
 16 17  2  0
 17 18  1  0
 18 19  1  0
 18 20  2  0
 20 21  1  0
 10  4  1  0
 20 14  1  0
M  END
>  <ref_mols>  (272) 
7gov-a

>  <gnina_score>  (272) 
5.092

>  <smina_score_min>  (272) 
-5.586

>  <ref_pdb>  (272) 
7gov-a

>  <inspiration_score>  (272) 
None

>  <inchikey>  (272) 
OWVJFFQFZBYHTR-UHFFFAOYSA-N

>  <tags>  (272) 
BulkDock Fragalysis export,openbind_d68ev3c_c2_elabs_scored,openbind_d68ev3c_c2_elabs_scored_4.5plus,openbind_d68ev3c_c2_elabs,openbind_d68ev3c_c2_elabs_scored_5plus,syndirella_product,openbind_d68ev3c_c2_elabs_scored_top80percent,syndirella_placed

>  <smiles>  (272) 
O=C(Nc1cc(F)ccc1C(F)F)c1ccnc(Cl)c1Br

>  <subsites>  (272) 
None

>  <rmsd(smina/fragmenstein)>  (272) 
0.463

>  <alias>  (272) 
None

>  <energy_score>  (272) 
-23.28539

>  <HIPPO Pose ID>  (272) 
65210

>  <distance_score>  (272) 
0.768111

>  <HIPPO Compound ID>  (272) 
102234

>  <gnina_score_min>  (272) 
5.003

>  <name>  (272) 
P65210

>  <exports>  (272) 
['/opt/xchem-fragalysis-2/maxwin/BulkDock/OUTPUTS/openbind_d68ev3c_c2_elabs_1LOTQJ3.sdf', '/opt/xchem-fragalysis-2/maxwin/BulkDock/OUTPUTS/openbind_d68ev3c_c2_elabs_1LSYEHW.sdf', '/opt/xchem-fragalysis-2/maxwin/BulkDock/OUTPUTS/openbind_d68ev3c_c2_elabs_1LSYI5W.sdf']

$$$$
P65211
     RDKit          3D

 21 22  0  0  0  0  0  0  0  0999 V2000
    3.2330   -2.7374   33.3985 C   0  0  0  0  0  0  0  0  0  0  0  0
    2.7218   -2.9156   34.4705 C   0  0  0  0  0  0  0  0  0  0  0  0
    2.1157   -3.1185   35.7543 C   0  0  0  0  0  0  0  0  0  0  0  0
    2.5153   -2.3353   36.8397 C   0  0  0  0  0  0  0  0  0  0  0  0
    1.9677   -2.5687   38.1002 C   0  0  0  0  0  0  0  0  0  0  0  0
    2.3391   -1.7910   39.1275 F   0  0  0  0  0  0  0  0  0  0  0  0
    1.0364   -3.5810   38.2924 C   0  0  0  0  0  0  0  0  0  0  0  0
    0.4768   -3.7708   39.4960 F   0  0  0  0  0  0  0  0  0  0  0  0
    0.6589   -4.3892   37.2304 C   0  0  0  0  0  0  0  0  0  0  0  0
    1.1908   -4.1467   35.9595 C   0  0  0  0  0  0  0  0  0  0  0  0
    0.7668   -4.9400   34.9069 N   0  0  0  0  0  0  0  0  0  0  0  0
    0.4628   -6.4406   34.8508 C   0  0  0  0  0  0  0  0  0  0  0  0
    0.5927   -7.2671   35.6588 O   0  0  0  0  0  0  0  0  0  0  0  0
   -0.1873   -6.8262   33.5718 C   0  0  0  0  0  0  0  0  0  0  0  0
    0.3259   -6.4145   32.3383 C   0  0  0  0  0  0  0  0  0  0  0  0
   -0.2804   -6.8812   31.1827 C   0  0  0  0  0  0  0  0  0  0  0  0
   -1.3367   -7.7157   31.1790 N   0  0  0  0  0  0  0  0  0  0  0  0
   -1.7847   -8.0982   32.3940 C   0  0  0  0  0  0  0  0  0  0  0  0
   -3.0748   -9.1965   32.2915 Cl  0  0  0  0  0  0  0  0  0  0  0  0
   -1.2919   -7.6714   33.6086 C   0  0  0  0  0  0  0  0  0  0  0  0
   -2.1880   -8.1587   35.2009 Br  0  0  0  0  0  0  0  0  0  0  0  0
  1  2  3  0
  2  3  1  0
  3  4  2  0
  4  5  1  0
  5  6  1  0
  5  7  2  0
  7  8  1  0
  7  9  1  0
  9 10  2  0
 10 11  1  0
 11 12  1  0
 12 13  2  0
 12 14  1  0
 14 15  2  0
 15 16  1  0
 16 17  2  0
 17 18  1  0
 18 19  1  0
 18 20  2  0
 20 21  1  0
 10  3  1  0
 20 14  1  0
M  END
>  <ref_mols>  (273) 
7gov-a

>  <gnina_score>  (273) 
5.287

>  <smina_score_min>  (273) 
-4.737

>  <ref_pdb>  (273) 
7gov-a

>  <inspiration_score>  (273) 
None

>  <inchikey>  (273) 
VOIMWGGIHZSHDR-UHFFFAOYSA-N

>  <tags>  (273) 
BulkDock Fragalysis export,openbind_d68ev3c_c2_elabs_scored,openbind_d68ev3c_c2_elabs_scored_4.5plus,openbind_d68ev3c_c2_elabs,openbind_d68ev3c_c2_elabs_scored_5plus,syndirella_product,openbind_d68ev3c_c2_elabs_scored_top80percent,syndirella_placed

>  <smiles>  (273) 
C#Cc1cc(F)c(F)cc1NC(=O)c1ccnc(Cl)c1Br

>  <subsites>  (273) 
None

>  <rmsd(smina/fragmenstein)>  (273) 
1.608

>  <alias>  (273) 
None

>  <energy_score>  (273) 
-0.985241

>  <HIPPO Pose ID>  (273) 
65211

>  <distance_score>  (273) 
0.671752

>  <HIPPO Compound ID>  (273) 
102235

>  <gnina_score_min>  (273) 
5.133

>  <name>  (273) 
P65211

>  <exports>  (273) 
['/opt/xchem-fragalysis-2/maxwin/BulkDock/OUTPUTS/openbind_d68ev3c_c2_elabs_1LOTQJ3.sdf', '/opt/xchem-fragalysis-2/maxwin/BulkDock/OUTPUTS/openbind_d68ev3c_c2_elabs_1LSYEHW.sdf', '/opt/xchem-fragalysis-2/maxwin/BulkDock/OUTPUTS/openbind_d68ev3c_c2_elabs_1LSYI5W.sdf']

$$$$
P65213
     RDKit          3D

 21 22  0  0  0  0  0  0  0  0999 V2000
    3.9979   -3.0436   34.6660 C   0  0  0  0  0  0  0  0  0  0  0  0
    2.8226   -3.9811   34.9221 C   0  0  0  0  0  0  0  0  0  0  0  0
    1.9591   -3.6644   36.1303 C   0  0  0  0  0  0  0  0  0  0  0  0
    2.4853   -2.9920   37.2447 C   0  0  0  0  0  0  0  0  0  0  0  0
    1.7110   -2.7982   38.3892 C   0  0  0  0  0  0  0  0  0  0  0  0
    2.4785   -1.9559   39.8998 Br  0  0  0  0  0  0  0  0  0  0  0  0
    0.3942   -3.2440   38.4217 C   0  0  0  0  0  0  0  0  0  0  0  0
   -0.3434   -3.1172   39.5334 F   0  0  0  0  0  0  0  0  0  0  0  0
   -0.1716   -3.8679   37.3198 C   0  0  0  0  0  0  0  0  0  0  0  0
    0.6193   -4.0997   36.1985 C   0  0  0  0  0  0  0  0  0  0  0  0
    0.1019   -4.9235   35.2182 N   0  0  0  0  0  0  0  0  0  0  0  0
    0.5263   -6.3288   34.7708 C   0  0  0  0  0  0  0  0  0  0  0  0
    1.3296   -7.0488   35.2067 O   0  0  0  0  0  0  0  0  0  0  0  0
   -0.1914   -6.7283   33.5483 C   0  0  0  0  0  0  0  0  0  0  0  0
    0.2888   -6.3141   32.3056 C   0  0  0  0  0  0  0  0  0  0  0  0
   -0.3251   -6.8176   31.1722 C   0  0  0  0  0  0  0  0  0  0  0  0
   -1.3633   -7.6765   31.2080 N   0  0  0  0  0  0  0  0  0  0  0  0
   -1.7713   -8.0589   32.4392 C   0  0  0  0  0  0  0  0  0  0  0  0
   -3.0455   -9.1793   32.3722 Cl  0  0  0  0  0  0  0  0  0  0  0  0
   -1.2527   -7.6077   33.6345 C   0  0  0  0  0  0  0  0  0  0  0  0
   -1.9896   -8.1026   35.2874 Br  0  0  0  0  0  0  0  0  0  0  0  0
  1  2  1  0
  2  3  1  0
  3  4  2  0
  4  5  1  0
  5  6  1  0
  5  7  2  0
  7  8  1  0
  7  9  1  0
  9 10  2  0
 10 11  1  0
 11 12  1  0
 12 13  2  0
 12 14  1  0
 14 15  2  0
 15 16  1  0
 16 17  2  0
 17 18  1  0
 18 19  1  0
 18 20  2  0
 20 21  1  0
 10  3  1  0
 20 14  1  0
M  END
>  <ref_mols>  (274) 
7gov-a

>  <gnina_score>  (274) 
5.417

>  <smina_score_min>  (274) 
-4.787

>  <ref_pdb>  (274) 
7gov-a

>  <inspiration_score>  (274) 
None

>  <inchikey>  (274) 
OLDQSJZSWYEAJS-UHFFFAOYSA-N

>  <tags>  (274) 
BulkDock Fragalysis export,openbind_d68ev3c_c2_elabs_scored,openbind_d68ev3c_c2_elabs_scored_4.5plus,openbind_d68ev3c_c2_elabs,openbind_d68ev3c_c2_elabs_scored_5plus,syndirella_product,openbind_d68ev3c_c2_elabs_scored_top80percent,syndirella_placed

>  <smiles>  (274) 
CCc1cc(Br)c(F)cc1NC(=O)c1ccnc(Cl)c1Br

>  <subsites>  (274) 
None

>  <rmsd(smina/fragmenstein)>  (274) 
1.192

>  <alias>  (274) 
None

>  <energy_score>  (274) 
-7.090053

>  <HIPPO Pose ID>  (274) 
65213

>  <distance_score>  (274) 
0.572586

>  <HIPPO Compound ID>  (274) 
102237

>  <gnina_score_min>  (274) 
5.301

>  <name>  (274) 
P65213

>  <exports>  (274) 
['/opt/xchem-fragalysis-2/maxwin/BulkDock/OUTPUTS/openbind_d68ev3c_c2_elabs_1LOTQJ3.sdf', '/opt/xchem-fragalysis-2/maxwin/BulkDock/OUTPUTS/openbind_d68ev3c_c2_elabs_1LSYEHW.sdf', '/opt/xchem-fragalysis-2/maxwin/BulkDock/OUTPUTS/openbind_d68ev3c_c2_elabs_1LSYI5W.sdf']

$$$$
P65215
     RDKit          3D

 21 22  0  0  0  0  0  0  0  0999 V2000
    3.4836   -3.9392   33.5568 N   0  0  0  0  0  0  0  0  0  0  0  0
    2.9195   -3.8780   34.5700 C   0  0  0  0  0  0  0  0  0  0  0  0
    2.1985   -3.7769   35.8072 C   0  0  0  0  0  0  0  0  0  0  0  0
    2.6819   -2.8807   36.7787 C   0  0  0  0  0  0  0  0  0  0  0  0
    2.0297   -2.7424   38.0028 C   0  0  0  0  0  0  0  0  0  0  0  0
    0.8929   -3.4957   38.2511 C   0  0  0  0  0  0  0  0  0  0  0  0
    0.2694   -3.3731   39.4318 F   0  0  0  0  0  0  0  0  0  0  0  0
    0.3951   -4.3739   37.2931 C   0  0  0  0  0  0  0  0  0  0  0  0
   -0.7077   -5.0581   37.6169 F   0  0  0  0  0  0  0  0  0  0  0  0
    1.0372   -4.5358   36.0537 C   0  0  0  0  0  0  0  0  0  0  0  0
    0.5497   -5.4112   35.0633 N   0  0  0  0  0  0  0  0  0  0  0  0
   -0.6899   -6.3348   35.0617 C   0  0  0  0  0  0  0  0  0  0  0  0
   -1.4554   -6.5718   35.9073 O   0  0  0  0  0  0  0  0  0  0  0  0
   -0.9258   -7.0290   33.7424 C   0  0  0  0  0  0  0  0  0  0  0  0
   -0.3049   -6.5962   32.5668 C   0  0  0  0  0  0  0  0  0  0  0  0
    0.5524   -5.5660   32.5573 F   0  0  0  0  0  0  0  0  0  0  0  0
   -0.5942   -7.2159   31.3598 C   0  0  0  0  0  0  0  0  0  0  0  0
   -1.4746   -8.2319   31.2289 N   0  0  0  0  0  0  0  0  0  0  0  0
   -2.0546   -8.6546   32.3724 C   0  0  0  0  0  0  0  0  0  0  0  0
   -1.8373   -8.0937   33.6254 C   0  0  0  0  0  0  0  0  0  0  0  0
   -2.9347   -8.8122   34.9936 Br  0  0  0  0  0  0  0  0  0  0  0  0
  1  2  3  0
  2  3  1  0
  3  4  2  0
  4  5  1  0
  5  6  2  0
  6  7  1  0
  6  8  1  0
  8  9  1  0
  8 10  2  0
 10 11  1  0
 11 12  1  0
 12 13  2  0
 12 14  1  0
 14 15  2  0
 15 16  1  0
 15 17  1  0
 17 18  2  0
 18 19  1  0
 19 20  2  0
 20 21  1  0
 10  3  1  0
 20 14  1  0
M  END
>  <ref_mols>  (275) 
7gov-a

>  <gnina_score>  (275) 
5.317

>  <smina_score_min>  (275) 
-5.13

>  <ref_pdb>  (275) 
7gov-a

>  <inspiration_score>  (275) 
None

>  <inchikey>  (275) 
ZOOBTYWYXZUZJC-UHFFFAOYSA-N

>  <tags>  (275) 
BulkDock Fragalysis export,openbind_d68ev3c_c2_elabs_scored,openbind_d68ev3c_c2_elabs_scored_4.5plus,openbind_d68ev3c_c2_elabs,openbind_d68ev3c_c2_elabs_scored_5plus,syndirella_product,openbind_d68ev3c_c2_elabs_scored_top80percent,syndirella_placed

>  <smiles>  (275) 
N#Cc1ccc(F)c(F)c1NC(=O)c1c(F)cncc1Br

>  <subsites>  (275) 
None

>  <rmsd(smina/fragmenstein)>  (275) 
0.813

>  <alias>  (275) 
None

>  <energy_score>  (275) 
-9.084321

>  <HIPPO Pose ID>  (275) 
65215

>  <distance_score>  (275) 
0.776401

>  <HIPPO Compound ID>  (275) 
102240

>  <gnina_score_min>  (275) 
5.195

>  <name>  (275) 
P65215

>  <exports>  (275) 
['/opt/xchem-fragalysis-2/maxwin/BulkDock/OUTPUTS/openbind_d68ev3c_c2_elabs_1LOTQJ3.sdf', '/opt/xchem-fragalysis-2/maxwin/BulkDock/OUTPUTS/openbind_d68ev3c_c2_elabs_1LSYEHW.sdf', '/opt/xchem-fragalysis-2/maxwin/BulkDock/OUTPUTS/openbind_d68ev3c_c2_elabs_1LSYI5W.sdf']

$$$$
P65217
     RDKit          3D

 21 22  0  0  0  0  0  0  0  0999 V2000
   -0.5634   -7.3289   36.0181 O   0  0  0  0  0  0  0  0  0  0  0  0
   -0.3326   -6.6398   35.1074 C   0  0  0  0  0  0  0  0  0  0  0  0
    0.2890   -5.2298   35.0538 N   0  0  0  0  0  0  0  0  0  0  0  0
    0.8254   -4.4380   36.0671 C   0  0  0  0  0  0  0  0  0  0  0  0
    1.9063   -3.5837   35.7816 C   0  0  0  0  0  0  0  0  0  0  0  0
    2.6132   -3.6176   34.4528 C   0  0  0  0  0  0  0  0  0  0  0  0
    1.6924   -3.3249   33.4079 O   0  0  0  0  0  0  0  0  0  0  0  0
    2.4139   -2.7672   36.8096 C   0  0  0  0  0  0  0  0  0  0  0  0
    1.8541   -2.7948   38.0884 C   0  0  0  0  0  0  0  0  0  0  0  0
    0.7906   -3.6474   38.3519 C   0  0  0  0  0  0  0  0  0  0  0  0
    0.2464   -3.6567   39.5774 F   0  0  0  0  0  0  0  0  0  0  0  0
    0.2796   -4.4685   37.3567 C   0  0  0  0  0  0  0  0  0  0  0  0
   -0.7846   -5.2343   37.6412 F   0  0  0  0  0  0  0  0  0  0  0  0
   -0.7746   -7.1467   33.7641 C   0  0  0  0  0  0  0  0  0  0  0  0
   -0.1569   -6.7274   32.5850 C   0  0  0  0  0  0  0  0  0  0  0  0
    0.8275   -5.8190   32.5856 F   0  0  0  0  0  0  0  0  0  0  0  0
   -0.5668   -7.2513   31.3677 C   0  0  0  0  0  0  0  0  0  0  0  0
   -1.5514   -8.1674   31.2344 N   0  0  0  0  0  0  0  0  0  0  0  0
   -2.1296   -8.5748   32.3854 C   0  0  0  0  0  0  0  0  0  0  0  0
   -1.8030   -8.0952   33.6476 C   0  0  0  0  0  0  0  0  0  0  0  0
   -2.9354   -8.7082   35.0365 Br  0  0  0  0  0  0  0  0  0  0  0  0
  1  2  2  0
  2  3  1  0
  3  4  1  0
  4  5  2  0
  5  6  1  0
  6  7  1  0
  5  8  1  0
  8  9  2  0
  9 10  1  0
 10 11  1  0
 10 12  2  0
 12 13  1  0
  2 14  1  0
 14 15  2  0
 15 16  1  0
 15 17  1  0
 17 18  2  0
 18 19  1  0
 19 20  2  0
 20 21  1  0
 12  4  1  0
 20 14  1  0
M  END
>  <ref_mols>  (276) 
7gov-a

>  <gnina_score>  (276) 
5.171

>  <smina_score_min>  (276) 
-5.195

>  <ref_pdb>  (276) 
7gov-a

>  <inspiration_score>  (276) 
None

>  <inchikey>  (276) 
QBUDGWJHIXWAFO-UHFFFAOYSA-N

>  <tags>  (276) 
BulkDock Fragalysis export,openbind_d68ev3c_c2_elabs_scored,openbind_d68ev3c_c2_elabs_scored_4.5plus,openbind_d68ev3c_c2_elabs,openbind_d68ev3c_c2_elabs_scored_5plus,syndirella_product,openbind_d68ev3c_c2_elabs_scored_top80percent,syndirella_placed

>  <smiles>  (276) 
O=C(Nc1c(CO)ccc(F)c1F)c1c(F)cncc1Br

>  <subsites>  (276) 
None

>  <rmsd(smina/fragmenstein)>  (276) 
0.901

>  <alias>  (276) 
None

>  <energy_score>  (276) 
-14.245532

>  <HIPPO Pose ID>  (276) 
65217

>  <distance_score>  (276) 
0.559958

>  <HIPPO Compound ID>  (276) 
102243

>  <gnina_score_min>  (276) 
5.178

>  <name>  (276) 
P65217

>  <exports>  (276) 
['/opt/xchem-fragalysis-2/maxwin/BulkDock/OUTPUTS/openbind_d68ev3c_c2_elabs_1LOTQJ3.sdf', '/opt/xchem-fragalysis-2/maxwin/BulkDock/OUTPUTS/openbind_d68ev3c_c2_elabs_1LSYEHW.sdf', '/opt/xchem-fragalysis-2/maxwin/BulkDock/OUTPUTS/openbind_d68ev3c_c2_elabs_1LSYI5W.sdf']

$$$$
P65218
     RDKit          3D

 21 22  0  0  0  0  0  0  0  0999 V2000
    3.5450   -4.9077   34.1517 C   0  0  0  0  0  0  0  0  0  0  0  0
    2.9373   -3.5631   34.5490 C   0  0  0  0  0  0  0  0  0  0  0  0
    2.2027   -2.8787   33.3944 C   0  0  0  0  0  0  0  0  0  0  0  0
    2.0995   -3.6138   35.8197 C   0  0  0  0  0  0  0  0  0  0  0  0
    2.5470   -2.8107   36.8952 C   0  0  0  0  0  0  0  0  0  0  0  0
    1.8801   -2.7865   38.1187 C   0  0  0  0  0  0  0  0  0  0  0  0
    0.7487   -3.5620   38.2839 C   0  0  0  0  0  0  0  0  0  0  0  0
    0.1014   -3.5455   39.4571 F   0  0  0  0  0  0  0  0  0  0  0  0
    0.2731   -4.3528   37.2483 C   0  0  0  0  0  0  0  0  0  0  0  0
    0.9406   -4.3934   36.0147 C   0  0  0  0  0  0  0  0  0  0  0  0
    0.4093   -5.2052   35.0087 N   0  0  0  0  0  0  0  0  0  0  0  0
   -0.7004   -6.2809   35.0676 C   0  0  0  0  0  0  0  0  0  0  0  0
   -1.3954   -6.6018   35.9474 O   0  0  0  0  0  0  0  0  0  0  0  0
   -0.9324   -6.9972   33.7507 C   0  0  0  0  0  0  0  0  0  0  0  0
   -0.3044   -6.5974   32.5666 C   0  0  0  0  0  0  0  0  0  0  0  0
    0.5702   -5.5843   32.5303 F   0  0  0  0  0  0  0  0  0  0  0  0
   -0.5956   -7.2350   31.3681 C   0  0  0  0  0  0  0  0  0  0  0  0
   -1.4801   -8.2466   31.2487 N   0  0  0  0  0  0  0  0  0  0  0  0
   -2.0590   -8.6496   32.3986 C   0  0  0  0  0  0  0  0  0  0  0  0
   -1.8409   -8.0688   33.6449 C   0  0  0  0  0  0  0  0  0  0  0  0
   -2.9420   -8.7815   35.0148 Br  0  0  0  0  0  0  0  0  0  0  0  0
  1  2  1  0
  2  3  1  0
  2  4  1  0
  4  5  2  0
  5  6  1  0
  6  7  2  0
  7  8  1  0
  7  9  1  0
  9 10  2  0
 10 11  1  0
 11 12  1  0
 12 13  2  0
 12 14  1  0
 14 15  2  0
 15 16  1  0
 15 17  1  0
 17 18  2  0
 18 19  1  0
 19 20  2  0
 20 21  1  0
 10  4  1  0
 20 14  1  0
M  END
>  <ref_mols>  (277) 
7gov-a

>  <gnina_score>  (277) 
5.313

>  <smina_score_min>  (277) 
-5.623

>  <ref_pdb>  (277) 
7gov-a

>  <inspiration_score>  (277) 
None

>  <inchikey>  (277) 
WKIWWKJXSURKLN-UHFFFAOYSA-N

>  <tags>  (277) 
BulkDock Fragalysis export,openbind_d68ev3c_c2_elabs_scored,openbind_d68ev3c_c2_elabs_scored_4.5plus,openbind_d68ev3c_c2_elabs,openbind_d68ev3c_c2_elabs_scored_5plus,syndirella_product,openbind_d68ev3c_c2_elabs_scored_top80percent,syndirella_placed

>  <smiles>  (277) 
CC(C)c1ccc(F)cc1NC(=O)c1c(F)cncc1Br

>  <subsites>  (277) 
None

>  <rmsd(smina/fragmenstein)>  (277) 
0.994

>  <alias>  (277) 
None

>  <energy_score>  (277) 
-21.894346

>  <HIPPO Pose ID>  (277) 
65218

>  <distance_score>  (277) 
0.757752

>  <HIPPO Compound ID>  (277) 
102246

>  <gnina_score_min>  (277) 
5.281

>  <name>  (277) 
P65218

>  <exports>  (277) 
['/opt/xchem-fragalysis-2/maxwin/BulkDock/OUTPUTS/openbind_d68ev3c_c2_elabs_1LOTQJ3.sdf', '/opt/xchem-fragalysis-2/maxwin/BulkDock/OUTPUTS/openbind_d68ev3c_c2_elabs_1LSYEHW.sdf', '/opt/xchem-fragalysis-2/maxwin/BulkDock/OUTPUTS/openbind_d68ev3c_c2_elabs_1LSYI5W.sdf']

$$$$
P65220
     RDKit          3D

 21 23  0  0  0  0  0  0  0  0999 V2000
   -1.4874   -6.5274   35.9012 O   0  0  0  0  0  0  0  0  0  0  0  0
   -0.7178   -6.2982   35.0562 C   0  0  0  0  0  0  0  0  0  0  0  0
    0.5155   -5.3684   35.0516 N   0  0  0  0  0  0  0  0  0  0  0  0
    0.9881   -4.4838   36.0233 C   0  0  0  0  0  0  0  0  0  0  0  0
    0.2818   -4.3465   37.2250 C   0  0  0  0  0  0  0  0  0  0  0  0
    0.7578   -3.5017   38.2152 C   0  0  0  0  0  0  0  0  0  0  0  0
    0.0927   -3.3999   39.3741 F   0  0  0  0  0  0  0  0  0  0  0  0
    1.9178   -2.7713   38.0257 C   0  0  0  0  0  0  0  0  0  0  0  0
    2.6149   -2.8961   36.8224 C   0  0  0  0  0  0  0  0  0  0  0  0
    2.1712   -3.7475   35.7885 C   0  0  0  0  0  0  0  0  0  0  0  0
    2.9914   -3.8930   34.5203 C   0  0  0  0  0  0  0  0  0  0  0  0
    3.5961   -2.6800   33.8456 C   0  0  0  0  0  0  0  0  0  0  0  0
    2.4463   -3.3888   33.2031 C   0  0  0  0  0  0  0  0  0  0  0  0
   -0.9412   -7.0157   33.7447 C   0  0  0  0  0  0  0  0  0  0  0  0
   -0.3195   -6.5980   32.5643 C   0  0  0  0  0  0  0  0  0  0  0  0
    0.5374   -5.5693   32.5379 F   0  0  0  0  0  0  0  0  0  0  0  0
   -0.6052   -7.2325   31.3637 C   0  0  0  0  0  0  0  0  0  0  0  0
   -1.4812   -8.2522   31.2418 N   0  0  0  0  0  0  0  0  0  0  0  0
   -2.0596   -8.6640   32.3896 C   0  0  0  0  0  0  0  0  0  0  0  0
   -1.8455   -8.0880   33.6373 C   0  0  0  0  0  0  0  0  0  0  0  0
   -2.9375   -8.8025   35.0116 Br  0  0  0  0  0  0  0  0  0  0  0  0
  1  2  2  0
  2  3  1  0
  3  4  1  0
  4  5  2  0
  5  6  1  0
  6  7  1  0
  6  8  2  0
  8  9  1  0
  9 10  2  0
 10 11  1  0
 11 12  1  0
 12 13  1  0
  2 14  1  0
 14 15  2  0
 15 16  1  0
 15 17  1  0
 17 18  2  0
 18 19  1  0
 19 20  2  0
 20 21  1  0
 10  4  1  0
 13 11  1  0
 20 14  1  0
M  END
>  <ref_mols>  (278) 
7gov-a

>  <gnina_score>  (278) 
5.407

>  <smina_score_min>  (278) 
-5.547

>  <ref_pdb>  (278) 
7gov-a

>  <inspiration_score>  (278) 
None

>  <inchikey>  (278) 
FAGHKBFSHGWZGT-UHFFFAOYSA-N

>  <tags>  (278) 
BulkDock Fragalysis export,openbind_d68ev3c_c2_elabs_scored,openbind_d68ev3c_c2_elabs_scored_4.5plus,openbind_d68ev3c_c2_elabs,openbind_d68ev3c_c2_elabs_scored_5plus,syndirella_product,openbind_d68ev3c_c2_elabs_scored_top80percent,syndirella_placed

>  <smiles>  (278) 
O=C(Nc1cc(F)ccc1C1CC1)c1c(F)cncc1Br

>  <subsites>  (278) 
None

>  <rmsd(smina/fragmenstein)>  (278) 
1.147

>  <alias>  (278) 
None

>  <energy_score>  (278) 
-6.130896

>  <HIPPO Pose ID>  (278) 
65220

>  <distance_score>  (278) 
0.77408

>  <HIPPO Compound ID>  (278) 
102248

>  <gnina_score_min>  (278) 
5.243

>  <name>  (278) 
P65220

>  <exports>  (278) 
['/opt/xchem-fragalysis-2/maxwin/BulkDock/OUTPUTS/openbind_d68ev3c_c2_elabs_1LOTQJ3.sdf', '/opt/xchem-fragalysis-2/maxwin/BulkDock/OUTPUTS/openbind_d68ev3c_c2_elabs_1LSYEHW.sdf', '/opt/xchem-fragalysis-2/maxwin/BulkDock/OUTPUTS/openbind_d68ev3c_c2_elabs_1LSYI5W.sdf']

$$$$
P65221
     RDKit          3D

 21 22  0  0  0  0  0  0  0  0999 V2000
    3.6615   -5.1841   34.3309 C   0  0  0  0  0  0  0  0  0  0  0  0
    3.0448   -3.8514   34.6561 C   0  0  0  0  0  0  0  0  0  0  0  0
    3.2645   -2.8479   33.9817 O   0  0  0  0  0  0  0  0  0  0  0  0
    2.1953   -3.7462   35.8606 C   0  0  0  0  0  0  0  0  0  0  0  0
    2.6035   -2.8209   36.8341 C   0  0  0  0  0  0  0  0  0  0  0  0
    1.8969   -2.7088   38.0302 C   0  0  0  0  0  0  0  0  0  0  0  0
    0.7809   -3.5074   38.2370 C   0  0  0  0  0  0  0  0  0  0  0  0
    0.1079   -3.4145   39.3917 F   0  0  0  0  0  0  0  0  0  0  0  0
    0.3451   -4.3997   37.2630 C   0  0  0  0  0  0  0  0  0  0  0  0
    1.0474   -4.5286   36.0584 C   0  0  0  0  0  0  0  0  0  0  0  0
    0.5651   -5.4049   35.0798 N   0  0  0  0  0  0  0  0  0  0  0  0
   -0.6966   -6.2969   35.0654 C   0  0  0  0  0  0  0  0  0  0  0  0
   -1.4884   -6.4982   35.8967 O   0  0  0  0  0  0  0  0  0  0  0  0
   -0.9237   -7.0014   33.7480 C   0  0  0  0  0  0  0  0  0  0  0  0
   -0.2973   -6.5766   32.5722 C   0  0  0  0  0  0  0  0  0  0  0  0
    0.5672   -5.5518   32.5616 F   0  0  0  0  0  0  0  0  0  0  0  0
   -0.5854   -7.2007   31.3666 C   0  0  0  0  0  0  0  0  0  0  0  0
   -1.4657   -8.2171   31.2377 N   0  0  0  0  0  0  0  0  0  0  0  0
   -2.0463   -8.6364   32.3817 C   0  0  0  0  0  0  0  0  0  0  0  0
   -1.8309   -8.0700   33.6331 C   0  0  0  0  0  0  0  0  0  0  0  0
   -2.9166   -8.7950   35.0060 Br  0  0  0  0  0  0  0  0  0  0  0  0
  1  2  1  0
  2  3  2  0
  2  4  1  0
  4  5  2  0
  5  6  1  0
  6  7  2  0
  7  8  1  0
  7  9  1  0
  9 10  2  0
 10 11  1  0
 11 12  1  0
 12 13  2  0
 12 14  1  0
 14 15  2  0
 15 16  1  0
 15 17  1  0
 17 18  2  0
 18 19  1  0
 19 20  2  0
 20 21  1  0
 10  4  1  0
 20 14  1  0
M  END
>  <ref_mols>  (279) 
7gov-a

>  <gnina_score>  (279) 
5.172

>  <smina_score_min>  (279) 
-5.369

>  <ref_pdb>  (279) 
7gov-a

>  <inspiration_score>  (279) 
None

>  <inchikey>  (279) 
HCFBAHCZSNCELF-UHFFFAOYSA-N

>  <tags>  (279) 
BulkDock Fragalysis export,openbind_d68ev3c_c2_elabs_scored,openbind_d68ev3c_c2_elabs_scored_4.5plus,openbind_d68ev3c_c2_elabs,openbind_d68ev3c_c2_elabs_scored_5plus,syndirella_product,openbind_d68ev3c_c2_elabs_scored_top80percent,syndirella_placed

>  <smiles>  (279) 
CC(=O)c1ccc(F)cc1NC(=O)c1c(F)cncc1Br

>  <subsites>  (279) 
None

>  <rmsd(smina/fragmenstein)>  (279) 
2.176

>  <alias>  (279) 
None

>  <energy_score>  (279) 
-2.253476

>  <HIPPO Pose ID>  (279) 
65221

>  <distance_score>  (279) 
0.787305

>  <HIPPO Compound ID>  (279) 
102249

>  <gnina_score_min>  (279) 
5.171

>  <name>  (279) 
P65221

>  <exports>  (279) 
['/opt/xchem-fragalysis-2/maxwin/BulkDock/OUTPUTS/openbind_d68ev3c_c2_elabs_1LOTQJ3.sdf', '/opt/xchem-fragalysis-2/maxwin/BulkDock/OUTPUTS/openbind_d68ev3c_c2_elabs_1LSYEHW.sdf', '/opt/xchem-fragalysis-2/maxwin/BulkDock/OUTPUTS/openbind_d68ev3c_c2_elabs_1LSYI5W.sdf']

$$$$
P65222
     RDKit          3D

 21 22  0  0  0  0  0  0  0  0999 V2000
    2.8153   -4.6247   33.7877 O   0  0  0  0  0  0  0  0  0  0  0  0
    3.1182   -3.9724   34.7806 C   0  0  0  0  0  0  0  0  0  0  0  0
    2.2289   -3.8472   35.9507 C   0  0  0  0  0  0  0  0  0  0  0  0
    2.6390   -2.9937   36.9780 C   0  0  0  0  0  0  0  0  0  0  0  0
    3.7770   -2.2904   36.8672 F   0  0  0  0  0  0  0  0  0  0  0  0
    1.8844   -2.8492   38.1352 C   0  0  0  0  0  0  0  0  0  0  0  0
    0.7030   -3.5634   38.2559 C   0  0  0  0  0  0  0  0  0  0  0  0
   -0.0233   -3.4465   39.3750 F   0  0  0  0  0  0  0  0  0  0  0  0
    0.2572   -4.3972   37.2346 C   0  0  0  0  0  0  0  0  0  0  0  0
    1.0208   -4.5510   36.0718 C   0  0  0  0  0  0  0  0  0  0  0  0
    0.5650   -5.3810   35.0463 N   0  0  0  0  0  0  0  0  0  0  0  0
   -0.7159   -6.2386   34.9436 C   0  0  0  0  0  0  0  0  0  0  0  0
   -1.5529   -6.4461   35.7313 O   0  0  0  0  0  0  0  0  0  0  0  0
   -0.8771   -6.8978   33.6151 C   0  0  0  0  0  0  0  0  0  0  0  0
   -1.4811   -8.1574   33.6357 C   0  0  0  0  0  0  0  0  0  0  0  0
   -1.7872   -8.7795   34.7793 F   0  0  0  0  0  0  0  0  0  0  0  0
   -1.7905   -8.7882   32.4487 C   0  0  0  0  0  0  0  0  0  0  0  0
   -1.5067   -8.2771   31.2337 N   0  0  0  0  0  0  0  0  0  0  0  0
   -0.8812   -7.0748   31.2283 C   0  0  0  0  0  0  0  0  0  0  0  0
   -0.5953   -6.3285   32.3704 C   0  0  0  0  0  0  0  0  0  0  0  0
   -0.0302   -4.5450   32.0842 Br  0  0  0  0  0  0  0  0  0  0  0  0
  1  2  2  0
  2  3  1  0
  3  4  2  0
  4  5  1  0
  4  6  1  0
  6  7  2  0
  7  8  1  0
  7  9  1  0
  9 10  2  0
 10 11  1  0
 11 12  1  0
 12 13  2  0
 12 14  1  0
 14 15  2  0
 15 16  1  0
 15 17  1  0
 17 18  2  0
 18 19  1  0
 19 20  2  0
 20 21  1  0
 10  3  1  0
 20 14  1  0
M  END
>  <ref_mols>  (280) 
7gov-a

>  <gnina_score>  (280) 
5.115

>  <smina_score_min>  (280) 
-5.96

>  <ref_pdb>  (280) 
7gov-a

>  <inspiration_score>  (280) 
None

>  <inchikey>  (280) 
WFCDAFYSESTAPE-UHFFFAOYSA-N

>  <tags>  (280) 
BulkDock Fragalysis export,openbind_d68ev3c_c2_elabs_scored,openbind_d68ev3c_c2_elabs_scored_4.5plus,openbind_d68ev3c_c2_elabs,openbind_d68ev3c_c2_elabs_scored_5plus,syndirella_product,openbind_d68ev3c_c2_elabs_scored_top80percent,syndirella_placed

>  <smiles>  (280) 
O=Cc1c(F)cc(F)cc1NC(=O)c1c(F)cncc1Br

>  <subsites>  (280) 
None

>  <rmsd(smina/fragmenstein)>  (280) 
1.366

>  <alias>  (280) 
None

>  <energy_score>  (280) 
-26.061866

>  <HIPPO Pose ID>  (280) 
65222

>  <distance_score>  (280) 
0.781444

>  <HIPPO Compound ID>  (280) 
102252

>  <gnina_score_min>  (280) 
5.013

>  <name>  (280) 
P65222

>  <exports>  (280) 
['/opt/xchem-fragalysis-2/maxwin/BulkDock/OUTPUTS/openbind_d68ev3c_c2_elabs_1LOTQJ3.sdf', '/opt/xchem-fragalysis-2/maxwin/BulkDock/OUTPUTS/openbind_d68ev3c_c2_elabs_1LSYEHW.sdf', '/opt/xchem-fragalysis-2/maxwin/BulkDock/OUTPUTS/openbind_d68ev3c_c2_elabs_1LSYI5W.sdf']

$$$$
P65223
     RDKit          3D

 21 22  0  0  0  0  0  0  0  0999 V2000
    0.9399   -7.3730   35.1623 O   0  0  0  0  0  0  0  0  0  0  0  0
    0.1747   -6.6098   34.7273 C   0  0  0  0  0  0  0  0  0  0  0  0
   -0.1531   -5.1710   35.1586 N   0  0  0  0  0  0  0  0  0  0  0  0
    0.4351   -4.3623   36.1200 C   0  0  0  0  0  0  0  0  0  0  0  0
   -0.3194   -4.0297   37.2421 C   0  0  0  0  0  0  0  0  0  0  0  0
    0.2836   -3.3268   38.2778 C   0  0  0  0  0  0  0  0  0  0  0  0
   -0.4035   -3.1007   39.4041 F   0  0  0  0  0  0  0  0  0  0  0  0
    1.5885   -2.8731   38.1789 C   0  0  0  0  0  0  0  0  0  0  0  0
    2.3163   -3.1703   37.0351 C   0  0  0  0  0  0  0  0  0  0  0  0
    3.5688   -2.6968   36.9428 F   0  0  0  0  0  0  0  0  0  0  0  0
    1.7765   -3.9482   36.0029 C   0  0  0  0  0  0  0  0  0  0  0  0
    2.6466   -4.3041   34.8318 C   0  0  0  0  0  0  0  0  0  0  0  0
    2.0811   -3.7812   33.6328 O   0  0  0  0  0  0  0  0  0  0  0  0
   -0.5499   -7.0057   33.5115 C   0  0  0  0  0  0  0  0  0  0  0  0
   -0.0405   -6.6104   32.2807 C   0  0  0  0  0  0  0  0  0  0  0  0
    0.9811   -5.7495   32.1807 F   0  0  0  0  0  0  0  0  0  0  0  0
   -0.6029   -7.1415   31.1346 C   0  0  0  0  0  0  0  0  0  0  0  0
   -1.6325   -8.0245   31.1422 N   0  0  0  0  0  0  0  0  0  0  0  0
   -2.0947   -8.3961   32.3588 C   0  0  0  0  0  0  0  0  0  0  0  0
   -1.6015   -7.9099   33.5563 C   0  0  0  0  0  0  0  0  0  0  0  0
   -2.4621   -8.4356   35.1324 Br  0  0  0  0  0  0  0  0  0  0  0  0
  1  2  2  0
  2  3  1  0
  3  4  1  0
  4  5  2  0
  5  6  1  0
  6  7  1  0
  6  8  2  0
  8  9  1  0
  9 10  1  0
  9 11  2  0
 11 12  1  0
 12 13  1  0
  2 14  1  0
 14 15  2  0
 15 16  1  0
 15 17  1  0
 17 18  2  0
 18 19  1  0
 19 20  2  0
 20 21  1  0
 11  4  1  0
 20 14  1  0
M  END
>  <ref_mols>  (281) 
7gov-a

>  <gnina_score>  (281) 
5.088

>  <smina_score_min>  (281) 
-5.6

>  <ref_pdb>  (281) 
7gov-a

>  <inspiration_score>  (281) 
None

>  <inchikey>  (281) 
UZBYMGOLGAJJLD-UHFFFAOYSA-N

>  <tags>  (281) 
BulkDock Fragalysis export,openbind_d68ev3c_c2_elabs_scored,openbind_d68ev3c_c2_elabs_scored_4.5plus,openbind_d68ev3c_c2_elabs,openbind_d68ev3c_c2_elabs_scored_5plus,syndirella_product,openbind_d68ev3c_c2_elabs_scored_top80percent,syndirella_placed

>  <smiles>  (281) 
O=C(Nc1cc(F)cc(F)c1CO)c1c(F)cncc1Br

>  <subsites>  (281) 
None

>  <rmsd(smina/fragmenstein)>  (281) 
1.107

>  <alias>  (281) 
None

>  <energy_score>  (281) 
-13.782142

>  <HIPPO Pose ID>  (281) 
65223

>  <distance_score>  (281) 
0.414235

>  <HIPPO Compound ID>  (281) 
102253

>  <gnina_score_min>  (281) 
5.001

>  <name>  (281) 
P65223

>  <exports>  (281) 
['/opt/xchem-fragalysis-2/maxwin/BulkDock/OUTPUTS/openbind_d68ev3c_c2_elabs_1LOTQJ3.sdf', '/opt/xchem-fragalysis-2/maxwin/BulkDock/OUTPUTS/openbind_d68ev3c_c2_elabs_1LSYEHW.sdf', '/opt/xchem-fragalysis-2/maxwin/BulkDock/OUTPUTS/openbind_d68ev3c_c2_elabs_1LSYI5W.sdf']

$$$$
P65224
     RDKit          3D

 21 22  0  0  0  0  0  0  0  0999 V2000
    4.9288   -2.2195   37.2442 C   0  0  0  0  0  0  0  0  0  0  0  0
    3.6054   -1.7624   36.6520 C   0  0  0  0  0  0  0  0  0  0  0  0
    2.4913   -2.7709   36.8349 C   0  0  0  0  0  0  0  0  0  0  0  0
    1.7570   -2.7163   38.0311 C   0  0  0  0  0  0  0  0  0  0  0  0
    0.6810   -3.5658   38.2336 C   0  0  0  0  0  0  0  0  0  0  0  0
   -0.0049   -3.4972   39.3828 F   0  0  0  0  0  0  0  0  0  0  0  0
    0.2885   -4.4630   37.2548 C   0  0  0  0  0  0  0  0  0  0  0  0
    1.0155   -4.5581   36.0654 C   0  0  0  0  0  0  0  0  0  0  0  0
    0.5697   -5.4275   35.0632 N   0  0  0  0  0  0  0  0  0  0  0  0
   -0.7136   -6.2832   34.9748 C   0  0  0  0  0  0  0  0  0  0  0  0
   -1.5627   -6.4567   35.7574 O   0  0  0  0  0  0  0  0  0  0  0  0
   -0.8838   -6.9551   33.6469 C   0  0  0  0  0  0  0  0  0  0  0  0
   -1.5895   -8.1628   33.6705 C   0  0  0  0  0  0  0  0  0  0  0  0
   -2.0016   -8.7275   34.8113 F   0  0  0  0  0  0  0  0  0  0  0  0
   -1.9006   -8.7990   32.4862 C   0  0  0  0  0  0  0  0  0  0  0  0
   -1.5399   -8.3409   31.2706 N   0  0  0  0  0  0  0  0  0  0  0  0
   -0.8245   -7.1920   31.2599 C   0  0  0  0  0  0  0  0  0  0  0  0
   -0.5059   -6.4495   32.3966 C   0  0  0  0  0  0  0  0  0  0  0  0
    0.2918   -4.7633   32.0739 Br  0  0  0  0  0  0  0  0  0  0  0  0
    2.1588   -3.7475   35.8606 C   0  0  0  0  0  0  0  0  0  0  0  0
    2.9893   -3.8844   34.6094 C   0  0  0  0  0  0  0  0  0  0  0  0
  1  2  1  0
  2  3  1  0
  3  4  2  0
  4  5  1  0
  5  6  1  0
  5  7  2  0
  7  8  1  0
  8  9  1  0
  9 10  1  0
 10 11  2  0
 10 12  1  0
 12 13  2  0
 13 14  1  0
 13 15  1  0
 15 16  2  0
 16 17  1  0
 17 18  2  0
 18 19  1  0
  8 20  2  0
 20 21  1  0
 20  3  1  0
 18 12  1  0
M  END
>  <ref_mols>  (282) 
7gov-a

>  <gnina_score>  (282) 
5.176

>  <smina_score_min>  (282) 
-5.213

>  <ref_pdb>  (282) 
7gov-a

>  <inspiration_score>  (282) 
None

>  <inchikey>  (282) 
XCBABWUJZMUEES-UHFFFAOYSA-N

>  <tags>  (282) 
BulkDock Fragalysis export,openbind_d68ev3c_c2_elabs_scored,openbind_d68ev3c_c2_elabs_scored_4.5plus,openbind_d68ev3c_c2_elabs,openbind_d68ev3c_c2_elabs_scored_5plus,syndirella_product,openbind_d68ev3c_c2_elabs_scored_top80percent,syndirella_placed

>  <smiles>  (282) 
CCc1cc(F)cc(NC(=O)c2c(F)cncc2Br)c1C

>  <subsites>  (282) 
None

>  <rmsd(smina/fragmenstein)>  (282) 
0.249

>  <alias>  (282) 
None

>  <energy_score>  (282) 
-15.929837

>  <HIPPO Pose ID>  (282) 
65224

>  <distance_score>  (282) 
0.77874

>  <HIPPO Compound ID>  (282) 
102254

>  <gnina_score_min>  (282) 
5.026

>  <name>  (282) 
P65224

>  <exports>  (282) 
['/opt/xchem-fragalysis-2/maxwin/BulkDock/OUTPUTS/openbind_d68ev3c_c2_elabs_1LOTQJ3.sdf', '/opt/xchem-fragalysis-2/maxwin/BulkDock/OUTPUTS/openbind_d68ev3c_c2_elabs_1LSYEHW.sdf', '/opt/xchem-fragalysis-2/maxwin/BulkDock/OUTPUTS/openbind_d68ev3c_c2_elabs_1LSYI5W.sdf']

$$$$
P65225
     RDKit          3D

 21 22  0  0  0  0  0  0  0  0999 V2000
    2.9626   -3.9661   34.5260 C   0  0  0  0  0  0  0  0  0  0  0  0
    2.1995   -3.7995   35.8167 C   0  0  0  0  0  0  0  0  0  0  0  0
    2.6894   -2.9847   36.8642 C   0  0  0  0  0  0  0  0  0  0  0  0
    3.9312   -2.2703   36.7595 C   0  0  0  0  0  0  0  0  0  0  0  0
    4.9256   -1.6746   36.6861 N   0  0  0  0  0  0  0  0  0  0  0  0
    1.9774   -2.8639   38.0651 C   0  0  0  0  0  0  0  0  0  0  0  0
    0.7883   -3.5524   38.2306 C   0  0  0  0  0  0  0  0  0  0  0  0
    0.1181   -3.4447   39.3855 F   0  0  0  0  0  0  0  0  0  0  0  0
    0.2843   -4.3539   37.2197 C   0  0  0  0  0  0  0  0  0  0  0  0
    0.9864   -4.4903   36.0175 C   0  0  0  0  0  0  0  0  0  0  0  0
    0.4587   -5.3065   35.0149 N   0  0  0  0  0  0  0  0  0  0  0  0
   -0.7461   -6.2717   35.0383 C   0  0  0  0  0  0  0  0  0  0  0  0
   -1.5317   -6.4783   35.8739 O   0  0  0  0  0  0  0  0  0  0  0  0
   -0.9475   -7.0087   33.7340 C   0  0  0  0  0  0  0  0  0  0  0  0
   -0.3175   -6.5968   32.5544 C   0  0  0  0  0  0  0  0  0  0  0  0
    0.5437   -5.5693   32.5283 F   0  0  0  0  0  0  0  0  0  0  0  0
   -0.5978   -7.2383   31.3567 C   0  0  0  0  0  0  0  0  0  0  0  0
   -1.4722   -8.2600   31.2383 N   0  0  0  0  0  0  0  0  0  0  0  0
   -2.0524   -8.6698   32.3862 C   0  0  0  0  0  0  0  0  0  0  0  0
   -1.8446   -8.0868   33.6312 C   0  0  0  0  0  0  0  0  0  0  0  0
   -2.9305   -8.8008   35.0098 Br  0  0  0  0  0  0  0  0  0  0  0  0
  1  2  1  0
  2  3  2  0
  3  4  1  0
  4  5  3  0
  3  6  1  0
  6  7  2  0
  7  8  1  0
  7  9  1  0
  9 10  2  0
 10 11  1  0
 11 12  1  0
 12 13  2  0
 12 14  1  0
 14 15  2  0
 15 16  1  0
 15 17  1  0
 17 18  2  0
 18 19  1  0
 19 20  2  0
 20 21  1  0
 10  2  1  0
 20 14  1  0
M  END
>  <ref_mols>  (283) 
7gov-a

>  <gnina_score>  (283) 
5.289

>  <smina_score_min>  (283) 
-5.499

>  <ref_pdb>  (283) 
7gov-a

>  <inspiration_score>  (283) 
None

>  <inchikey>  (283) 
QGGOVBZDVNKJGR-UHFFFAOYSA-N

>  <tags>  (283) 
BulkDock Fragalysis export,openbind_d68ev3c_c2_elabs_scored,openbind_d68ev3c_c2_elabs_scored_4.5plus,openbind_d68ev3c_c2_elabs,openbind_d68ev3c_c2_elabs_scored_5plus,syndirella_product,openbind_d68ev3c_c2_elabs_scored_top80percent,syndirella_placed

>  <smiles>  (283) 
Cc1c(C#N)cc(F)cc1NC(=O)c1c(F)cncc1Br

>  <subsites>  (283) 
None

>  <rmsd(smina/fragmenstein)>  (283) 
1.243

>  <alias>  (283) 
None

>  <energy_score>  (283) 
-19.448083

>  <HIPPO Pose ID>  (283) 
65225

>  <distance_score>  (283) 
0.778375

>  <HIPPO Compound ID>  (283) 
102257

>  <gnina_score_min>  (283) 
5.102

>  <name>  (283) 
P65225

>  <exports>  (283) 
['/opt/xchem-fragalysis-2/maxwin/BulkDock/OUTPUTS/openbind_d68ev3c_c2_elabs_1LOTQJ3.sdf', '/opt/xchem-fragalysis-2/maxwin/BulkDock/OUTPUTS/openbind_d68ev3c_c2_elabs_1LSYEHW.sdf', '/opt/xchem-fragalysis-2/maxwin/BulkDock/OUTPUTS/openbind_d68ev3c_c2_elabs_1LSYI5W.sdf']

$$$$
P65226
     RDKit          3D

 21 22  0  0  0  0  0  0  0  0999 V2000
    3.3846   -1.8106   39.6626 C   0  0  0  0  0  0  0  0  0  0  0  0
    2.0676   -2.3261   39.5321 O   0  0  0  0  0  0  0  0  0  0  0  0
    1.7352   -2.8729   38.3229 C   0  0  0  0  0  0  0  0  0  0  0  0
    2.5161   -2.8427   37.1687 C   0  0  0  0  0  0  0  0  0  0  0  0
    2.0924   -3.4468   35.9577 C   0  0  0  0  0  0  0  0  0  0  0  0
    3.0543   -3.3582   34.8100 C   0  0  0  0  0  0  0  0  0  0  0  0
    0.8485   -4.0938   35.9187 C   0  0  0  0  0  0  0  0  0  0  0  0
    0.2888   -4.8120   34.8500 N   0  0  0  0  0  0  0  0  0  0  0  0
    0.9181   -5.2857   33.5178 C   0  0  0  0  0  0  0  0  0  0  0  0
    1.9774   -5.0861   33.0677 O   0  0  0  0  0  0  0  0  0  0  0  0
    0.0142   -6.1847   32.7348 C   0  0  0  0  0  0  0  0  0  0  0  0
    0.1414   -6.0699   31.3431 C   0  0  0  0  0  0  0  0  0  0  0  0
   -0.5925   -6.9005   30.5226 C   0  0  0  0  0  0  0  0  0  0  0  0
   -1.4710   -7.8017   30.9868 N   0  0  0  0  0  0  0  0  0  0  0  0
   -1.5457   -7.9200   32.3322 C   0  0  0  0  0  0  0  0  0  0  0  0
   -2.6671   -9.1308   32.7621 Cl  0  0  0  0  0  0  0  0  0  0  0  0
   -0.8331   -7.1652   33.2587 C   0  0  0  0  0  0  0  0  0  0  0  0
   -0.9942   -7.5438   35.1129 Br  0  0  0  0  0  0  0  0  0  0  0  0
    0.0536   -4.0927   37.0774 C   0  0  0  0  0  0  0  0  0  0  0  0
    0.5005   -3.5035   38.2561 C   0  0  0  0  0  0  0  0  0  0  0  0
   -0.2827   -3.5699   39.3437 F   0  0  0  0  0  0  0  0  0  0  0  0
  1  2  1  0
  2  3  1  0
  3  4  2  0
  4  5  1  0
  5  6  1  0
  5  7  2  0
  7  8  1  0
  8  9  1  0
  9 10  2  0
  9 11  1  0
 11 12  2  0
 12 13  1  0
 13 14  2  0
 14 15  1  0
 15 16  1  0
 15 17  2  0
 17 18  1  0
  7 19  1  0
 19 20  2  0
 20 21  1  0
 20  3  1  0
 17 11  1  0
M  END
>  <ref_mols>  (284) 
7gov-a

>  <gnina_score>  (284) 
5.081

>  <smina_score_min>  (284) 
-4.992

>  <ref_pdb>  (284) 
7gov-a

>  <inspiration_score>  (284) 
None

>  <inchikey>  (284) 
NHDSTVSPOUIWKB-UHFFFAOYSA-N

>  <tags>  (284) 
BulkDock Fragalysis export,openbind_d68ev3c_c2_elabs_scored,openbind_d68ev3c_c2_elabs_scored_4.5plus,openbind_d68ev3c_c2_elabs,openbind_d68ev3c_c2_elabs_scored_5plus,syndirella_product,openbind_d68ev3c_c2_elabs_scored_top80percent,syndirella_placed

>  <smiles>  (284) 
COc1cc(C)c(NC(=O)c2ccnc(Cl)c2Br)cc1F

>  <subsites>  (284) 
None

>  <rmsd(smina/fragmenstein)>  (284) 
1.454

>  <alias>  (284) 
None

>  <energy_score>  (284) 
-59.946993

>  <HIPPO Pose ID>  (284) 
65226

>  <distance_score>  (284) 
1.185934

>  <HIPPO Compound ID>  (284) 
102261

>  <gnina_score_min>  (284) 
5.022

>  <name>  (284) 
P65226

>  <exports>  (284) 
['/opt/xchem-fragalysis-2/maxwin/BulkDock/OUTPUTS/openbind_d68ev3c_c2_elabs_1LOTQJ3.sdf', '/opt/xchem-fragalysis-2/maxwin/BulkDock/OUTPUTS/openbind_d68ev3c_c2_elabs_1LSYEHW.sdf', '/opt/xchem-fragalysis-2/maxwin/BulkDock/OUTPUTS/openbind_d68ev3c_c2_elabs_1LSYI5W.sdf']

$$$$
P65227
     RDKit          3D

 21 22  0  0  0  0  0  0  0  0999 V2000
    3.5235   -0.8124   35.9798 C   0  0  0  0  0  0  0  0  0  0  0  0
    3.7486   -2.0242   36.8724 C   0  0  0  0  0  0  0  0  0  0  0  0
    2.5247   -2.9105   36.9555 C   0  0  0  0  0  0  0  0  0  0  0  0
    1.7407   -2.8193   38.1179 C   0  0  0  0  0  0  0  0  0  0  0  0
    0.6017   -3.5951   38.2611 C   0  0  0  0  0  0  0  0  0  0  0  0
   -0.1191   -3.5033   39.3869 F   0  0  0  0  0  0  0  0  0  0  0  0
    0.1937   -4.4546   37.2559 C   0  0  0  0  0  0  0  0  0  0  0  0
    0.9551   -4.5718   36.0910 C   0  0  0  0  0  0  0  0  0  0  0  0
    0.5142   -5.4177   35.0685 N   0  0  0  0  0  0  0  0  0  0  0  0
   -0.7213   -6.3379   34.9920 C   0  0  0  0  0  0  0  0  0  0  0  0
   -1.5255   -6.5946   35.7995 O   0  0  0  0  0  0  0  0  0  0  0  0
   -0.8859   -7.0107   33.6605 C   0  0  0  0  0  0  0  0  0  0  0  0
   -1.5505   -8.2483   33.7335 C   0  0  0  0  0  0  0  0  0  0  0  0
   -1.8857   -8.8990   32.5694 C   0  0  0  0  0  0  0  0  0  0  0  0
   -1.5734   -8.4378   31.3497 N   0  0  0  0  0  0  0  0  0  0  0  0
   -0.8845   -7.2723   31.2951 C   0  0  0  0  0  0  0  0  0  0  0  0
   -0.5585   -6.8360   29.6597 Cl  0  0  0  0  0  0  0  0  0  0  0  0
   -0.5519   -6.4910   32.4007 C   0  0  0  0  0  0  0  0  0  0  0  0
    0.1657   -4.7537   32.1227 Br  0  0  0  0  0  0  0  0  0  0  0  0
    2.1446   -3.8179   35.9324 C   0  0  0  0  0  0  0  0  0  0  0  0
    2.9762   -3.9708   34.6821 C   0  0  0  0  0  0  0  0  0  0  0  0
  1  2  1  0
  2  3  1  0
  3  4  2  0
  4  5  1  0
  5  6  1  0
  5  7  2  0
  7  8  1  0
  8  9  1  0
  9 10  1  0
 10 11  2  0
 10 12  1  0
 12 13  2  0
 13 14  1  0
 14 15  2  0
 15 16  1  0
 16 17  1  0
 16 18  2  0
 18 19  1  0
  8 20  2  0
 20 21  1  0
 20  3  1  0
 18 12  1  0
M  END
>  <ref_mols>  (285) 
7gov-a

>  <gnina_score>  (285) 
5.242

>  <smina_score_min>  (285) 
-5.455

>  <ref_pdb>  (285) 
7gov-a

>  <inspiration_score>  (285) 
None

>  <inchikey>  (285) 
PXCQZBDCIAPYAT-UHFFFAOYSA-N

>  <tags>  (285) 
BulkDock Fragalysis export,openbind_d68ev3c_c2_elabs_scored,openbind_d68ev3c_c2_elabs_scored_4.5plus,openbind_d68ev3c_c2_elabs,openbind_d68ev3c_c2_elabs_scored_5plus,syndirella_product,openbind_d68ev3c_c2_elabs_scored_top80percent,syndirella_placed

>  <smiles>  (285) 
CCc1cc(F)cc(NC(=O)c2ccnc(Cl)c2Br)c1C

>  <subsites>  (285) 
None

>  <rmsd(smina/fragmenstein)>  (285) 
0.326

>  <alias>  (285) 
None

>  <energy_score>  (285) 
-21.828243

>  <HIPPO Pose ID>  (285) 
65227

>  <distance_score>  (285) 
0.749963

>  <HIPPO Compound ID>  (285) 
102271

>  <gnina_score_min>  (285) 
5.189

>  <name>  (285) 
P65227

>  <exports>  (285) 
['/opt/xchem-fragalysis-2/maxwin/BulkDock/OUTPUTS/openbind_d68ev3c_c2_elabs_1LOTQJ3.sdf', '/opt/xchem-fragalysis-2/maxwin/BulkDock/OUTPUTS/openbind_d68ev3c_c2_elabs_1LSYEHW.sdf', '/opt/xchem-fragalysis-2/maxwin/BulkDock/OUTPUTS/openbind_d68ev3c_c2_elabs_1LSYI5W.sdf']

$$$$
P65228
     RDKit          3D

 21 22  0  0  0  0  0  0  0  0999 V2000
    3.6068   -2.0701   34.2735 O   0  0  0  0  0  0  0  0  0  0  0  0
    2.9372   -3.0628   34.5347 C   0  0  0  0  0  0  0  0  0  0  0  0
    2.1974   -3.1900   35.8040 C   0  0  0  0  0  0  0  0  0  0  0  0
    2.5662   -2.3949   36.8937 C   0  0  0  0  0  0  0  0  0  0  0  0
    1.9538   -2.5986   38.1271 C   0  0  0  0  0  0  0  0  0  0  0  0
    2.3017   -1.8267   39.1663 F   0  0  0  0  0  0  0  0  0  0  0  0
    0.9893   -3.5865   38.2840 C   0  0  0  0  0  0  0  0  0  0  0  0
    0.3810   -3.7593   39.4660 F   0  0  0  0  0  0  0  0  0  0  0  0
    0.6290   -4.3888   37.2088 C   0  0  0  0  0  0  0  0  0  0  0  0
    1.2203   -4.1754   35.9581 C   0  0  0  0  0  0  0  0  0  0  0  0
    0.7801   -4.9516   34.8975 N   0  0  0  0  0  0  0  0  0  0  0  0
    0.5147   -6.4586   34.8093 C   0  0  0  0  0  0  0  0  0  0  0  0
    0.6954   -7.3028   35.5883 O   0  0  0  0  0  0  0  0  0  0  0  0
   -0.1696   -6.8252   33.5432 C   0  0  0  0  0  0  0  0  0  0  0  0
    0.3272   -6.4164   32.3024 C   0  0  0  0  0  0  0  0  0  0  0  0
   -0.2977   -6.8842   31.1572 C   0  0  0  0  0  0  0  0  0  0  0  0
   -1.3569   -7.7150   31.1721 N   0  0  0  0  0  0  0  0  0  0  0  0
   -1.7907   -8.0927   32.3938 C   0  0  0  0  0  0  0  0  0  0  0  0
   -3.0861   -9.1867   32.3111 Cl  0  0  0  0  0  0  0  0  0  0  0  0
   -1.2779   -7.6637   33.5993 C   0  0  0  0  0  0  0  0  0  0  0  0
   -2.1442   -8.1352   35.2108 Br  0  0  0  0  0  0  0  0  0  0  0  0
  1  2  2  0
  2  3  1  0
  3  4  2  0
  4  5  1  0
  5  6  1  0
  5  7  2  0
  7  8  1  0
  7  9  1  0
  9 10  2  0
 10 11  1  0
 11 12  1  0
 12 13  2  0
 12 14  1  0
 14 15  2  0
 15 16  1  0
 16 17  2  0
 17 18  1  0
 18 19  1  0
 18 20  2  0
 20 21  1  0
 10  3  1  0
 20 14  1  0
M  END
>  <ref_mols>  (286) 
7gov-a

>  <gnina_score>  (286) 
5.203

>  <smina_score_min>  (286) 
-4.711

>  <ref_pdb>  (286) 
7gov-a

>  <inspiration_score>  (286) 
None

>  <inchikey>  (286) 
MINXMCGAFMGUIB-UHFFFAOYSA-N

>  <tags>  (286) 
BulkDock Fragalysis export,openbind_d68ev3c_c2_elabs_scored,openbind_d68ev3c_c2_elabs_scored_4.5plus,openbind_d68ev3c_c2_elabs,openbind_d68ev3c_c2_elabs_scored_5plus,syndirella_product,openbind_d68ev3c_c2_elabs_scored_top80percent,syndirella_placed

>  <smiles>  (286) 
O=Cc1cc(F)c(F)cc1NC(=O)c1ccnc(Cl)c1Br

>  <subsites>  (286) 
None

>  <rmsd(smina/fragmenstein)>  (286) 
1.624

>  <alias>  (286) 
None

>  <energy_score>  (286) 
-8.654355

>  <HIPPO Pose ID>  (286) 
65228

>  <distance_score>  (286) 
0.637102

>  <HIPPO Compound ID>  (286) 
102272

>  <gnina_score_min>  (286) 
5.008

>  <name>  (286) 
P65228

>  <exports>  (286) 
['/opt/xchem-fragalysis-2/maxwin/BulkDock/OUTPUTS/openbind_d68ev3c_c2_elabs_1LOTQJ3.sdf', '/opt/xchem-fragalysis-2/maxwin/BulkDock/OUTPUTS/openbind_d68ev3c_c2_elabs_1LSYEHW.sdf', '/opt/xchem-fragalysis-2/maxwin/BulkDock/OUTPUTS/openbind_d68ev3c_c2_elabs_1LSYI5W.sdf']

$$$$
P65229
     RDKit          3D

 21 22  0  0  0  0  0  0  0  0999 V2000
   -1.5799   -6.5500   35.8017 O   0  0  0  0  0  0  0  0  0  0  0  0
   -0.7067   -6.3554   35.0500 C   0  0  0  0  0  0  0  0  0  0  0  0
    0.5540   -5.4752   35.1870 N   0  0  0  0  0  0  0  0  0  0  0  0
    0.9463   -4.6027   36.2067 C   0  0  0  0  0  0  0  0  0  0  0  0
    0.1205   -4.4257   37.3218 C   0  0  0  0  0  0  0  0  0  0  0  0
    0.4982   -3.5546   38.3373 C   0  0  0  0  0  0  0  0  0  0  0  0
   -0.2772   -3.4308   39.4217 F   0  0  0  0  0  0  0  0  0  0  0  0
    1.6639   -2.8163   38.2515 C   0  0  0  0  0  0  0  0  0  0  0  0
    2.4762   -2.9838   37.1406 C   0  0  0  0  0  0  0  0  0  0  0  0
    3.6153   -2.2771   37.0778 F   0  0  0  0  0  0  0  0  0  0  0  0
    2.1523   -3.8842   36.1140 C   0  0  0  0  0  0  0  0  0  0  0  0
    3.1596   -4.1146   35.0271 C   0  0  0  0  0  0  0  0  0  0  0  0
    3.7605   -5.3903   35.2165 O   0  0  0  0  0  0  0  0  0  0  0  0
   -0.8374   -7.0311   33.7186 C   0  0  0  0  0  0  0  0  0  0  0  0
   -1.5185   -8.2605   33.7716 C   0  0  0  0  0  0  0  0  0  0  0  0
   -1.8656   -8.8861   32.5959 C   0  0  0  0  0  0  0  0  0  0  0  0
   -1.5526   -8.4066   31.3828 N   0  0  0  0  0  0  0  0  0  0  0  0
   -0.8457   -7.2498   31.3489 C   0  0  0  0  0  0  0  0  0  0  0  0
   -0.5244   -6.7806   29.7221 Cl  0  0  0  0  0  0  0  0  0  0  0  0
   -0.4971   -6.4940   32.4684 C   0  0  0  0  0  0  0  0  0  0  0  0
    0.2389   -4.7589   32.2287 Br  0  0  0  0  0  0  0  0  0  0  0  0
  1  2  2  0
  2  3  1  0
  3  4  1  0
  4  5  2  0
  5  6  1  0
  6  7  1  0
  6  8  2  0
  8  9  1  0
  9 10  1  0
  9 11  2  0
 11 12  1  0
 12 13  1  0
  2 14  1  0
 14 15  2  0
 15 16  1  0
 16 17  2  0
 17 18  1  0
 18 19  1  0
 18 20  2  0
 20 21  1  0
 11  4  1  0
 20 14  1  0
M  END
>  <ref_mols>  (287) 
7gov-a

>  <gnina_score>  (287) 
5.072

>  <smina_score_min>  (287) 
-6.279

>  <ref_pdb>  (287) 
7gov-a

>  <inspiration_score>  (287) 
None

>  <inchikey>  (287) 
VRKHBSDKEUSWCQ-UHFFFAOYSA-N

>  <tags>  (287) 
BulkDock Fragalysis export,openbind_d68ev3c_c2_elabs_scored,openbind_d68ev3c_c2_elabs_scored_4.5plus,openbind_d68ev3c_c2_elabs,openbind_d68ev3c_c2_elabs_scored_5plus,syndirella_product,openbind_d68ev3c_c2_elabs_scored_top80percent,syndirella_placed

>  <smiles>  (287) 
O=C(Nc1cc(F)cc(F)c1CO)c1ccnc(Cl)c1Br

>  <subsites>  (287) 
None

>  <rmsd(smina/fragmenstein)>  (287) 
1.085

>  <alias>  (287) 
None

>  <energy_score>  (287) 
-26.192709

>  <HIPPO Pose ID>  (287) 
65229

>  <distance_score>  (287) 
0.790785

>  <HIPPO Compound ID>  (287) 
102273

>  <gnina_score_min>  (287) 
5.151

>  <name>  (287) 
P65229

>  <exports>  (287) 
['/opt/xchem-fragalysis-2/maxwin/BulkDock/OUTPUTS/openbind_d68ev3c_c2_elabs_1LOTQJ3.sdf', '/opt/xchem-fragalysis-2/maxwin/BulkDock/OUTPUTS/openbind_d68ev3c_c2_elabs_1LSYEHW.sdf', '/opt/xchem-fragalysis-2/maxwin/BulkDock/OUTPUTS/openbind_d68ev3c_c2_elabs_1LSYI5W.sdf']

$$$$
P65231
     RDKit          3D

 21 22  0  0  0  0  0  0  0  0999 V2000
    3.4949   -3.1551   33.3519 N   0  0  0  0  0  0  0  0  0  0  0  0
    3.0252   -3.2056   34.4130 C   0  0  0  0  0  0  0  0  0  0  0  0
    2.3852   -3.2404   35.6960 C   0  0  0  0  0  0  0  0  0  0  0  0
    2.8950   -2.4646   36.7467 C   0  0  0  0  0  0  0  0  0  0  0  0
    2.3129   -2.5248   38.0143 C   0  0  0  0  0  0  0  0  0  0  0  0
    1.2242   -3.3591   38.2311 C   0  0  0  0  0  0  0  0  0  0  0  0
    0.6501   -3.3688   39.4451 F   0  0  0  0  0  0  0  0  0  0  0  0
    0.7139   -4.1433   37.1985 C   0  0  0  0  0  0  0  0  0  0  0  0
   -0.8527   -5.1278   37.5639 Br  0  0  0  0  0  0  0  0  0  0  0  0
    1.2929   -4.0871   35.9200 C   0  0  0  0  0  0  0  0  0  0  0  0
    0.8217   -4.8735   34.8684 N   0  0  0  0  0  0  0  0  0  0  0  0
    0.6094   -6.3931   34.7752 C   0  0  0  0  0  0  0  0  0  0  0  0
    0.8658   -7.2391   35.5333 O   0  0  0  0  0  0  0  0  0  0  0  0
   -0.1116   -6.7642   33.5288 C   0  0  0  0  0  0  0  0  0  0  0  0
    0.3632   -6.3498   32.2810 C   0  0  0  0  0  0  0  0  0  0  0  0
   -0.2731   -6.8231   31.1445 C   0  0  0  0  0  0  0  0  0  0  0  0
   -1.3251   -7.6637   31.1723 N   0  0  0  0  0  0  0  0  0  0  0  0
   -1.7362   -8.0495   32.3999 C   0  0  0  0  0  0  0  0  0  0  0  0
   -3.0142   -9.1685   32.3249 Cl  0  0  0  0  0  0  0  0  0  0  0  0
   -1.2085   -7.6162   33.5996 C   0  0  0  0  0  0  0  0  0  0  0  0
   -2.0341   -8.1020   35.2242 Br  0  0  0  0  0  0  0  0  0  0  0  0
  1  2  3  0
  2  3  1  0
  3  4  2  0
  4  5  1  0
  5  6  2  0
  6  7  1  0
  6  8  1  0
  8  9  1  0
  8 10  2  0
 10 11  1  0
 11 12  1  0
 12 13  2  0
 12 14  1  0
 14 15  2  0
 15 16  1  0
 16 17  2  0
 17 18  1  0
 18 19  1  0
 18 20  2  0
 20 21  1  0
 10  3  1  0
 20 14  1  0
M  END
>  <ref_mols>  (288) 
7gov-a

>  <gnina_score>  (288) 
5.399

>  <smina_score_min>  (288) 
-4.602

>  <ref_pdb>  (288) 
7gov-a

>  <inspiration_score>  (288) 
None

>  <inchikey>  (288) 
MNWVFOPUZINCKR-UHFFFAOYSA-N

>  <tags>  (288) 
BulkDock Fragalysis export,openbind_d68ev3c_c2_elabs_scored,openbind_d68ev3c_c2_elabs_scored_4.5plus,openbind_d68ev3c_c2_elabs,openbind_d68ev3c_c2_elabs_scored_5plus,syndirella_product,openbind_d68ev3c_c2_elabs_scored_top80percent,syndirella_placed

>  <smiles>  (288) 
N#Cc1ccc(F)c(Br)c1NC(=O)c1ccnc(Cl)c1Br

>  <subsites>  (288) 
None

>  <rmsd(smina/fragmenstein)>  (288) 
0.407

>  <alias>  (288) 
None

>  <energy_score>  (288) 
-3.262536

>  <HIPPO Pose ID>  (288) 
65231

>  <distance_score>  (288) 
0.710882

>  <HIPPO Compound ID>  (288) 
102277

>  <gnina_score_min>  (288) 
5.274

>  <name>  (288) 
P65231

>  <exports>  (288) 
['/opt/xchem-fragalysis-2/maxwin/BulkDock/OUTPUTS/openbind_d68ev3c_c2_elabs_1LOTQJ3.sdf', '/opt/xchem-fragalysis-2/maxwin/BulkDock/OUTPUTS/openbind_d68ev3c_c2_elabs_1LSYEHW.sdf', '/opt/xchem-fragalysis-2/maxwin/BulkDock/OUTPUTS/openbind_d68ev3c_c2_elabs_1LSYI5W.sdf']

$$$$
P65232
     RDKit          3D

 21 22  0  0  0  0  0  0  0  0999 V2000
    2.2598   -1.7663   39.3747 C   0  0  0  0  0  0  0  0  0  0  0  0
    1.9056   -2.5780   38.1615 C   0  0  0  0  0  0  0  0  0  0  0  0
    0.9593   -3.5961   38.2837 C   0  0  0  0  0  0  0  0  0  0  0  0
    0.3501   -3.8144   39.4594 F   0  0  0  0  0  0  0  0  0  0  0  0
    0.6083   -4.3887   37.2041 C   0  0  0  0  0  0  0  0  0  0  0  0
    1.1811   -4.1508   35.9551 C   0  0  0  0  0  0  0  0  0  0  0  0
    0.7528   -4.9365   34.8996 N   0  0  0  0  0  0  0  0  0  0  0  0
    0.4912   -6.4455   34.8229 C   0  0  0  0  0  0  0  0  0  0  0  0
    0.6666   -7.2826   35.6118 O   0  0  0  0  0  0  0  0  0  0  0  0
   -0.1803   -6.8228   33.5541 C   0  0  0  0  0  0  0  0  0  0  0  0
    0.3231   -6.4131   32.3163 C   0  0  0  0  0  0  0  0  0  0  0  0
   -0.2930   -6.8825   31.1673 C   0  0  0  0  0  0  0  0  0  0  0  0
   -1.3503   -7.7160   31.1751 N   0  0  0  0  0  0  0  0  0  0  0  0
   -1.7891   -8.0950   32.3950 C   0  0  0  0  0  0  0  0  0  0  0  0
   -3.0822   -9.1912   32.3048 Cl  0  0  0  0  0  0  0  0  0  0  0  0
   -1.2848   -7.6659   33.6040 C   0  0  0  0  0  0  0  0  0  0  0  0
   -2.1589   -8.1449   35.2090 Br  0  0  0  0  0  0  0  0  0  0  0  0
    2.1411   -3.1498   35.7737 C   0  0  0  0  0  0  0  0  0  0  0  0
    2.8546   -3.0003   34.4550 C   0  0  0  0  0  0  0  0  0  0  0  0
    2.5010   -2.3696   36.8986 C   0  0  0  0  0  0  0  0  0  0  0  0
    3.8234   -0.9952   36.7104 Br  0  0  0  0  0  0  0  0  0  0  0  0
  1  2  1  0
  2  3  2  0
  3  4  1  0
  3  5  1  0
  5  6  2  0
  6  7  1  0
  7  8  1  0
  8  9  2  0
  8 10  1  0
 10 11  2  0
 11 12  1  0
 12 13  2  0
 13 14  1  0
 14 15  1  0
 14 16  2  0
 16 17  1  0
  6 18  1  0
 18 19  1  0
 18 20  2  0
 20 21  1  0
 20  2  1  0
 16 10  1  0
M  END
>  <ref_mols>  (289) 
7gov-a

>  <gnina_score>  (289) 
5.277

>  <smina_score_min>  (289) 
-5.067

>  <ref_pdb>  (289) 
7gov-a

>  <inspiration_score>  (289) 
None

>  <inchikey>  (289) 
YGEIQERCGBAZHE-UHFFFAOYSA-N

>  <tags>  (289) 
BulkDock Fragalysis export,openbind_d68ev3c_c2_elabs_scored,openbind_d68ev3c_c2_elabs_scored_4.5plus,openbind_d68ev3c_c2_elabs,openbind_d68ev3c_c2_elabs_scored_5plus,syndirella_product,openbind_d68ev3c_c2_elabs_scored_top80percent,syndirella_placed

>  <smiles>  (289) 
Cc1c(F)cc(NC(=O)c2ccnc(Cl)c2Br)c(C)c1Br

>  <subsites>  (289) 
None

>  <rmsd(smina/fragmenstein)>  (289) 
1.916

>  <alias>  (289) 
None

>  <energy_score>  (289) 
-17.888006

>  <HIPPO Pose ID>  (289) 
65232

>  <distance_score>  (289) 
0.643438

>  <HIPPO Compound ID>  (289) 
102279

>  <gnina_score_min>  (289) 
5.118

>  <name>  (289) 
P65232

>  <exports>  (289) 
['/opt/xchem-fragalysis-2/maxwin/BulkDock/OUTPUTS/openbind_d68ev3c_c2_elabs_1LOTQJ3.sdf', '/opt/xchem-fragalysis-2/maxwin/BulkDock/OUTPUTS/openbind_d68ev3c_c2_elabs_1LSYEHW.sdf', '/opt/xchem-fragalysis-2/maxwin/BulkDock/OUTPUTS/openbind_d68ev3c_c2_elabs_1LSYI5W.sdf']

$$$$
P65233
     RDKit          3D

 21 22  0  0  0  0  0  0  0  0999 V2000
    3.0368   -4.0382   34.7051 C   0  0  0  0  0  0  0  0  0  0  0  0
    2.1868   -3.8871   35.9435 C   0  0  0  0  0  0  0  0  0  0  0  0
    2.5780   -3.0100   36.9833 C   0  0  0  0  0  0  0  0  0  0  0  0
    3.7835   -2.2317   36.9133 C   0  0  0  0  0  0  0  0  0  0  0  0
    4.7476   -1.5856   36.8702 N   0  0  0  0  0  0  0  0  0  0  0  0
    1.7998   -2.8867   38.1402 C   0  0  0  0  0  0  0  0  0  0  0  0
    0.6322   -3.6198   38.2616 C   0  0  0  0  0  0  0  0  0  0  0  0
   -0.0993   -3.5098   39.3780 F   0  0  0  0  0  0  0  0  0  0  0  0
    0.2082   -4.4620   37.2453 C   0  0  0  0  0  0  0  0  0  0  0  0
    0.9777   -4.6032   36.0866 C   0  0  0  0  0  0  0  0  0  0  0  0
    0.5286   -5.4425   35.0642 N   0  0  0  0  0  0  0  0  0  0  0  0
   -0.7212   -6.3427   34.9830 C   0  0  0  0  0  0  0  0  0  0  0  0
   -1.5330   -6.5853   35.7870 O   0  0  0  0  0  0  0  0  0  0  0  0
   -0.8867   -7.0154   33.6526 C   0  0  0  0  0  0  0  0  0  0  0  0
   -1.5568   -8.2497   33.7245 C   0  0  0  0  0  0  0  0  0  0  0  0
   -1.8919   -8.8979   32.5593 C   0  0  0  0  0  0  0  0  0  0  0  0
   -1.5755   -8.4359   31.3408 N   0  0  0  0  0  0  0  0  0  0  0  0
   -0.8820   -7.2730   31.2875 C   0  0  0  0  0  0  0  0  0  0  0  0
   -0.5555   -6.8339   29.6533 Cl  0  0  0  0  0  0  0  0  0  0  0  0
   -0.5467   -6.4955   32.3943 C   0  0  0  0  0  0  0  0  0  0  0  0
    0.1864   -4.7631   32.1234 Br  0  0  0  0  0  0  0  0  0  0  0  0
  1  2  1  0
  2  3  2  0
  3  4  1  0
  4  5  3  0
  3  6  1  0
  6  7  2  0
  7  8  1  0
  7  9  1  0
  9 10  2  0
 10 11  1  0
 11 12  1  0
 12 13  2  0
 12 14  1  0
 14 15  2  0
 15 16  1  0
 16 17  2  0
 17 18  1  0
 18 19  1  0
 18 20  2  0
 20 21  1  0
 10  2  1  0
 20 14  1  0
M  END
>  <ref_mols>  (290) 
7gov-a

>  <gnina_score>  (290) 
5.178

>  <smina_score_min>  (290) 
-5.873

>  <ref_pdb>  (290) 
7gov-a

>  <inspiration_score>  (290) 
None

>  <inchikey>  (290) 
NEAKFOFUGRNQMV-UHFFFAOYSA-N

>  <tags>  (290) 
BulkDock Fragalysis export,openbind_d68ev3c_c2_elabs_scored,openbind_d68ev3c_c2_elabs_scored_4.5plus,openbind_d68ev3c_c2_elabs,openbind_d68ev3c_c2_elabs_scored_5plus,syndirella_product,openbind_d68ev3c_c2_elabs_scored_top80percent,syndirella_placed

>  <smiles>  (290) 
Cc1c(C#N)cc(F)cc1NC(=O)c1ccnc(Cl)c1Br

>  <subsites>  (290) 
None

>  <rmsd(smina/fragmenstein)>  (290) 
1.147

>  <alias>  (290) 
None

>  <energy_score>  (290) 
-20.549934

>  <HIPPO Pose ID>  (290) 
65233

>  <distance_score>  (290) 
0.749389

>  <HIPPO Compound ID>  (290) 
102280

>  <gnina_score_min>  (290) 
5.121

>  <name>  (290) 
P65233

>  <exports>  (290) 
['/opt/xchem-fragalysis-2/maxwin/BulkDock/OUTPUTS/openbind_d68ev3c_c2_elabs_1LOTQJ3.sdf', '/opt/xchem-fragalysis-2/maxwin/BulkDock/OUTPUTS/openbind_d68ev3c_c2_elabs_1LSYEHW.sdf', '/opt/xchem-fragalysis-2/maxwin/BulkDock/OUTPUTS/openbind_d68ev3c_c2_elabs_1LSYI5W.sdf']

$$$$
P65234
     RDKit          3D

 21 22  0  0  0  0  0  0  0  0999 V2000
    1.5059   -6.8217   35.0096 O   0  0  0  0  0  0  0  0  0  0  0  0
    0.5787   -6.1971   34.6933 C   0  0  0  0  0  0  0  0  0  0  0  0
    0.0273   -4.8844   35.2557 N   0  0  0  0  0  0  0  0  0  0  0  0
    0.5337   -4.0393   36.2314 C   0  0  0  0  0  0  0  0  0  0  0  0
    1.8946   -3.6732   36.2407 C   0  0  0  0  0  0  0  0  0  0  0  0
    2.8475   -4.0420   35.1278 C   0  0  0  0  0  0  0  0  0  0  0  0
    3.8086   -3.0058   34.9183 O   0  0  0  0  0  0  0  0  0  0  0  0
    2.3898   -2.9788   37.3592 C   0  0  0  0  0  0  0  0  0  0  0  0
    1.5693   -2.6940   38.4480 C   0  0  0  0  0  0  0  0  0  0  0  0
    0.2339   -3.0689   38.4102 C   0  0  0  0  0  0  0  0  0  0  0  0
   -0.5277   -2.8670   39.4923 F   0  0  0  0  0  0  0  0  0  0  0  0
   -0.2985   -3.6947   37.2933 C   0  0  0  0  0  0  0  0  0  0  0  0
   -1.5873   -4.0693   37.2875 F   0  0  0  0  0  0  0  0  0  0  0  0
   -0.1766   -6.6340   33.5054 C   0  0  0  0  0  0  0  0  0  0  0  0
    0.2776   -6.2439   32.2444 C   0  0  0  0  0  0  0  0  0  0  0  0
   -0.3442   -6.7829   31.1323 C   0  0  0  0  0  0  0  0  0  0  0  0
   -1.3667   -7.6573   31.2040 N   0  0  0  0  0  0  0  0  0  0  0  0
   -1.7476   -8.0213   32.4497 C   0  0  0  0  0  0  0  0  0  0  0  0
   -2.9985   -9.1711   32.4158 Cl  0  0  0  0  0  0  0  0  0  0  0  0
   -1.2152   -7.5364   33.6281 C   0  0  0  0  0  0  0  0  0  0  0  0
   -1.8801   -8.0362   35.3087 Br  0  0  0  0  0  0  0  0  0  0  0  0
  1  2  2  0
  2  3  1  0
  3  4  1  0
  4  5  2  0
  5  6  1  0
  6  7  1  0
  5  8  1  0
  8  9  2  0
  9 10  1  0
 10 11  1  0
 10 12  2  0
 12 13  1  0
  2 14  1  0
 14 15  2  0
 15 16  1  0
 16 17  2  0
 17 18  1  0
 18 19  1  0
 18 20  2  0
 20 21  1  0
 12  4  1  0
 20 14  1  0
M  END
>  <ref_mols>  (291) 
7gov-a

>  <gnina_score>  (291) 
5.175

>  <smina_score_min>  (291) 
-4.773

>  <ref_pdb>  (291) 
7gov-a

>  <inspiration_score>  (291) 
None

>  <inchikey>  (291) 
UVAJVQGMNOGKCB-UHFFFAOYSA-N

>  <tags>  (291) 
BulkDock Fragalysis export,openbind_d68ev3c_c2_elabs_scored,openbind_d68ev3c_c2_elabs_scored_4.5plus,openbind_d68ev3c_c2_elabs,openbind_d68ev3c_c2_elabs_scored_5plus,syndirella_product,openbind_d68ev3c_c2_elabs_scored_top80percent,syndirella_placed

>  <smiles>  (291) 
O=C(Nc1c(CO)ccc(F)c1F)c1ccnc(Cl)c1Br

>  <subsites>  (291) 
None

>  <rmsd(smina/fragmenstein)>  (291) 
1.643

>  <alias>  (291) 
None

>  <energy_score>  (291) 
-5.407287

>  <HIPPO Pose ID>  (291) 
65234

>  <distance_score>  (291) 
0.6991

>  <HIPPO Compound ID>  (291) 
102282

>  <gnina_score_min>  (291) 
5.188

>  <name>  (291) 
P65234

>  <exports>  (291) 
['/opt/xchem-fragalysis-2/maxwin/BulkDock/OUTPUTS/openbind_d68ev3c_c2_elabs_1LOTQJ3.sdf', '/opt/xchem-fragalysis-2/maxwin/BulkDock/OUTPUTS/openbind_d68ev3c_c2_elabs_1LSYEHW.sdf', '/opt/xchem-fragalysis-2/maxwin/BulkDock/OUTPUTS/openbind_d68ev3c_c2_elabs_1LSYI5W.sdf']

$$$$
P65235
     RDKit          3D

 21 22  0  0  0  0  0  0  0  0999 V2000
    2.0860   -2.2911   33.3614 C   0  0  0  0  0  0  0  0  0  0  0  0
    2.9221   -2.9247   34.4754 C   0  0  0  0  0  0  0  0  0  0  0  0
    3.6695   -4.1704   33.9910 C   0  0  0  0  0  0  0  0  0  0  0  0
    2.1303   -3.1429   35.7561 C   0  0  0  0  0  0  0  0  0  0  0  0
    2.4592   -2.3537   36.8773 C   0  0  0  0  0  0  0  0  0  0  0  0
    1.8567   -2.5658   38.1201 C   0  0  0  0  0  0  0  0  0  0  0  0
    0.9279   -3.5828   38.2635 C   0  0  0  0  0  0  0  0  0  0  0  0
    0.3338   -3.7778   39.4489 F   0  0  0  0  0  0  0  0  0  0  0  0
    0.5929   -4.3861   37.1867 C   0  0  0  0  0  0  0  0  0  0  0  0
    1.1747   -4.1512   35.9346 C   0  0  0  0  0  0  0  0  0  0  0  0
    0.7476   -4.9428   34.8851 N   0  0  0  0  0  0  0  0  0  0  0  0
    0.4850   -6.4518   34.8182 C   0  0  0  0  0  0  0  0  0  0  0  0
    0.6591   -7.2837   35.6128 O   0  0  0  0  0  0  0  0  0  0  0  0
   -0.1856   -6.8351   33.5498 C   0  0  0  0  0  0  0  0  0  0  0  0
    0.3134   -6.4277   32.3092 C   0  0  0  0  0  0  0  0  0  0  0  0
   -0.3052   -6.8982   31.1622 C   0  0  0  0  0  0  0  0  0  0  0  0
   -1.3630   -7.7303   31.1740 N   0  0  0  0  0  0  0  0  0  0  0  0
   -1.7996   -8.1054   32.3959 C   0  0  0  0  0  0  0  0  0  0  0  0
   -3.0996   -9.1934   32.3101 Cl  0  0  0  0  0  0  0  0  0  0  0  0
   -1.2912   -7.6761   33.6033 C   0  0  0  0  0  0  0  0  0  0  0  0
   -2.1645   -8.1500   35.2102 Br  0  0  0  0  0  0  0  0  0  0  0  0
  1  2  1  0
  2  3  1  0
  2  4  1  0
  4  5  2  0
  5  6  1  0
  6  7  2  0
  7  8  1  0
  7  9  1  0
  9 10  2  0
 10 11  1  0
 11 12  1  0
 12 13  2  0
 12 14  1  0
 14 15  2  0
 15 16  1  0
 16 17  2  0
 17 18  1  0
 18 19  1  0
 18 20  2  0
 20 21  1  0
 10  4  1  0
 20 14  1  0
M  END
>  <ref_mols>  (292) 
7gov-a

>  <gnina_score>  (292) 
5.284

>  <smina_score_min>  (292) 
-4.808

>  <ref_pdb>  (292) 
7gov-a

>  <inspiration_score>  (292) 
None

>  <inchikey>  (292) 
WADMTLOHSKTADQ-UHFFFAOYSA-N

>  <tags>  (292) 
BulkDock Fragalysis export,openbind_d68ev3c_c2_elabs_scored,openbind_d68ev3c_c2_elabs_scored_4.5plus,openbind_d68ev3c_c2_elabs,openbind_d68ev3c_c2_elabs_scored_5plus,syndirella_product,openbind_d68ev3c_c2_elabs_scored_top80percent,syndirella_placed

>  <smiles>  (292) 
CC(C)c1ccc(F)cc1NC(=O)c1ccnc(Cl)c1Br

>  <subsites>  (292) 
None

>  <rmsd(smina/fragmenstein)>  (292) 
1.49

>  <alias>  (292) 
None

>  <energy_score>  (292) 
-9.453423

>  <HIPPO Pose ID>  (292) 
65235

>  <distance_score>  (292) 
0.645644

>  <HIPPO Compound ID>  (292) 
102285

>  <gnina_score_min>  (292) 
5.251

>  <name>  (292) 
P65235

>  <exports>  (292) 
['/opt/xchem-fragalysis-2/maxwin/BulkDock/OUTPUTS/openbind_d68ev3c_c2_elabs_1LOTQJ3.sdf', '/opt/xchem-fragalysis-2/maxwin/BulkDock/OUTPUTS/openbind_d68ev3c_c2_elabs_1LSYEHW.sdf', '/opt/xchem-fragalysis-2/maxwin/BulkDock/OUTPUTS/openbind_d68ev3c_c2_elabs_1LSYI5W.sdf']

$$$$
P65236
     RDKit          3D

 21 23  0  0  0  0  0  0  0  0999 V2000
   -1.5336   -6.5363   35.7776 O   0  0  0  0  0  0  0  0  0  0  0  0
   -0.7268   -6.2866   34.9693 C   0  0  0  0  0  0  0  0  0  0  0  0
    0.5151   -5.3698   35.0435 N   0  0  0  0  0  0  0  0  0  0  0  0
    0.9583   -4.5213   36.0630 C   0  0  0  0  0  0  0  0  0  0  0  0
    0.1782   -4.3756   37.2173 C   0  0  0  0  0  0  0  0  0  0  0  0
    0.6094   -3.5531   38.2466 C   0  0  0  0  0  0  0  0  0  0  0  0
   -0.1245   -3.4474   39.3623 F   0  0  0  0  0  0  0  0  0  0  0  0
    1.7953   -2.8499   38.1426 C   0  0  0  0  0  0  0  0  0  0  0  0
    2.5704   -2.9876   36.9907 C   0  0  0  0  0  0  0  0  0  0  0  0
    2.1827   -3.8239   35.9210 C   0  0  0  0  0  0  0  0  0  0  0  0
    3.1058   -4.0216   34.7291 C   0  0  0  0  0  0  0  0  0  0  0  0
    4.0610   -2.9374   34.2733 C   0  0  0  0  0  0  0  0  0  0  0  0
    2.8609   -3.2653   33.4453 C   0  0  0  0  0  0  0  0  0  0  0  0
   -0.8920   -6.9823   33.6533 C   0  0  0  0  0  0  0  0  0  0  0  0
   -1.5099   -8.2417   33.7489 C   0  0  0  0  0  0  0  0  0  0  0  0
   -1.8372   -8.9157   32.5955 C   0  0  0  0  0  0  0  0  0  0  0  0
   -1.5490   -8.4616   31.3668 N   0  0  0  0  0  0  0  0  0  0  0  0
   -0.9052   -7.2721   31.2926 C   0  0  0  0  0  0  0  0  0  0  0  0
   -0.5838   -6.8531   29.6521 Cl  0  0  0  0  0  0  0  0  0  0  0  0
   -0.6073   -6.4604   32.3853 C   0  0  0  0  0  0  0  0  0  0  0  0
   -0.0487   -4.6732   32.0884 Br  0  0  0  0  0  0  0  0  0  0  0  0
  1  2  2  0
  2  3  1  0
  3  4  1  0
  4  5  2  0
  5  6  1  0
  6  7  1  0
  6  8  2  0
  8  9  1  0
  9 10  2  0
 10 11  1  0
 11 12  1  0
 12 13  1  0
  2 14  1  0
 14 15  2  0
 15 16  1  0
 16 17  2  0
 17 18  1  0
 18 19  1  0
 18 20  2  0
 20 21  1  0
 10  4  1  0
 13 11  1  0
 20 14  1  0
M  END
>  <ref_mols>  (293) 
7gov-a

>  <gnina_score>  (293) 
5.282

>  <smina_score_min>  (293) 
-5.778

>  <ref_pdb>  (293) 
7gov-a

>  <inspiration_score>  (293) 
None

>  <inchikey>  (293) 
CMMWDDUXKTWHJQ-UHFFFAOYSA-N

>  <tags>  (293) 
BulkDock Fragalysis export,openbind_d68ev3c_c2_elabs_scored,openbind_d68ev3c_c2_elabs_scored_4.5plus,openbind_d68ev3c_c2_elabs,openbind_d68ev3c_c2_elabs_scored_5plus,syndirella_product,openbind_d68ev3c_c2_elabs_scored_top80percent,syndirella_placed

>  <smiles>  (293) 
O=C(Nc1cc(F)ccc1C1CC1)c1ccnc(Cl)c1Br

>  <subsites>  (293) 
None

>  <rmsd(smina/fragmenstein)>  (293) 
1.396

>  <alias>  (293) 
None

>  <energy_score>  (293) 
-26.17332

>  <HIPPO Pose ID>  (293) 
65236

>  <distance_score>  (293) 
0.758465

>  <HIPPO Compound ID>  (293) 
102287

>  <gnina_score_min>  (293) 
5.021

>  <name>  (293) 
P65236

>  <exports>  (293) 
['/opt/xchem-fragalysis-2/maxwin/BulkDock/OUTPUTS/openbind_d68ev3c_c2_elabs_1LOTQJ3.sdf', '/opt/xchem-fragalysis-2/maxwin/BulkDock/OUTPUTS/openbind_d68ev3c_c2_elabs_1LSYEHW.sdf', '/opt/xchem-fragalysis-2/maxwin/BulkDock/OUTPUTS/openbind_d68ev3c_c2_elabs_1LSYI5W.sdf']

$$$$
P65237
     RDKit          3D

 21 22  0  0  0  0  0  0  0  0999 V2000
    4.1516   -2.6511   34.3409 C   0  0  0  0  0  0  0  0  0  0  0  0
    2.7085   -3.0679   34.4529 C   0  0  0  0  0  0  0  0  0  0  0  0
    2.0282   -3.2974   33.4518 O   0  0  0  0  0  0  0  0  0  0  0  0
    2.1060   -3.1711   35.8128 C   0  0  0  0  0  0  0  0  0  0  0  0
    2.5717   -2.3884   36.8779 C   0  0  0  0  0  0  0  0  0  0  0  0
    2.0312   -2.5533   38.1587 C   0  0  0  0  0  0  0  0  0  0  0  0
    1.0483   -3.5117   38.3774 C   0  0  0  0  0  0  0  0  0  0  0  0
    0.5108   -3.6484   39.5967 F   0  0  0  0  0  0  0  0  0  0  0  0
    0.5998   -4.3134   37.3416 C   0  0  0  0  0  0  0  0  0  0  0  0
    1.1141   -4.1245   36.0565 C   0  0  0  0  0  0  0  0  0  0  0  0
    0.5983   -4.9031   35.0386 N   0  0  0  0  0  0  0  0  0  0  0  0
    0.2961   -6.4021   34.9891 C   0  0  0  0  0  0  0  0  0  0  0  0
    0.3600   -7.2118   35.8208 O   0  0  0  0  0  0  0  0  0  0  0  0
   -0.2533   -6.8155   33.6719 C   0  0  0  0  0  0  0  0  0  0  0  0
    0.3048   -6.3765   32.4671 C   0  0  0  0  0  0  0  0  0  0  0  0
   -0.2369   -6.8407   31.2784 C   0  0  0  0  0  0  0  0  0  0  0  0
   -1.2714   -7.7002   31.2149 N   0  0  0  0  0  0  0  0  0  0  0  0
   -1.7606   -8.1099   32.4036 C   0  0  0  0  0  0  0  0  0  0  0  0
   -3.0167   -9.2360   32.2352 Cl  0  0  0  0  0  0  0  0  0  0  0  0
   -1.3352   -7.6908   33.6457 C   0  0  0  0  0  0  0  0  0  0  0  0
   -2.3044   -8.2338   35.1802 Br  0  0  0  0  0  0  0  0  0  0  0  0
  1  2  1  0
  2  3  2  0
  2  4  1  0
  4  5  2  0
  5  6  1  0
  6  7  2  0
  7  8  1  0
  7  9  1  0
  9 10  2  0
 10 11  1  0
 11 12  1  0
 12 13  2  0
 12 14  1  0
 14 15  2  0
 15 16  1  0
 16 17  2  0
 17 18  1  0
 18 19  1  0
 18 20  2  0
 20 21  1  0
 10  4  1  0
 20 14  1  0
M  END
>  <ref_mols>  (294) 
7gov-a

>  <gnina_score>  (294) 
5.159

>  <smina_score_min>  (294) 
-4.75

>  <ref_pdb>  (294) 
7gov-a

>  <inspiration_score>  (294) 
None

>  <inchikey>  (294) 
RQIGWNYJUPLHDC-UHFFFAOYSA-N

>  <tags>  (294) 
BulkDock Fragalysis export,openbind_d68ev3c_c2_elabs_scored,openbind_d68ev3c_c2_elabs_scored_4.5plus,openbind_d68ev3c_c2_elabs,openbind_d68ev3c_c2_elabs_scored_5plus,syndirella_product,openbind_d68ev3c_c2_elabs_scored_top80percent,syndirella_placed

>  <smiles>  (294) 
CC(=O)c1ccc(F)cc1NC(=O)c1ccnc(Cl)c1Br

>  <subsites>  (294) 
None

>  <rmsd(smina/fragmenstein)>  (294) 
1.317

>  <alias>  (294) 
None

>  <energy_score>  (294) 
-17.969417

>  <HIPPO Pose ID>  (294) 
65237

>  <distance_score>  (294) 
0.670301

>  <HIPPO Compound ID>  (294) 
102288

>  <gnina_score_min>  (294) 
5.116

>  <name>  (294) 
P65237

>  <exports>  (294) 
['/opt/xchem-fragalysis-2/maxwin/BulkDock/OUTPUTS/openbind_d68ev3c_c2_elabs_1LOTQJ3.sdf', '/opt/xchem-fragalysis-2/maxwin/BulkDock/OUTPUTS/openbind_d68ev3c_c2_elabs_1LSYEHW.sdf', '/opt/xchem-fragalysis-2/maxwin/BulkDock/OUTPUTS/openbind_d68ev3c_c2_elabs_1LSYI5W.sdf']

$$$$
P65238
     RDKit          3D

 21 22  0  0  0  0  0  0  0  0999 V2000
    2.7435   -4.5444   33.7946 O   0  0  0  0  0  0  0  0  0  0  0  0
    3.0556   -3.9037   34.7919 C   0  0  0  0  0  0  0  0  0  0  0  0
    2.1878   -3.8200   35.9818 C   0  0  0  0  0  0  0  0  0  0  0  0
    2.6073   -2.9869   37.0217 C   0  0  0  0  0  0  0  0  0  0  0  0
    3.7323   -2.2640   36.9059 F   0  0  0  0  0  0  0  0  0  0  0  0
    1.8734   -2.8813   38.1962 C   0  0  0  0  0  0  0  0  0  0  0  0
    0.7065   -3.6182   38.3237 C   0  0  0  0  0  0  0  0  0  0  0  0
   -0.0033   -3.5320   39.4560 F   0  0  0  0  0  0  0  0  0  0  0  0
    0.2548   -4.4388   37.2939 C   0  0  0  0  0  0  0  0  0  0  0  0
    0.9934   -4.5473   36.1106 C   0  0  0  0  0  0  0  0  0  0  0  0
    0.5178   -5.3365   35.0621 N   0  0  0  0  0  0  0  0  0  0  0  0
   -0.7171   -6.2595   34.9816 C   0  0  0  0  0  0  0  0  0  0  0  0
   -1.5746   -6.4465   35.7532 O   0  0  0  0  0  0  0  0  0  0  0  0
   -0.8656   -6.9629   33.6686 C   0  0  0  0  0  0  0  0  0  0  0  0
   -1.4780   -8.2243   33.7679 C   0  0  0  0  0  0  0  0  0  0  0  0
   -1.8093   -8.8987   32.6153 C   0  0  0  0  0  0  0  0  0  0  0  0
   -1.5292   -8.4432   31.3849 N   0  0  0  0  0  0  0  0  0  0  0  0
   -0.8868   -7.2512   31.3081 C   0  0  0  0  0  0  0  0  0  0  0  0
   -0.5756   -6.8313   29.6660 Cl  0  0  0  0  0  0  0  0  0  0  0  0
   -0.5905   -6.4363   32.3992 C   0  0  0  0  0  0  0  0  0  0  0  0
   -0.0682   -4.6340   32.1011 Br  0  0  0  0  0  0  0  0  0  0  0  0
  1  2  2  0
  2  3  1  0
  3  4  2  0
  4  5  1  0
  4  6  1  0
  6  7  2  0
  7  8  1  0
  7  9  1  0
  9 10  2  0
 10 11  1  0
 11 12  1  0
 12 13  2  0
 12 14  1  0
 14 15  2  0
 15 16  1  0
 16 17  2  0
 17 18  1  0
 18 19  1  0
 18 20  2  0
 20 21  1  0
 10  3  1  0
 20 14  1  0
M  END
>  <ref_mols>  (295) 
7gov-a

>  <gnina_score>  (295) 
5.158

>  <smina_score_min>  (295) 
-6.333

>  <ref_pdb>  (295) 
7gov-a

>  <inspiration_score>  (295) 
None

>  <inchikey>  (295) 
CKBBJUMMPPWMOW-UHFFFAOYSA-N

>  <tags>  (295) 
BulkDock Fragalysis export,openbind_d68ev3c_c2_elabs_scored,openbind_d68ev3c_c2_elabs_scored_4.5plus,openbind_d68ev3c_c2_elabs,openbind_d68ev3c_c2_elabs_scored_5plus,syndirella_product,openbind_d68ev3c_c2_elabs_scored_top80percent,syndirella_placed

>  <smiles>  (295) 
O=Cc1c(F)cc(F)cc1NC(=O)c1ccnc(Cl)c1Br

>  <subsites>  (295) 
None

>  <rmsd(smina/fragmenstein)>  (295) 
1.184

>  <alias>  (295) 
None

>  <energy_score>  (295) 
-22.364963

>  <HIPPO Pose ID>  (295) 
65238

>  <distance_score>  (295) 
0.77281

>  <HIPPO Compound ID>  (295) 
102290

>  <gnina_score_min>  (295) 
5.146

>  <name>  (295) 
P65238

>  <exports>  (295) 
['/opt/xchem-fragalysis-2/maxwin/BulkDock/OUTPUTS/openbind_d68ev3c_c2_elabs_1LOTQJ3.sdf', '/opt/xchem-fragalysis-2/maxwin/BulkDock/OUTPUTS/openbind_d68ev3c_c2_elabs_1LSYEHW.sdf', '/opt/xchem-fragalysis-2/maxwin/BulkDock/OUTPUTS/openbind_d68ev3c_c2_elabs_1LSYI5W.sdf']

$$$$
P65239
     RDKit          3D

 21 22  0  0  0  0  0  0  0  0999 V2000
    2.2042   -1.8804   39.2200 C   0  0  0  0  0  0  0  0  0  0  0  0
    1.8266   -2.8077   38.1002 C   0  0  0  0  0  0  0  0  0  0  0  0
    0.6746   -3.5818   38.2257 C   0  0  0  0  0  0  0  0  0  0  0  0
   -0.0712   -3.4987   39.3380 F   0  0  0  0  0  0  0  0  0  0  0  0
    0.2567   -4.4383   37.2176 C   0  0  0  0  0  0  0  0  0  0  0  0
    1.0167   -4.5826   36.0564 C   0  0  0  0  0  0  0  0  0  0  0  0
    0.5509   -5.4264   35.0424 N   0  0  0  0  0  0  0  0  0  0  0  0
   -0.7295   -6.2853   34.9617 C   0  0  0  0  0  0  0  0  0  0  0  0
   -1.5585   -6.4842   35.7590 O   0  0  0  0  0  0  0  0  0  0  0  0
   -0.8994   -6.9550   33.6324 C   0  0  0  0  0  0  0  0  0  0  0  0
   -1.6072   -8.1617   33.6522 C   0  0  0  0  0  0  0  0  0  0  0  0
   -2.0287   -8.7265   34.7896 F   0  0  0  0  0  0  0  0  0  0  0  0
   -1.9096   -8.7980   32.4664 C   0  0  0  0  0  0  0  0  0  0  0  0
   -1.5387   -8.3403   31.2538 N   0  0  0  0  0  0  0  0  0  0  0  0
   -0.8209   -7.1928   31.2468 C   0  0  0  0  0  0  0  0  0  0  0  0
   -0.5085   -6.4507   32.3850 C   0  0  0  0  0  0  0  0  0  0  0  0
    0.3083   -4.7716   32.0675 Br  0  0  0  0  0  0  0  0  0  0  0  0
    2.2174   -3.8562   35.9016 C   0  0  0  0  0  0  0  0  0  0  0  0
    3.0708   -4.0289   34.6689 C   0  0  0  0  0  0  0  0  0  0  0  0
    2.5842   -2.9355   36.9189 C   0  0  0  0  0  0  0  0  0  0  0  0
    4.1226   -1.8106   36.6952 Br  0  0  0  0  0  0  0  0  0  0  0  0
  1  2  1  0
  2  3  2  0
  3  4  1  0
  3  5  1  0
  5  6  2  0
  6  7  1  0
  7  8  1  0
  8  9  2  0
  8 10  1  0
 10 11  2  0
 11 12  1  0
 11 13  1  0
 13 14  2  0
 14 15  1  0
 15 16  2  0
 16 17  1  0
  6 18  1  0
 18 19  1  0
 18 20  2  0
 20 21  1  0
 20  2  1  0
 16 10  1  0
M  END
>  <ref_mols>  (296) 
7gov-a

>  <gnina_score>  (296) 
5.256

>  <smina_score_min>  (296) 
-5.444

>  <ref_pdb>  (296) 
7gov-a

>  <inspiration_score>  (296) 
None

>  <inchikey>  (296) 
FXRFKZHOAXWAIU-UHFFFAOYSA-N

>  <tags>  (296) 
BulkDock Fragalysis export,openbind_d68ev3c_c2_elabs_scored,openbind_d68ev3c_c2_elabs_scored_4.5plus,openbind_d68ev3c_c2_elabs,openbind_d68ev3c_c2_elabs_scored_5plus,syndirella_product,openbind_d68ev3c_c2_elabs_scored_top80percent,syndirella_placed

>  <smiles>  (296) 
Cc1c(F)cc(NC(=O)c2c(F)cncc2Br)c(C)c1Br

>  <subsites>  (296) 
None

>  <rmsd(smina/fragmenstein)>  (296) 
0.241

>  <alias>  (296) 
None

>  <energy_score>  (296) 
-24.484846

>  <HIPPO Pose ID>  (296) 
65239

>  <distance_score>  (296) 
0.770098

>  <HIPPO Compound ID>  (296) 
102291

>  <gnina_score_min>  (296) 
5.13

>  <name>  (296) 
P65239

>  <exports>  (296) 
['/opt/xchem-fragalysis-2/maxwin/BulkDock/OUTPUTS/openbind_d68ev3c_c2_elabs_1LOTQJ3.sdf', '/opt/xchem-fragalysis-2/maxwin/BulkDock/OUTPUTS/openbind_d68ev3c_c2_elabs_1LSYEHW.sdf', '/opt/xchem-fragalysis-2/maxwin/BulkDock/OUTPUTS/openbind_d68ev3c_c2_elabs_1LSYI5W.sdf']

$$$$
P65240
     RDKit          3D

 21 22  0  0  0  0  0  0  0  0999 V2000
    3.4768   -3.4111   33.1815 N   0  0  0  0  0  0  0  0  0  0  0  0
    2.9786   -3.4617   34.2294 C   0  0  0  0  0  0  0  0  0  0  0  0
    2.3382   -3.4661   35.5129 C   0  0  0  0  0  0  0  0  0  0  0  0
    2.8704   -2.6524   36.5282 C   0  0  0  0  0  0  0  0  0  0  0  0
    2.3074   -2.6500   37.8030 C   0  0  0  0  0  0  0  0  0  0  0  0
    1.2098   -3.4559   38.0611 C   0  0  0  0  0  0  0  0  0  0  0  0
    0.6473   -3.4024   39.2805 F   0  0  0  0  0  0  0  0  0  0  0  0
    0.6726   -4.2741   37.0631 C   0  0  0  0  0  0  0  0  0  0  0  0
   -0.9320   -5.1568   37.5023 Br  0  0  0  0  0  0  0  0  0  0  0  0
    1.2382   -4.2982   35.7741 C   0  0  0  0  0  0  0  0  0  0  0  0
    0.7329   -5.1060   34.7415 N   0  0  0  0  0  0  0  0  0  0  0  0
    0.2666   -6.5783   34.7565 C   0  0  0  0  0  0  0  0  0  0  0  0
    0.3009   -7.3732   35.6094 O   0  0  0  0  0  0  0  0  0  0  0  0
   -0.4073   -6.9938   33.4902 C   0  0  0  0  0  0  0  0  0  0  0  0
    0.0661   -6.5681   32.2537 C   0  0  0  0  0  0  0  0  0  0  0  0
    1.0506   -5.6647   32.1527 F   0  0  0  0  0  0  0  0  0  0  0  0
   -0.5096   -7.0736   31.0980 C   0  0  0  0  0  0  0  0  0  0  0  0
   -1.5370   -7.9567   31.0871 N   0  0  0  0  0  0  0  0  0  0  0  0
   -1.9926   -8.3438   32.2985 C   0  0  0  0  0  0  0  0  0  0  0  0
   -1.4882   -7.8855   33.5059 C   0  0  0  0  0  0  0  0  0  0  0  0
   -2.4486   -8.4258   35.0359 Br  0  0  0  0  0  0  0  0  0  0  0  0
  1  2  3  0
  2  3  1  0
  3  4  2  0
  4  5  1  0
  5  6  2  0
  6  7  1  0
  6  8  1  0
  8  9  1  0
  8 10  2  0
 10 11  1  0
 11 12  1  0
 12 13  2  0
 12 14  1  0
 14 15  2  0
 15 16  1  0
 15 17  1  0
 17 18  2  0
 18 19  1  0
 19 20  2  0
 20 21  1  0
 10  3  1  0
 20 14  1  0
M  END
>  <ref_mols>  (297) 
7gov-a

>  <gnina_score>  (297) 
5.345

>  <smina_score_min>  (297) 
-4.425

>  <ref_pdb>  (297) 
7gov-a

>  <inspiration_score>  (297) 
None

>  <inchikey>  (297) 
DAPMBHACJAIULO-UHFFFAOYSA-N

>  <tags>  (297) 
BulkDock Fragalysis export,openbind_d68ev3c_c2_elabs_scored,openbind_d68ev3c_c2_elabs_scored_4.5plus,openbind_d68ev3c_c2_elabs,openbind_d68ev3c_c2_elabs_scored_5plus,syndirella_product,openbind_d68ev3c_c2_elabs_scored_top80percent,syndirella_placed

>  <smiles>  (297) 
N#Cc1ccc(F)c(Br)c1NC(=O)c1c(F)cncc1Br

>  <subsites>  (297) 
None

>  <rmsd(smina/fragmenstein)>  (297) 
0.428

>  <alias>  (297) 
None

>  <energy_score>  (297) 
-13.392516

>  <HIPPO Pose ID>  (297) 
65240

>  <distance_score>  (297) 
0.583202

>  <HIPPO Compound ID>  (297) 
102293

>  <gnina_score_min>  (297) 
5.18

>  <name>  (297) 
P65240

>  <exports>  (297) 
['/opt/xchem-fragalysis-2/maxwin/BulkDock/OUTPUTS/openbind_d68ev3c_c2_elabs_1LOTQJ3.sdf', '/opt/xchem-fragalysis-2/maxwin/BulkDock/OUTPUTS/openbind_d68ev3c_c2_elabs_1LSYEHW.sdf', '/opt/xchem-fragalysis-2/maxwin/BulkDock/OUTPUTS/openbind_d68ev3c_c2_elabs_1LSYI5W.sdf']

$$$$
P65249
     RDKit          3D

 21 22  0  0  0  0  0  0  0  0999 V2000
    1.3470   -7.0634   35.2393 O   0  0  0  0  0  0  0  0  0  0  0  0
    0.5133   -6.3584   34.8368 C   0  0  0  0  0  0  0  0  0  0  0  0
    0.0752   -4.9667   35.3076 N   0  0  0  0  0  0  0  0  0  0  0  0
    0.6089   -4.1373   36.2746 C   0  0  0  0  0  0  0  0  0  0  0  0
   -0.2095   -3.7997   37.3485 C   0  0  0  0  0  0  0  0  0  0  0  0
    0.3444   -3.1217   38.4239 C   0  0  0  0  0  0  0  0  0  0  0  0
   -0.3987   -2.9107   39.5162 F   0  0  0  0  0  0  0  0  0  0  0  0
    1.6597   -2.6885   38.4041 C   0  0  0  0  0  0  0  0  0  0  0  0
    2.4474   -2.9835   37.2999 C   0  0  0  0  0  0  0  0  0  0  0  0
    3.7128   -2.5352   37.2910 F   0  0  0  0  0  0  0  0  0  0  0  0
    1.9579   -3.7405   36.2287 C   0  0  0  0  0  0  0  0  0  0  0  0
    2.9013   -4.1094   35.1172 C   0  0  0  0  0  0  0  0  0  0  0  0
    2.3845   -3.7142   33.8463 O   0  0  0  0  0  0  0  0  0  0  0  0
   -0.2240   -6.7568   33.6286 C   0  0  0  0  0  0  0  0  0  0  0  0
    0.2521   -6.3415   32.3828 C   0  0  0  0  0  0  0  0  0  0  0  0
   -0.3594   -6.8459   31.2500 C   0  0  0  0  0  0  0  0  0  0  0  0
   -1.3963   -7.7048   31.2903 N   0  0  0  0  0  0  0  0  0  0  0  0
   -1.8084   -8.0778   32.5259 C   0  0  0  0  0  0  0  0  0  0  0  0
   -3.1023   -9.1746   32.4529 Cl  0  0  0  0  0  0  0  0  0  0  0  0
   -1.2890   -7.6296   33.7252 C   0  0  0  0  0  0  0  0  0  0  0  0
   -1.9617   -8.0665   35.2414 Cl  0  0  0  0  0  0  0  0  0  0  0  0
  1  2  2  0
  2  3  1  0
  3  4  1  0
  4  5  2  0
  5  6  1  0
  6  7  1  0
  6  8  2  0
  8  9  1  0
  9 10  1  0
  9 11  2  0
 11 12  1  0
 12 13  1  0
  2 14  1  0
 14 15  2  0
 15 16  1  0
 16 17  2  0
 17 18  1  0
 18 19  1  0
 18 20  2  0
 20 21  1  0
 11  4  1  0
 20 14  1  0
M  END
>  <ref_mols>  (298) 
7gov-a

>  <gnina_score>  (298) 
5.103

>  <smina_score_min>  (298) 
-5.245

>  <ref_pdb>  (298) 
7gov-a

>  <inspiration_score>  (298) 
None

>  <inchikey>  (298) 
LDAWTWVDDJSOAG-UHFFFAOYSA-N

>  <tags>  (298) 
BulkDock Fragalysis export,openbind_d68ev3c_c2_elabs_scored,openbind_d68ev3c_c2_elabs_scored_4.5plus,openbind_d68ev3c_c2_elabs,openbind_d68ev3c_c2_elabs_scored_5plus,syndirella_product,openbind_d68ev3c_c2_elabs_scored_top80percent,syndirella_placed

>  <smiles>  (298) 
O=C(Nc1cc(F)cc(F)c1CO)c1ccnc(Cl)c1Cl

>  <subsites>  (298) 
None

>  <rmsd(smina/fragmenstein)>  (298) 
0.993

>  <alias>  (298) 
None

>  <energy_score>  (298) 
-7.011659

>  <HIPPO Pose ID>  (298) 
65249

>  <distance_score>  (298) 
0.606194

>  <HIPPO Compound ID>  (298) 
102311

>  <gnina_score_min>  (298) 
5.025

>  <name>  (298) 
P65249

>  <exports>  (298) 
['/opt/xchem-fragalysis-2/maxwin/BulkDock/OUTPUTS/openbind_d68ev3c_c2_elabs_1LOTQJ3.sdf', '/opt/xchem-fragalysis-2/maxwin/BulkDock/OUTPUTS/openbind_d68ev3c_c2_elabs_1LSYEHW.sdf', '/opt/xchem-fragalysis-2/maxwin/BulkDock/OUTPUTS/openbind_d68ev3c_c2_elabs_1LSYI5W.sdf']

$$$$
P65250
     RDKit          3D

 21 22  0  0  0  0  0  0  0  0999 V2000
    3.4813   -0.7625   36.0086 C   0  0  0  0  0  0  0  0  0  0  0  0
    3.7300   -1.9923   36.8698 C   0  0  0  0  0  0  0  0  0  0  0  0
    2.5124   -2.8863   36.9562 C   0  0  0  0  0  0  0  0  0  0  0  0
    1.7403   -2.8129   38.1280 C   0  0  0  0  0  0  0  0  0  0  0  0
    0.6091   -3.5995   38.2767 C   0  0  0  0  0  0  0  0  0  0  0  0
   -0.1016   -3.5216   39.4099 F   0  0  0  0  0  0  0  0  0  0  0  0
    0.1995   -4.4568   37.2702 C   0  0  0  0  0  0  0  0  0  0  0  0
    0.9491   -4.5554   36.0965 C   0  0  0  0  0  0  0  0  0  0  0  0
    0.5151   -5.4050   35.0750 N   0  0  0  0  0  0  0  0  0  0  0  0
   -0.6936   -6.3614   35.0125 C   0  0  0  0  0  0  0  0  0  0  0  0
   -1.4746   -6.6493   35.8323 O   0  0  0  0  0  0  0  0  0  0  0  0
   -0.8677   -7.0272   33.6774 C   0  0  0  0  0  0  0  0  0  0  0  0
   -1.5708   -8.2453   33.7320 C   0  0  0  0  0  0  0  0  0  0  0  0
   -1.9170   -8.8752   32.5585 C   0  0  0  0  0  0  0  0  0  0  0  0
   -1.5884   -8.4074   31.3449 N   0  0  0  0  0  0  0  0  0  0  0  0
   -0.8626   -7.2626   31.3099 C   0  0  0  0  0  0  0  0  0  0  0  0
   -0.5258   -6.7941   29.6860 Cl  0  0  0  0  0  0  0  0  0  0  0  0
   -0.5013   -6.5110   32.4267 C   0  0  0  0  0  0  0  0  0  0  0  0
    0.2561   -4.9746   32.2051 Cl  0  0  0  0  0  0  0  0  0  0  0  0
    2.1254   -3.7830   35.9273 C   0  0  0  0  0  0  0  0  0  0  0  0
    2.9357   -3.9175   34.6608 C   0  0  0  0  0  0  0  0  0  0  0  0
  1  2  1  0
  2  3  1  0
  3  4  2  0
  4  5  1  0
  5  6  1  0
  5  7  2  0
  7  8  1  0
  8  9  1  0
  9 10  1  0
 10 11  2  0
 10 12  1  0
 12 13  2  0
 13 14  1  0
 14 15  2  0
 15 16  1  0
 16 17  1  0
 16 18  2  0
 18 19  1  0
  8 20  2  0
 20 21  1  0
 20  3  1  0
 18 12  1  0
M  END
>  <ref_mols>  (299) 
7gov-a

>  <gnina_score>  (299) 
5.197

>  <smina_score_min>  (299) 
-5.849

>  <ref_pdb>  (299) 
7gov-a

>  <inspiration_score>  (299) 
None

>  <inchikey>  (299) 
WLFDUHNLMCLJPL-UHFFFAOYSA-N

>  <tags>  (299) 
BulkDock Fragalysis export,openbind_d68ev3c_c2_elabs_scored,openbind_d68ev3c_c2_elabs_scored_4.5plus,openbind_d68ev3c_c2_elabs,openbind_d68ev3c_c2_elabs_scored_5plus,syndirella_product,openbind_d68ev3c_c2_elabs_scored_top80percent,syndirella_placed

>  <smiles>  (299) 
CCc1cc(F)cc(NC(=O)c2ccnc(Cl)c2Cl)c1C

>  <subsites>  (299) 
None

>  <rmsd(smina/fragmenstein)>  (299) 
1.278

>  <alias>  (299) 
None

>  <energy_score>  (299) 
-26.16447

>  <HIPPO Pose ID>  (299) 
65250

>  <distance_score>  (299) 
0.73377

>  <HIPPO Compound ID>  (299) 
102312

>  <gnina_score_min>  (299) 
5.184

>  <name>  (299) 
P65250

>  <exports>  (299) 
['/opt/xchem-fragalysis-2/maxwin/BulkDock/OUTPUTS/openbind_d68ev3c_c2_elabs_1LOTQJ3.sdf', '/opt/xchem-fragalysis-2/maxwin/BulkDock/OUTPUTS/openbind_d68ev3c_c2_elabs_1LSYEHW.sdf', '/opt/xchem-fragalysis-2/maxwin/BulkDock/OUTPUTS/openbind_d68ev3c_c2_elabs_1LSYI5W.sdf']

$$$$
P65251
     RDKit          3D

 21 22  0  0  0  0  0  0  0  0999 V2000
    3.2602   -0.8467   39.1558 C   0  0  0  0  0  0  0  0  0  0  0  0
    2.2209   -1.8074   39.2718 O   0  0  0  0  0  0  0  0  0  0  0  0
    1.9229   -2.5433   38.1554 C   0  0  0  0  0  0  0  0  0  0  0  0
    2.4825   -2.3563   36.8848 C   0  0  0  0  0  0  0  0  0  0  0  0
    2.0868   -3.1515   35.7942 C   0  0  0  0  0  0  0  0  0  0  0  0
    2.7727   -3.0074   34.4658 C   0  0  0  0  0  0  0  0  0  0  0  0
    1.1387   -4.1540   36.0084 C   0  0  0  0  0  0  0  0  0  0  0  0
    0.7144   -4.9536   34.9629 N   0  0  0  0  0  0  0  0  0  0  0  0
    0.3843   -6.4503   34.9240 C   0  0  0  0  0  0  0  0  0  0  0  0
    0.4894   -7.2673   35.7451 O   0  0  0  0  0  0  0  0  0  0  0  0
   -0.2557   -6.8448   33.6460 C   0  0  0  0  0  0  0  0  0  0  0  0
    0.2792   -6.4579   32.4122 C   0  0  0  0  0  0  0  0  0  0  0  0
   -0.3131   -6.9383   31.2557 C   0  0  0  0  0  0  0  0  0  0  0  0
   -1.3765   -7.7627   31.2530 N   0  0  0  0  0  0  0  0  0  0  0  0
   -1.8459   -8.1196   32.4706 C   0  0  0  0  0  0  0  0  0  0  0  0
   -3.1583   -9.1898   32.3640 Cl  0  0  0  0  0  0  0  0  0  0  0  0
   -1.3669   -7.6805   33.6881 C   0  0  0  0  0  0  0  0  0  0  0  0
   -2.1959   -8.0919   35.1458 Cl  0  0  0  0  0  0  0  0  0  0  0  0
    0.5938   -4.3687   37.2737 C   0  0  0  0  0  0  0  0  0  0  0  0
    0.9724   -3.5513   38.3289 C   0  0  0  0  0  0  0  0  0  0  0  0
    0.3919   -3.7382   39.5252 F   0  0  0  0  0  0  0  0  0  0  0  0
  1  2  1  0
  2  3  1  0
  3  4  2  0
  4  5  1  0
  5  6  1  0
  5  7  2  0
  7  8  1  0
  8  9  1  0
  9 10  2  0
  9 11  1  0
 11 12  2  0
 12 13  1  0
 13 14  2  0
 14 15  1  0
 15 16  1  0
 15 17  2  0
 17 18  1  0
  7 19  1  0
 19 20  2  0
 20 21  1  0
 20  3  1  0
 17 11  1  0
M  END
>  <ref_mols>  (300) 
7gov-a

>  <gnina_score>  (300) 
5.088

>  <smina_score_min>  (300) 
-5.237

>  <ref_pdb>  (300) 
7gov-a

>  <inspiration_score>  (300) 
None

>  <inchikey>  (300) 
PEVLGSAXNKNVPR-UHFFFAOYSA-N

>  <tags>  (300) 
BulkDock Fragalysis export,openbind_d68ev3c_c2_elabs_scored,openbind_d68ev3c_c2_elabs_scored_4.5plus,openbind_d68ev3c_c2_elabs,openbind_d68ev3c_c2_elabs_scored_5plus,syndirella_product,openbind_d68ev3c_c2_elabs_scored_top80percent,syndirella_placed

>  <smiles>  (300) 
COc1cc(C)c(NC(=O)c2ccnc(Cl)c2Cl)cc1F

>  <subsites>  (300) 
None

>  <rmsd(smina/fragmenstein)>  (300) 
1.481

>  <alias>  (300) 
None

>  <energy_score>  (300) 
-14.629641

>  <HIPPO Pose ID>  (300) 
65251

>  <distance_score>  (300) 
0.634241

>  <HIPPO Compound ID>  (300) 
102314

>  <gnina_score_min>  (300) 
5.044

>  <name>  (300) 
P65251

>  <exports>  (300) 
['/opt/xchem-fragalysis-2/maxwin/BulkDock/OUTPUTS/openbind_d68ev3c_c2_elabs_1LOTQJ3.sdf', '/opt/xchem-fragalysis-2/maxwin/BulkDock/OUTPUTS/openbind_d68ev3c_c2_elabs_1LSYEHW.sdf', '/opt/xchem-fragalysis-2/maxwin/BulkDock/OUTPUTS/openbind_d68ev3c_c2_elabs_1LSYI5W.sdf']

$$$$
P65252
     RDKit          3D

 21 22  0  0  0  0  0  0  0  0999 V2000
    3.5464   -3.9386   33.7111 N   0  0  0  0  0  0  0  0  0  0  0  0
    2.9393   -3.8833   34.6990 C   0  0  0  0  0  0  0  0  0  0  0  0
    2.1657   -3.8020   35.9059 C   0  0  0  0  0  0  0  0  0  0  0  0
    2.6001   -2.9087   36.9019 C   0  0  0  0  0  0  0  0  0  0  0  0
    1.9052   -2.7991   38.1039 C   0  0  0  0  0  0  0  0  0  0  0  0
    0.7762   -3.5787   38.3048 C   0  0  0  0  0  0  0  0  0  0  0  0
    0.1156   -3.4819   39.4674 F   0  0  0  0  0  0  0  0  0  0  0  0
    0.3243   -4.4546   37.3204 C   0  0  0  0  0  0  0  0  0  0  0  0
   -0.7757   -5.1649   37.5954 F   0  0  0  0  0  0  0  0  0  0  0  0
    1.0082   -4.5854   36.1019 C   0  0  0  0  0  0  0  0  0  0  0  0
    0.5677   -5.4363   35.0682 N   0  0  0  0  0  0  0  0  0  0  0  0
   -0.6432   -6.3928   35.0033 C   0  0  0  0  0  0  0  0  0  0  0  0
   -1.4222   -6.6845   35.8232 O   0  0  0  0  0  0  0  0  0  0  0  0
   -0.8326   -7.0432   33.6641 C   0  0  0  0  0  0  0  0  0  0  0  0
   -1.5440   -8.2571   33.7121 C   0  0  0  0  0  0  0  0  0  0  0  0
   -1.9036   -8.8724   32.5354 C   0  0  0  0  0  0  0  0  0  0  0  0
   -1.5792   -8.3944   31.3246 N   0  0  0  0  0  0  0  0  0  0  0  0
   -0.8469   -7.2527   31.2951 C   0  0  0  0  0  0  0  0  0  0  0  0
   -0.5168   -6.7708   29.6742 Cl  0  0  0  0  0  0  0  0  0  0  0  0
   -0.4764   -6.5132   32.4167 C   0  0  0  0  0  0  0  0  0  0  0  0
    0.2706   -4.9694   32.2112 Cl  0  0  0  0  0  0  0  0  0  0  0  0
  1  2  3  0
  2  3  1  0
  3  4  2  0
  4  5  1  0
  5  6  2  0
  6  7  1  0
  6  8  1  0
  8  9  1  0
  8 10  2  0
 10 11  1  0
 11 12  1  0
 12 13  2  0
 12 14  1  0
 14 15  2  0
 15 16  1  0
 16 17  2  0
 17 18  1  0
 18 19  1  0
 18 20  2  0
 20 21  1  0
 10  3  1  0
 20 14  1  0
M  END
>  <ref_mols>  (301) 
7gov-a

>  <gnina_score>  (301) 
5.241

>  <smina_score_min>  (301) 
-5.635

>  <ref_pdb>  (301) 
7gov-a

>  <inspiration_score>  (301) 
None

>  <inchikey>  (301) 
KOYITMNBIAMLGI-UHFFFAOYSA-N

>  <tags>  (301) 
BulkDock Fragalysis export,openbind_d68ev3c_c2_elabs_scored,openbind_d68ev3c_c2_elabs_scored_4.5plus,openbind_d68ev3c_c2_elabs,openbind_d68ev3c_c2_elabs_scored_5plus,syndirella_product,openbind_d68ev3c_c2_elabs_scored_top80percent,syndirella_placed

>  <smiles>  (301) 
N#Cc1ccc(F)c(F)c1NC(=O)c1ccnc(Cl)c1Cl

>  <subsites>  (301) 
None

>  <rmsd(smina/fragmenstein)>  (301) 
0.864

>  <alias>  (301) 
None

>  <energy_score>  (301) 
-7.395835

>  <HIPPO Pose ID>  (301) 
65252

>  <distance_score>  (301) 
0.722378

>  <HIPPO Compound ID>  (301) 
102316

>  <gnina_score_min>  (301) 
5.11

>  <name>  (301) 
P65252

>  <exports>  (301) 
['/opt/xchem-fragalysis-2/maxwin/BulkDock/OUTPUTS/openbind_d68ev3c_c2_elabs_1LOTQJ3.sdf', '/opt/xchem-fragalysis-2/maxwin/BulkDock/OUTPUTS/openbind_d68ev3c_c2_elabs_1LSYEHW.sdf', '/opt/xchem-fragalysis-2/maxwin/BulkDock/OUTPUTS/openbind_d68ev3c_c2_elabs_1LSYI5W.sdf']

$$$$
P65254
     RDKit          3D

 21 22  0  0  0  0  0  0  0  0999 V2000
    3.2648   -3.8716   33.5557 C   0  0  0  0  0  0  0  0  0  0  0  0
    2.7042   -3.8421   34.6173 C   0  0  0  0  0  0  0  0  0  0  0  0
    2.0322   -3.8107   35.8877 C   0  0  0  0  0  0  0  0  0  0  0  0
    2.5332   -2.9459   36.8700 C   0  0  0  0  0  0  0  0  0  0  0  0
    1.9243   -2.8860   38.1213 C   0  0  0  0  0  0  0  0  0  0  0  0
    2.5618   -1.8282   39.3218 Cl  0  0  0  0  0  0  0  0  0  0  0  0
    0.8138   -3.6761   38.3896 C   0  0  0  0  0  0  0  0  0  0  0  0
    0.2136   -3.6223   39.5893 F   0  0  0  0  0  0  0  0  0  0  0  0
    0.3087   -4.5344   37.4172 C   0  0  0  0  0  0  0  0  0  0  0  0
   -0.7505   -5.2815   37.7505 F   0  0  0  0  0  0  0  0  0  0  0  0
    0.9060   -4.6201   36.1530 C   0  0  0  0  0  0  0  0  0  0  0  0
    0.4251   -5.4456   35.1236 N   0  0  0  0  0  0  0  0  0  0  0  0
   -0.7666   -6.4306   35.0998 C   0  0  0  0  0  0  0  0  0  0  0  0
   -1.5808   -6.6528   35.9063 O   0  0  0  0  0  0  0  0  0  0  0  0
   -0.9327   -7.1218   33.7862 C   0  0  0  0  0  0  0  0  0  0  0  0
   -1.6475   -8.3206   33.7826 C   0  0  0  0  0  0  0  0  0  0  0  0
   -1.9515   -8.8893   32.5655 C   0  0  0  0  0  0  0  0  0  0  0  0
   -1.5760   -8.3726   31.3781 N   0  0  0  0  0  0  0  0  0  0  0  0
   -0.8573   -7.2303   31.4070 C   0  0  0  0  0  0  0  0  0  0  0  0
   -0.3598   -6.5783   29.8413 S   0  0  0  0  0  0  0  0  0  0  0  0
   -0.5357   -6.5593   32.5731 C   0  0  0  0  0  0  0  0  0  0  0  0
  1  2  3  0
  2  3  1  0
  3  4  2  0
  4  5  1  0
  5  6  1  0
  5  7  2  0
  7  8  1  0
  7  9  1  0
  9 10  1  0
  9 11  2  0
 11 12  1  0
 12 13  1  0
 13 14  2  0
 13 15  1  0
 15 16  2  0
 16 17  1  0
 17 18  2  0
 18 19  1  0
 19 20  1  0
 19 21  2  0
 11  3  1  0
 21 15  1  0
M  END
>  <ref_mols>  (302) 
7gov-a

>  <gnina_score>  (302) 
5.219

>  <smina_score_min>  (302) 
-5.366

>  <ref_pdb>  (302) 
7gov-a

>  <inspiration_score>  (302) 
None

>  <inchikey>  (302) 
HTDSJDFBBQRQSI-UHFFFAOYSA-N

>  <tags>  (302) 
BulkDock Fragalysis export,openbind_d68ev3c_c2_elabs_scored,openbind_d68ev3c_c2_elabs_scored_4.5plus,openbind_d68ev3c_c2_elabs,openbind_d68ev3c_c2_elabs_scored_5plus,syndirella_product,openbind_d68ev3c_c2_elabs_scored_top80percent,syndirella_placed

>  <smiles>  (302) 
C#Cc1cc(Cl)c(F)c(F)c1NC(=O)c1ccnc(S)c1

>  <subsites>  (302) 
None

>  <rmsd(smina/fragmenstein)>  (302) 
0.485

>  <alias>  (302) 
None

>  <energy_score>  (302) 
-13.450152

>  <HIPPO Pose ID>  (302) 
65254

>  <distance_score>  (302) 
0.775009

>  <HIPPO Compound ID>  (302) 
102322

>  <gnina_score_min>  (302) 
5.171

>  <name>  (302) 
P65254

>  <exports>  (302) 
['/opt/xchem-fragalysis-2/maxwin/BulkDock/OUTPUTS/openbind_d68ev3c_c2_elabs_1LOTQJ3.sdf', '/opt/xchem-fragalysis-2/maxwin/BulkDock/OUTPUTS/openbind_d68ev3c_c2_elabs_1LSYEHW.sdf', '/opt/xchem-fragalysis-2/maxwin/BulkDock/OUTPUTS/openbind_d68ev3c_c2_elabs_1LSYI5W.sdf']

$$$$
P65258
     RDKit          3D

 21 22  0  0  0  0  0  0  0  0999 V2000
    3.9370   -3.1338   34.3617 O   0  0  0  0  0  0  0  0  0  0  0  0
    3.1477   -4.0081   34.7027 C   0  0  0  0  0  0  0  0  0  0  0  0
    2.2660   -3.8551   35.8794 C   0  0  0  0  0  0  0  0  0  0  0  0
    2.6725   -2.9518   36.8746 C   0  0  0  0  0  0  0  0  0  0  0  0
    1.9236   -2.8215   38.0416 C   0  0  0  0  0  0  0  0  0  0  0  0
    2.5117   -1.6468   39.4009 Br  0  0  0  0  0  0  0  0  0  0  0  0
    0.7590   -3.5637   38.2009 C   0  0  0  0  0  0  0  0  0  0  0  0
    0.0274   -3.4617   39.3205 F   0  0  0  0  0  0  0  0  0  0  0  0
    0.3260   -4.4290   37.1988 C   0  0  0  0  0  0  0  0  0  0  0  0
    1.0783   -4.5937   36.0287 C   0  0  0  0  0  0  0  0  0  0  0  0
    0.5969   -5.4419   35.0232 N   0  0  0  0  0  0  0  0  0  0  0  0
   -0.6915   -6.2896   34.9583 C   0  0  0  0  0  0  0  0  0  0  0  0
   -1.5160   -6.4748   35.7628 O   0  0  0  0  0  0  0  0  0  0  0  0
   -0.8802   -6.9595   33.6304 C   0  0  0  0  0  0  0  0  0  0  0  0
   -1.6081   -8.1541   33.6559 C   0  0  0  0  0  0  0  0  0  0  0  0
   -2.0348   -8.7076   34.7970 F   0  0  0  0  0  0  0  0  0  0  0  0
   -1.9233   -8.7894   32.4730 C   0  0  0  0  0  0  0  0  0  0  0  0
   -1.5480   -8.3405   31.2585 N   0  0  0  0  0  0  0  0  0  0  0  0
   -0.8131   -7.2041   31.2447 C   0  0  0  0  0  0  0  0  0  0  0  0
   -0.4845   -6.4650   32.3798 C   0  0  0  0  0  0  0  0  0  0  0  0
    0.3692   -4.8045   32.0571 Br  0  0  0  0  0  0  0  0  0  0  0  0
  1  2  2  0
  2  3  1  0
  3  4  2  0
  4  5  1  0
  5  6  1  0
  5  7  2  0
  7  8  1  0
  7  9  1  0
  9 10  2  0
 10 11  1  0
 11 12  1  0
 12 13  2  0
 12 14  1  0
 14 15  2  0
 15 16  1  0
 15 17  1  0
 17 18  2  0
 18 19  1  0
 19 20  2  0
 20 21  1  0
 10  3  1  0
 20 14  1  0
M  END
>  <ref_mols>  (303) 
7gov-a

>  <gnina_score>  (303) 
5.155

>  <smina_score_min>  (303) 
-5.335

>  <ref_pdb>  (303) 
7gov-a

>  <inspiration_score>  (303) 
None

>  <inchikey>  (303) 
BSVAXFIBUDQFQQ-UHFFFAOYSA-N

>  <tags>  (303) 
BulkDock Fragalysis export,openbind_d68ev3c_c2_elabs_scored,openbind_d68ev3c_c2_elabs_scored_4.5plus,openbind_d68ev3c_c2_elabs,openbind_d68ev3c_c2_elabs_scored_5plus,syndirella_product,openbind_d68ev3c_c2_elabs_scored_top80percent,syndirella_placed

>  <smiles>  (303) 
O=Cc1cc(Br)c(F)cc1NC(=O)c1c(F)cncc1Br

>  <subsites>  (303) 
None

>  <rmsd(smina/fragmenstein)>  (303) 
0.579

>  <alias>  (303) 
None

>  <energy_score>  (303) 
-3.15625

>  <HIPPO Pose ID>  (303) 
65258

>  <distance_score>  (303) 
0.7653

>  <HIPPO Compound ID>  (303) 
102328

>  <gnina_score_min>  (303) 
5.003

>  <name>  (303) 
P65258

>  <exports>  (303) 
['/opt/xchem-fragalysis-2/maxwin/BulkDock/OUTPUTS/openbind_d68ev3c_c2_elabs_1LOTQJ3.sdf', '/opt/xchem-fragalysis-2/maxwin/BulkDock/OUTPUTS/openbind_d68ev3c_c2_elabs_1LSYEHW.sdf', '/opt/xchem-fragalysis-2/maxwin/BulkDock/OUTPUTS/openbind_d68ev3c_c2_elabs_1LSYI5W.sdf']

$$$$
P65260
     RDKit          3D

 21 22  0  0  0  0  0  0  0  0999 V2000
    2.7018   -4.5118   33.6465 O   0  0  0  0  0  0  0  0  0  0  0  0
    3.0744   -3.9278   34.6560 C   0  0  0  0  0  0  0  0  0  0  0  0
    2.2381   -3.8010   35.8697 C   0  0  0  0  0  0  0  0  0  0  0  0
    2.7146   -2.9620   36.8878 C   0  0  0  0  0  0  0  0  0  0  0  0
    1.9976   -2.8400   38.0775 C   0  0  0  0  0  0  0  0  0  0  0  0
    2.6113   -1.8332   39.3327 Cl  0  0  0  0  0  0  0  0  0  0  0  0
    0.8024   -3.5321   38.2414 C   0  0  0  0  0  0  0  0  0  0  0  0
    0.1029   -3.4321   39.3816 F   0  0  0  0  0  0  0  0  0  0  0  0
    0.3119   -4.3463   37.2255 C   0  0  0  0  0  0  0  0  0  0  0  0
    1.0309   -4.4983   36.0334 C   0  0  0  0  0  0  0  0  0  0  0  0
    0.5403   -5.3505   35.0442 N   0  0  0  0  0  0  0  0  0  0  0  0
   -0.7241   -6.2393   35.0216 C   0  0  0  0  0  0  0  0  0  0  0  0
   -1.5102   -6.4558   35.8553 O   0  0  0  0  0  0  0  0  0  0  0  0
   -0.9435   -6.9550   33.7114 C   0  0  0  0  0  0  0  0  0  0  0  0
   -0.3605   -6.5033   32.5258 C   0  0  0  0  0  0  0  0  0  0  0  0
    0.4099   -5.4104   32.4891 F   0  0  0  0  0  0  0  0  0  0  0  0
   -0.6216   -7.1566   31.3297 C   0  0  0  0  0  0  0  0  0  0  0  0
   -1.4527   -8.2160   31.2159 N   0  0  0  0  0  0  0  0  0  0  0  0
   -2.0083   -8.6472   32.3676 C   0  0  0  0  0  0  0  0  0  0  0  0
   -1.8089   -8.0594   33.6117 C   0  0  0  0  0  0  0  0  0  0  0  0
   -2.8746   -8.7974   34.9933 Br  0  0  0  0  0  0  0  0  0  0  0  0
  1  2  2  0
  2  3  1  0
  3  4  2  0
  4  5  1  0
  5  6  1  0
  5  7  2  0
  7  8  1  0
  7  9  1  0
  9 10  2  0
 10 11  1  0
 11 12  1  0
 12 13  2  0
 12 14  1  0
 14 15  2  0
 15 16  1  0
 15 17  1  0
 17 18  2  0
 18 19  1  0
 19 20  2  0
 20 21  1  0
 10  3  1  0
 20 14  1  0
M  END
>  <ref_mols>  (304) 
7gov-a

>  <gnina_score>  (304) 
5.294

>  <smina_score_min>  (304) 
-5.39

>  <ref_pdb>  (304) 
7gov-a

>  <inspiration_score>  (304) 
None

>  <inchikey>  (304) 
CSFYUNGTPDFSAX-UHFFFAOYSA-N

>  <tags>  (304) 
BulkDock Fragalysis export,openbind_d68ev3c_c2_elabs_scored,openbind_d68ev3c_c2_elabs_scored_4.5plus,openbind_d68ev3c_c2_elabs,openbind_d68ev3c_c2_elabs_scored_5plus,syndirella_product,openbind_d68ev3c_c2_elabs_scored_top80percent,syndirella_placed

>  <smiles>  (304) 
O=Cc1cc(Cl)c(F)cc1NC(=O)c1c(F)cncc1Br

>  <subsites>  (304) 
None

>  <rmsd(smina/fragmenstein)>  (304) 
1.911

>  <alias>  (304) 
None

>  <energy_score>  (304) 
-26.326368

>  <HIPPO Pose ID>  (304) 
65260

>  <distance_score>  (304) 
0.786278

>  <HIPPO Compound ID>  (304) 
102330

>  <gnina_score_min>  (304) 
5.214

>  <name>  (304) 
P65260

>  <exports>  (304) 
['/opt/xchem-fragalysis-2/maxwin/BulkDock/OUTPUTS/openbind_d68ev3c_c2_elabs_1LOTQJ3.sdf', '/opt/xchem-fragalysis-2/maxwin/BulkDock/OUTPUTS/openbind_d68ev3c_c2_elabs_1LSYEHW.sdf', '/opt/xchem-fragalysis-2/maxwin/BulkDock/OUTPUTS/openbind_d68ev3c_c2_elabs_1LSYI5W.sdf']

$$$$
P65261
     RDKit          3D

 21 22  0  0  0  0  0  0  0  0999 V2000
   -1.5509   -6.4578   35.8598 O   0  0  0  0  0  0  0  0  0  0  0  0
   -0.7358   -6.2805   35.0448 C   0  0  0  0  0  0  0  0  0  0  0  0
    0.5410   -5.4083   35.0781 N   0  0  0  0  0  0  0  0  0  0  0  0
    1.0136   -4.5280   36.0554 C   0  0  0  0  0  0  0  0  0  0  0  0
    0.2765   -4.3616   37.2348 C   0  0  0  0  0  0  0  0  0  0  0  0
    0.7217   -3.4922   38.2216 C   0  0  0  0  0  0  0  0  0  0  0  0
    0.0222   -3.3688   39.3576 F   0  0  0  0  0  0  0  0  0  0  0  0
    1.8826   -2.7563   38.0508 C   0  0  0  0  0  0  0  0  0  0  0  0
    2.6225   -2.9138   36.8800 C   0  0  0  0  0  0  0  0  0  0  0  0
    2.2064   -3.8092   35.8732 C   0  0  0  0  0  0  0  0  0  0  0  0
    3.1201   -4.0446   34.7006 C   0  0  0  0  0  0  0  0  0  0  0  0
    2.4533   -4.2853   33.5356 F   0  0  0  0  0  0  0  0  0  0  0  0
    3.9362   -2.9837   34.4289 F   0  0  0  0  0  0  0  0  0  0  0  0
   -0.9490   -7.0000   33.7356 C   0  0  0  0  0  0  0  0  0  0  0  0
   -0.3387   -6.5683   32.5558 C   0  0  0  0  0  0  0  0  0  0  0  0
    0.4843   -5.5132   32.5316 F   0  0  0  0  0  0  0  0  0  0  0  0
   -0.6119   -7.2090   31.3559 C   0  0  0  0  0  0  0  0  0  0  0  0
   -1.4700   -8.2448   31.2355 N   0  0  0  0  0  0  0  0  0  0  0  0
   -2.0432   -8.6648   32.3831 C   0  0  0  0  0  0  0  0  0  0  0  0
   -1.8376   -8.0846   33.6298 C   0  0  0  0  0  0  0  0  0  0  0  0
   -2.9165   -8.8081   35.0086 Br  0  0  0  0  0  0  0  0  0  0  0  0
  1  2  2  0
  2  3  1  0
  3  4  1  0
  4  5  2  0
  5  6  1  0
  6  7  1  0
  6  8  2  0
  8  9  1  0
  9 10  2  0
 10 11  1  0
 11 12  1  0
 11 13  1  0
  2 14  1  0
 14 15  2  0
 15 16  1  0
 15 17  1  0
 17 18  2  0
 18 19  1  0
 19 20  2  0
 20 21  1  0
 10  4  1  0
 20 14  1  0
M  END
>  <ref_mols>  (305) 
7gov-a

>  <gnina_score>  (305) 
5.181

>  <smina_score_min>  (305) 
-5.513

>  <ref_pdb>  (305) 
7gov-a

>  <inspiration_score>  (305) 
None

>  <inchikey>  (305) 
HVINZHNIBMZCNV-UHFFFAOYSA-N

>  <tags>  (305) 
BulkDock Fragalysis export,openbind_d68ev3c_c2_elabs_scored,openbind_d68ev3c_c2_elabs_scored_4.5plus,openbind_d68ev3c_c2_elabs,openbind_d68ev3c_c2_elabs_scored_5plus,syndirella_product,openbind_d68ev3c_c2_elabs_scored_top80percent,syndirella_placed

>  <smiles>  (305) 
O=C(Nc1cc(F)ccc1C(F)F)c1c(F)cncc1Br

>  <subsites>  (305) 
None

>  <rmsd(smina/fragmenstein)>  (305) 
1.138

>  <alias>  (305) 
None

>  <energy_score>  (305) 
-30.899973

>  <HIPPO Pose ID>  (305) 
65261

>  <distance_score>  (305) 
0.796361

>  <HIPPO Compound ID>  (305) 
102331

>  <gnina_score_min>  (305) 
5.076

>  <name>  (305) 
P65261

>  <exports>  (305) 
['/opt/xchem-fragalysis-2/maxwin/BulkDock/OUTPUTS/openbind_d68ev3c_c2_elabs_1LOTQJ3.sdf', '/opt/xchem-fragalysis-2/maxwin/BulkDock/OUTPUTS/openbind_d68ev3c_c2_elabs_1LSYEHW.sdf', '/opt/xchem-fragalysis-2/maxwin/BulkDock/OUTPUTS/openbind_d68ev3c_c2_elabs_1LSYI5W.sdf']

$$$$
P65262
     RDKit          3D

 21 22  0  0  0  0  0  0  0  0999 V2000
    3.4840   -3.8832   33.5105 C   0  0  0  0  0  0  0  0  0  0  0  0
    2.8858   -3.8150   34.5496 C   0  0  0  0  0  0  0  0  0  0  0  0
    2.1718   -3.7381   35.7919 C   0  0  0  0  0  0  0  0  0  0  0  0
    2.6791   -2.9154   36.8041 C   0  0  0  0  0  0  0  0  0  0  0  0
    2.0187   -2.8357   38.0259 C   0  0  0  0  0  0  0  0  0  0  0  0
    2.5175   -2.0502   38.9915 F   0  0  0  0  0  0  0  0  0  0  0  0
    0.8514   -3.5544   38.2433 C   0  0  0  0  0  0  0  0  0  0  0  0
    0.2148   -3.4717   39.4204 F   0  0  0  0  0  0  0  0  0  0  0  0
    0.3269   -4.3627   37.2421 C   0  0  0  0  0  0  0  0  0  0  0  0
    0.9893   -4.4679   36.0131 C   0  0  0  0  0  0  0  0  0  0  0  0
    0.4561   -5.2801   35.0098 N   0  0  0  0  0  0  0  0  0  0  0  0
   -0.7274   -6.2697   35.0448 C   0  0  0  0  0  0  0  0  0  0  0  0
   -1.4899   -6.5048   35.8939 O   0  0  0  0  0  0  0  0  0  0  0  0
   -0.9401   -6.9991   33.7359 C   0  0  0  0  0  0  0  0  0  0  0  0
   -0.3168   -6.5855   32.5534 C   0  0  0  0  0  0  0  0  0  0  0  0
    0.5384   -5.5539   32.5215 F   0  0  0  0  0  0  0  0  0  0  0  0
   -0.5994   -7.2274   31.3560 C   0  0  0  0  0  0  0  0  0  0  0  0
   -1.4720   -8.2507   31.2386 N   0  0  0  0  0  0  0  0  0  0  0  0
   -2.0482   -8.6608   32.3880 C   0  0  0  0  0  0  0  0  0  0  0  0
   -1.8373   -8.0780   33.6332 C   0  0  0  0  0  0  0  0  0  0  0  0
   -2.9245   -8.7939   35.0104 Br  0  0  0  0  0  0  0  0  0  0  0  0
  1  2  3  0
  2  3  1  0
  3  4  2  0
  4  5  1  0
  5  6  1  0
  5  7  2  0
  7  8  1  0
  7  9  1  0
  9 10  2  0
 10 11  1  0
 11 12  1  0
 12 13  2  0
 12 14  1  0
 14 15  2  0
 15 16  1  0
 15 17  1  0
 17 18  2  0
 18 19  1  0
 19 20  2  0
 20 21  1  0
 10  3  1  0
 20 14  1  0
M  END
>  <ref_mols>  (306) 
7gov-a

>  <gnina_score>  (306) 
5.368

>  <smina_score_min>  (306) 
-5.584

>  <ref_pdb>  (306) 
7gov-a

>  <inspiration_score>  (306) 
None

>  <inchikey>  (306) 
DZLWVSBOVCOZEH-UHFFFAOYSA-N

>  <tags>  (306) 
BulkDock Fragalysis export,openbind_d68ev3c_c2_elabs_scored,openbind_d68ev3c_c2_elabs_scored_4.5plus,openbind_d68ev3c_c2_elabs,openbind_d68ev3c_c2_elabs_scored_5plus,syndirella_product,openbind_d68ev3c_c2_elabs_scored_top80percent,syndirella_placed

>  <smiles>  (306) 
C#Cc1cc(F)c(F)cc1NC(=O)c1c(F)cncc1Br

>  <subsites>  (306) 
None

>  <rmsd(smina/fragmenstein)>  (306) 
1.232

>  <alias>  (306) 
None

>  <energy_score>  (306) 
-28.682309

>  <HIPPO Pose ID>  (306) 
65262

>  <distance_score>  (306) 
0.774542

>  <HIPPO Compound ID>  (306) 
102332

>  <gnina_score_min>  (306) 
5.207

>  <name>  (306) 
P65262

>  <exports>  (306) 
['/opt/xchem-fragalysis-2/maxwin/BulkDock/OUTPUTS/openbind_d68ev3c_c2_elabs_1LOTQJ3.sdf', '/opt/xchem-fragalysis-2/maxwin/BulkDock/OUTPUTS/openbind_d68ev3c_c2_elabs_1LSYEHW.sdf', '/opt/xchem-fragalysis-2/maxwin/BulkDock/OUTPUTS/openbind_d68ev3c_c2_elabs_1LSYI5W.sdf']

$$$$
P65264
     RDKit          3D

 21 22  0  0  0  0  0  0  0  0999 V2000
    2.9599   -2.7014   33.8039 C   0  0  0  0  0  0  0  0  0  0  0  0
    3.0823   -3.9258   34.7002 C   0  0  0  0  0  0  0  0  0  0  0  0
    2.1768   -3.8376   35.9081 C   0  0  0  0  0  0  0  0  0  0  0  0
    2.5771   -2.9764   36.9522 C   0  0  0  0  0  0  0  0  0  0  0  0
    1.8320   -2.8772   38.1254 C   0  0  0  0  0  0  0  0  0  0  0  0
    2.4283   -1.7452   39.5172 Br  0  0  0  0  0  0  0  0  0  0  0  0
    0.6679   -3.6184   38.2620 C   0  0  0  0  0  0  0  0  0  0  0  0
   -0.0641   -3.5458   39.3841 F   0  0  0  0  0  0  0  0  0  0  0  0
    0.2389   -4.4547   37.2368 C   0  0  0  0  0  0  0  0  0  0  0  0
    0.9878   -4.5772   36.0595 C   0  0  0  0  0  0  0  0  0  0  0  0
    0.5366   -5.4314   35.0499 N   0  0  0  0  0  0  0  0  0  0  0  0
   -0.7534   -6.2756   34.9520 C   0  0  0  0  0  0  0  0  0  0  0  0
   -1.6044   -6.4500   35.7319 O   0  0  0  0  0  0  0  0  0  0  0  0
   -0.9133   -6.9566   33.6286 C   0  0  0  0  0  0  0  0  0  0  0  0
   -1.6073   -8.1705   33.6581 C   0  0  0  0  0  0  0  0  0  0  0  0
   -2.0202   -8.7306   34.8009 F   0  0  0  0  0  0  0  0  0  0  0  0
   -1.9052   -8.8176   32.4769 C   0  0  0  0  0  0  0  0  0  0  0  0
   -1.5401   -8.3647   31.2608 N   0  0  0  0  0  0  0  0  0  0  0  0
   -0.8349   -7.2103   31.2450 C   0  0  0  0  0  0  0  0  0  0  0  0
   -0.5315   -6.4571   32.3778 C   0  0  0  0  0  0  0  0  0  0  0  0
    0.2504   -4.7669   32.0497 Br  0  0  0  0  0  0  0  0  0  0  0  0
  1  2  1  0
  2  3  1  0
  3  4  2  0
  4  5  1  0
  5  6  1  0
  5  7  2  0
  7  8  1  0
  7  9  1  0
  9 10  2  0
 10 11  1  0
 11 12  1  0
 12 13  2  0
 12 14  1  0
 14 15  2  0
 15 16  1  0
 15 17  1  0
 17 18  2  0
 18 19  1  0
 19 20  2  0
 20 21  1  0
 10  3  1  0
 20 14  1  0
M  END
>  <ref_mols>  (307) 
7gov-a

>  <gnina_score>  (307) 
5.344

>  <smina_score_min>  (307) 
-5.22

>  <ref_pdb>  (307) 
7gov-a

>  <inspiration_score>  (307) 
None

>  <inchikey>  (307) 
UUKSGGMZASFBGW-UHFFFAOYSA-N

>  <tags>  (307) 
BulkDock Fragalysis export,openbind_d68ev3c_c2_elabs_scored,openbind_d68ev3c_c2_elabs_scored_4.5plus,openbind_d68ev3c_c2_elabs,openbind_d68ev3c_c2_elabs_scored_5plus,syndirella_product,openbind_d68ev3c_c2_elabs_scored_top80percent,syndirella_placed

>  <smiles>  (307) 
CCc1cc(Br)c(F)cc1NC(=O)c1c(F)cncc1Br

>  <subsites>  (307) 
None

>  <rmsd(smina/fragmenstein)>  (307) 
0.252

>  <alias>  (307) 
None

>  <energy_score>  (307) 
-31.195337

>  <HIPPO Pose ID>  (307) 
65264

>  <distance_score>  (307) 
0.779418

>  <HIPPO Compound ID>  (307) 
102334

>  <gnina_score_min>  (307) 
5.174

>  <name>  (307) 
P65264

>  <exports>  (307) 
['/opt/xchem-fragalysis-2/maxwin/BulkDock/OUTPUTS/openbind_d68ev3c_c2_elabs_1LOTQJ3.sdf', '/opt/xchem-fragalysis-2/maxwin/BulkDock/OUTPUTS/openbind_d68ev3c_c2_elabs_1LSYEHW.sdf', '/opt/xchem-fragalysis-2/maxwin/BulkDock/OUTPUTS/openbind_d68ev3c_c2_elabs_1LSYI5W.sdf']

$$$$
P65266
     RDKit          3D

 21 22  0  0  0  0  0  0  0  0999 V2000
    3.9125   -3.0913   34.2552 O   0  0  0  0  0  0  0  0  0  0  0  0
    3.0911   -3.9408   34.5841 C   0  0  0  0  0  0  0  0  0  0  0  0
    2.2633   -3.8011   35.8014 C   0  0  0  0  0  0  0  0  0  0  0  0
    2.7027   -2.8982   36.7818 C   0  0  0  0  0  0  0  0  0  0  0  0
    1.9963   -2.7738   37.9716 C   0  0  0  0  0  0  0  0  0  0  0  0
    2.4351   -1.9259   38.9124 F   0  0  0  0  0  0  0  0  0  0  0  0
    0.8465   -3.5190   38.1842 C   0  0  0  0  0  0  0  0  0  0  0  0
    0.1670   -3.4043   39.3341 F   0  0  0  0  0  0  0  0  0  0  0  0
    0.3825   -4.3908   37.2045 C   0  0  0  0  0  0  0  0  0  0  0  0
    1.0895   -4.5500   36.0029 C   0  0  0  0  0  0  0  0  0  0  0  0
    0.5804   -5.4246   35.0354 N   0  0  0  0  0  0  0  0  0  0  0  0
   -0.6725   -6.3282   35.0596 C   0  0  0  0  0  0  0  0  0  0  0  0
   -1.4320   -6.5426   35.9169 O   0  0  0  0  0  0  0  0  0  0  0  0
   -0.9243   -7.0310   33.7442 C   0  0  0  0  0  0  0  0  0  0  0  0
   -0.3028   -6.6132   32.5618 C   0  0  0  0  0  0  0  0  0  0  0  0
    0.5762   -5.6003   32.5425 F   0  0  0  0  0  0  0  0  0  0  0  0
   -0.6045   -7.2357   31.3595 C   0  0  0  0  0  0  0  0  0  0  0  0
   -1.4943   -8.2436   31.2402 N   0  0  0  0  0  0  0  0  0  0  0  0
   -2.0733   -8.6542   32.3886 C   0  0  0  0  0  0  0  0  0  0  0  0
   -1.8446   -8.0882   33.6378 C   0  0  0  0  0  0  0  0  0  0  0  0
   -2.9340   -8.7936   35.0172 Br  0  0  0  0  0  0  0  0  0  0  0  0
  1  2  2  0
  2  3  1  0
  3  4  2  0
  4  5  1  0
  5  6  1  0
  5  7  2  0
  7  8  1  0
  7  9  1  0
  9 10  2  0
 10 11  1  0
 11 12  1  0
 12 13  2  0
 12 14  1  0
 14 15  2  0
 15 16  1  0
 15 17  1  0
 17 18  2  0
 18 19  1  0
 19 20  2  0
 20 21  1  0
 10  3  1  0
 20 14  1  0
M  END
>  <ref_mols>  (308) 
7gov-a

>  <gnina_score>  (308) 
5.254

>  <smina_score_min>  (308) 
-5.657

>  <ref_pdb>  (308) 
7gov-a

>  <inspiration_score>  (308) 
None

>  <inchikey>  (308) 
HDQQTGZYZIYJIO-UHFFFAOYSA-N

>  <tags>  (308) 
BulkDock Fragalysis export,openbind_d68ev3c_c2_elabs_scored,openbind_d68ev3c_c2_elabs_scored_4.5plus,openbind_d68ev3c_c2_elabs,openbind_d68ev3c_c2_elabs_scored_5plus,syndirella_product,openbind_d68ev3c_c2_elabs_scored_top80percent,syndirella_placed

>  <smiles>  (308) 
O=Cc1cc(F)c(F)cc1NC(=O)c1c(F)cncc1Br

>  <subsites>  (308) 
None

>  <rmsd(smina/fragmenstein)>  (308) 
1.315

>  <alias>  (308) 
None

>  <energy_score>  (308) 
-31.016619

>  <HIPPO Pose ID>  (308) 
65266

>  <distance_score>  (308) 
0.770633

>  <HIPPO Compound ID>  (308) 
102338

>  <gnina_score_min>  (308) 
5.065

>  <name>  (308) 
P65266

>  <exports>  (308) 
['/opt/xchem-fragalysis-2/maxwin/BulkDock/OUTPUTS/openbind_d68ev3c_c2_elabs_1LOTQJ3.sdf', '/opt/xchem-fragalysis-2/maxwin/BulkDock/OUTPUTS/openbind_d68ev3c_c2_elabs_1LSYEHW.sdf', '/opt/xchem-fragalysis-2/maxwin/BulkDock/OUTPUTS/openbind_d68ev3c_c2_elabs_1LSYI5W.sdf']

$$$$
P65267
     RDKit          3D

 21 22  0  0  0  0  0  0  0  0999 V2000
   -1.5876   -6.4477   35.8837 O   0  0  0  0  0  0  0  0  0  0  0  0
   -0.7381   -6.3016   35.0993 C   0  0  0  0  0  0  0  0  0  0  0  0
    0.5484   -5.4494   35.1648 N   0  0  0  0  0  0  0  0  0  0  0  0
    0.9950   -4.5546   36.1397 C   0  0  0  0  0  0  0  0  0  0  0  0
    0.2117   -4.3475   37.2838 C   0  0  0  0  0  0  0  0  0  0  0  0
    0.6435   -3.4826   38.2816 C   0  0  0  0  0  0  0  0  0  0  0  0
   -0.0948   -3.3355   39.3902 F   0  0  0  0  0  0  0  0  0  0  0  0
    1.8314   -2.7870   38.1379 C   0  0  0  0  0  0  0  0  0  0  0  0
    2.2484   -1.9490   39.0975 F   0  0  0  0  0  0  0  0  0  0  0  0
    2.6098   -2.9630   37.0009 C   0  0  0  0  0  0  0  0  0  0  0  0
    2.2111   -3.8626   35.9922 C   0  0  0  0  0  0  0  0  0  0  0  0
    3.1703   -4.1238   34.8646 C   0  0  0  0  0  0  0  0  0  0  0  0
    3.9612   -5.2674   35.1581 O   0  0  0  0  0  0  0  0  0  0  0  0
   -0.9206   -7.0199   33.7862 C   0  0  0  0  0  0  0  0  0  0  0  0
   -0.2799   -6.5829   32.6234 C   0  0  0  0  0  0  0  0  0  0  0  0
    0.5800   -5.5542   32.6322 F   0  0  0  0  0  0  0  0  0  0  0  0
   -0.5574   -7.1962   31.4091 C   0  0  0  0  0  0  0  0  0  0  0  0
   -1.4403   -8.2091   31.2596 N   0  0  0  0  0  0  0  0  0  0  0  0
   -2.0318   -8.6397   32.3939 C   0  0  0  0  0  0  0  0  0  0  0  0
   -1.8279   -8.0855   33.6526 C   0  0  0  0  0  0  0  0  0  0  0  0
   -2.9288   -8.8130   35.0115 Br  0  0  0  0  0  0  0  0  0  0  0  0
  1  2  2  0
  2  3  1  0
  3  4  1  0
  4  5  2  0
  5  6  1  0
  6  7  1  0
  6  8  2  0
  8  9  1  0
  8 10  1  0
 10 11  2  0
 11 12  1  0
 12 13  1  0
  2 14  1  0
 14 15  2  0
 15 16  1  0
 15 17  1  0
 17 18  2  0
 18 19  1  0
 19 20  2  0
 20 21  1  0
 11  4  1  0
 20 14  1  0
M  END
>  <ref_mols>  (309) 
7gov-a

>  <gnina_score>  (309) 
5.135

>  <smina_score_min>  (309) 
-5.846

>  <ref_pdb>  (309) 
7gov-a

>  <inspiration_score>  (309) 
None

>  <inchikey>  (309) 
NYZXUXCEIOGHBR-UHFFFAOYSA-N

>  <tags>  (309) 
BulkDock Fragalysis export,openbind_d68ev3c_c2_elabs_scored,openbind_d68ev3c_c2_elabs_scored_4.5plus,openbind_d68ev3c_c2_elabs,openbind_d68ev3c_c2_elabs_scored_5plus,syndirella_product,openbind_d68ev3c_c2_elabs_scored_top80percent,syndirella_placed

>  <smiles>  (309) 
O=C(Nc1cc(F)c(F)cc1CO)c1c(F)cncc1Br

>  <subsites>  (309) 
None

>  <rmsd(smina/fragmenstein)>  (309) 
1.168

>  <alias>  (309) 
None

>  <energy_score>  (309) 
-23.051018

>  <HIPPO Pose ID>  (309) 
65267

>  <distance_score>  (309) 
0.815817

>  <HIPPO Compound ID>  (309) 
102341

>  <gnina_score_min>  (309) 
5.07

>  <name>  (309) 
P65267

>  <exports>  (309) 
['/opt/xchem-fragalysis-2/maxwin/BulkDock/OUTPUTS/openbind_d68ev3c_c2_elabs_1LOTQJ3.sdf', '/opt/xchem-fragalysis-2/maxwin/BulkDock/OUTPUTS/openbind_d68ev3c_c2_elabs_1LSYEHW.sdf', '/opt/xchem-fragalysis-2/maxwin/BulkDock/OUTPUTS/openbind_d68ev3c_c2_elabs_1LSYI5W.sdf']

$$$$
P65282
     RDKit          3D

 21 22  0  0  0  0  0  0  0  0999 V2000
    2.4504   -2.9996   33.4381 C   0  0  0  0  0  0  0  0  0  0  0  0
    2.9848   -3.9112   34.5324 C   0  0  0  0  0  0  0  0  0  0  0  0
    2.1760   -3.8010   35.8041 C   0  0  0  0  0  0  0  0  0  0  0  0
    2.6316   -2.9239   36.8082 C   0  0  0  0  0  0  0  0  0  0  0  0
    1.9464   -2.8065   38.0178 C   0  0  0  0  0  0  0  0  0  0  0  0
    2.6136   -1.6519   39.3585 Br  0  0  0  0  0  0  0  0  0  0  0  0
    0.7869   -3.5404   38.2264 C   0  0  0  0  0  0  0  0  0  0  0  0
    0.1111   -3.4475   39.3820 F   0  0  0  0  0  0  0  0  0  0  0  0
    0.3038   -4.3894   37.2380 C   0  0  0  0  0  0  0  0  0  0  0  0
    0.9971   -4.5344   36.0307 C   0  0  0  0  0  0  0  0  0  0  0  0
    0.5099   -5.4122   35.0630 N   0  0  0  0  0  0  0  0  0  0  0  0
   -0.7296   -6.3327   35.0771 C   0  0  0  0  0  0  0  0  0  0  0  0
   -1.4930   -6.5581   35.9285 O   0  0  0  0  0  0  0  0  0  0  0  0
   -0.9586   -7.0443   33.7664 C   0  0  0  0  0  0  0  0  0  0  0  0
   -0.3389   -6.6292   32.5829 C   0  0  0  0  0  0  0  0  0  0  0  0
    0.5296   -5.6086   32.5553 F   0  0  0  0  0  0  0  0  0  0  0  0
   -0.6338   -7.2628   31.3847 C   0  0  0  0  0  0  0  0  0  0  0  0
   -1.5176   -8.2770   31.2705 N   0  0  0  0  0  0  0  0  0  0  0  0
   -2.0925   -8.6850   32.4236 C   0  0  0  0  0  0  0  0  0  0  0  0
   -1.8659   -8.1132   33.6705 C   0  0  0  0  0  0  0  0  0  0  0  0
   -2.8273   -8.7563   34.9497 Cl  0  0  0  0  0  0  0  0  0  0  0  0
  1  2  1  0
  2  3  1  0
  3  4  2  0
  4  5  1  0
  5  6  1  0
  5  7  2  0
  7  8  1  0
  7  9  1  0
  9 10  2  0
 10 11  1  0
 11 12  1  0
 12 13  2  0
 12 14  1  0
 14 15  2  0
 15 16  1  0
 15 17  1  0
 17 18  2  0
 18 19  1  0
 19 20  2  0
 20 21  1  0
 10  3  1  0
 20 14  1  0
M  END
>  <ref_mols>  (310) 
7gov-a

>  <gnina_score>  (310) 
5.4

>  <smina_score_min>  (310) 
-5.757

>  <ref_pdb>  (310) 
7gov-a

>  <inspiration_score>  (310) 
None

>  <inchikey>  (310) 
QPRBMYUGQMYXAM-UHFFFAOYSA-N

>  <tags>  (310) 
BulkDock Fragalysis export,openbind_d68ev3c_c2_elabs_scored,openbind_d68ev3c_c2_elabs_scored_4.5plus,openbind_d68ev3c_c2_elabs,openbind_d68ev3c_c2_elabs_scored_5plus,syndirella_product,openbind_d68ev3c_c2_elabs_scored_top80percent,syndirella_placed

>  <smiles>  (310) 
CCc1cc(Br)c(F)cc1NC(=O)c1c(F)cncc1Cl

>  <subsites>  (310) 
None

>  <rmsd(smina/fragmenstein)>  (310) 
1.215

>  <alias>  (310) 
None

>  <energy_score>  (310) 
-22.882124

>  <HIPPO Pose ID>  (310) 
65282

>  <distance_score>  (310) 
0.771845

>  <HIPPO Compound ID>  (310) 
102368

>  <gnina_score_min>  (310) 
5.243

>  <name>  (310) 
P65282

>  <exports>  (310) 
['/opt/xchem-fragalysis-2/maxwin/BulkDock/OUTPUTS/openbind_d68ev3c_c2_elabs_1LOTQJ3.sdf', '/opt/xchem-fragalysis-2/maxwin/BulkDock/OUTPUTS/openbind_d68ev3c_c2_elabs_1LSYEHW.sdf', '/opt/xchem-fragalysis-2/maxwin/BulkDock/OUTPUTS/openbind_d68ev3c_c2_elabs_1LSYI5W.sdf']

$$$$
P65284
     RDKit          3D

 21 22  0  0  0  0  0  0  0  0999 V2000
    3.5013   -3.9655   33.5355 C   0  0  0  0  0  0  0  0  0  0  0  0
    2.8959   -3.8809   34.5691 C   0  0  0  0  0  0  0  0  0  0  0  0
    2.1728   -3.7852   35.8050 C   0  0  0  0  0  0  0  0  0  0  0  0
    2.6407   -2.9024   36.7851 C   0  0  0  0  0  0  0  0  0  0  0  0
    1.9705   -2.8008   37.9996 C   0  0  0  0  0  0  0  0  0  0  0  0
    2.4323   -1.9588   38.9355 F   0  0  0  0  0  0  0  0  0  0  0  0
    0.8308   -3.5557   38.2402 C   0  0  0  0  0  0  0  0  0  0  0  0
    0.1867   -3.4538   39.4117 F   0  0  0  0  0  0  0  0  0  0  0  0
    0.3452   -4.4248   37.2707 C   0  0  0  0  0  0  0  0  0  0  0  0
    1.0202   -4.5548   36.0509 C   0  0  0  0  0  0  0  0  0  0  0  0
    0.5421   -5.4465   35.0876 N   0  0  0  0  0  0  0  0  0  0  0  0
   -0.7401   -6.3063   35.0655 C   0  0  0  0  0  0  0  0  0  0  0  0
   -1.5583   -6.4628   35.8806 O   0  0  0  0  0  0  0  0  0  0  0  0
   -0.9532   -7.0276   33.7604 C   0  0  0  0  0  0  0  0  0  0  0  0
   -0.3419   -6.6023   32.5773 C   0  0  0  0  0  0  0  0  0  0  0  0
    0.5006   -5.5601   32.5502 F   0  0  0  0  0  0  0  0  0  0  0  0
   -0.6299   -7.2413   31.3802 C   0  0  0  0  0  0  0  0  0  0  0  0
   -1.5019   -8.2668   31.2677 N   0  0  0  0  0  0  0  0  0  0  0  0
   -2.0705   -8.6814   32.4218 C   0  0  0  0  0  0  0  0  0  0  0  0
   -1.8478   -8.1063   33.6675 C   0  0  0  0  0  0  0  0  0  0  0  0
   -2.7937   -8.7568   34.9534 Cl  0  0  0  0  0  0  0  0  0  0  0  0
  1  2  3  0
  2  3  1  0
  3  4  2  0
  4  5  1  0
  5  6  1  0
  5  7  2  0
  7  8  1  0
  7  9  1  0
  9 10  2  0
 10 11  1  0
 11 12  1  0
 12 13  2  0
 12 14  1  0
 14 15  2  0
 15 16  1  0
 15 17  1  0
 17 18  2  0
 18 19  1  0
 19 20  2  0
 20 21  1  0
 10  3  1  0
 20 14  1  0
M  END
>  <ref_mols>  (311) 
7gov-a

>  <gnina_score>  (311) 
5.326

>  <smina_score_min>  (311) 
-5.779

>  <ref_pdb>  (311) 
7gov-a

>  <inspiration_score>  (311) 
None

>  <inchikey>  (311) 
JKZKAQGZYAPSBC-UHFFFAOYSA-N

>  <tags>  (311) 
BulkDock Fragalysis export,openbind_d68ev3c_c2_elabs_scored,openbind_d68ev3c_c2_elabs_scored_4.5plus,openbind_d68ev3c_c2_elabs,openbind_d68ev3c_c2_elabs_scored_5plus,syndirella_product,openbind_d68ev3c_c2_elabs_scored_top80percent,syndirella_placed

>  <smiles>  (311) 
C#Cc1cc(F)c(F)cc1NC(=O)c1c(F)cncc1Cl

>  <subsites>  (311) 
None

>  <rmsd(smina/fragmenstein)>  (311) 
1.258

>  <alias>  (311) 
None

>  <energy_score>  (311) 
-26.214909

>  <HIPPO Pose ID>  (311) 
65284

>  <distance_score>  (311) 
0.793932

>  <HIPPO Compound ID>  (311) 
102370

>  <gnina_score_min>  (311) 
5.188

>  <name>  (311) 
P65284

>  <exports>  (311) 
['/opt/xchem-fragalysis-2/maxwin/BulkDock/OUTPUTS/openbind_d68ev3c_c2_elabs_1LOTQJ3.sdf', '/opt/xchem-fragalysis-2/maxwin/BulkDock/OUTPUTS/openbind_d68ev3c_c2_elabs_1LSYEHW.sdf', '/opt/xchem-fragalysis-2/maxwin/BulkDock/OUTPUTS/openbind_d68ev3c_c2_elabs_1LSYI5W.sdf']

$$$$
P65285
     RDKit          3D

 21 22  0  0  0  0  0  0  0  0999 V2000
   -1.5612   -6.5086   35.7530 O   0  0  0  0  0  0  0  0  0  0  0  0
   -0.7408   -6.2761   34.9547 C   0  0  0  0  0  0  0  0  0  0  0  0
    0.5206   -5.3866   35.0442 N   0  0  0  0  0  0  0  0  0  0  0  0
    0.9698   -4.5507   36.0681 C   0  0  0  0  0  0  0  0  0  0  0  0
    0.1821   -4.3801   37.2125 C   0  0  0  0  0  0  0  0  0  0  0  0
    0.6023   -3.5316   38.2291 C   0  0  0  0  0  0  0  0  0  0  0  0
   -0.1405   -3.4082   39.3370 F   0  0  0  0  0  0  0  0  0  0  0  0
    1.7816   -2.8136   38.1180 C   0  0  0  0  0  0  0  0  0  0  0  0
    2.5698   -2.9733   36.9807 C   0  0  0  0  0  0  0  0  0  0  0  0
    2.1872   -3.8580   35.9509 C   0  0  0  0  0  0  0  0  0  0  0  0
    3.1698   -4.0955   34.8339 C   0  0  0  0  0  0  0  0  0  0  0  0
    3.7886   -2.9520   34.4179 F   0  0  0  0  0  0  0  0  0  0  0  0
    2.6175   -4.6331   33.7090 F   0  0  0  0  0  0  0  0  0  0  0  0
   -0.9046   -6.9353   33.6250 C   0  0  0  0  0  0  0  0  0  0  0  0
   -1.5466   -8.1767   33.6321 C   0  0  0  0  0  0  0  0  0  0  0  0
   -1.9033   -8.7891   34.7663 F   0  0  0  0  0  0  0  0  0  0  0  0
   -1.8438   -8.8006   32.4383 C   0  0  0  0  0  0  0  0  0  0  0  0
   -1.5202   -8.2976   31.2297 N   0  0  0  0  0  0  0  0  0  0  0  0
   -0.8641   -7.1120   31.2379 C   0  0  0  0  0  0  0  0  0  0  0  0
   -0.5755   -6.3779   32.3865 C   0  0  0  0  0  0  0  0  0  0  0  0
    0.0385   -4.7879   32.1508 Cl  0  0  0  0  0  0  0  0  0  0  0  0
  1  2  2  0
  2  3  1  0
  3  4  1  0
  4  5  2  0
  5  6  1  0
  6  7  1  0
  6  8  2  0
  8  9  1  0
  9 10  2  0
 10 11  1  0
 11 12  1  0
 11 13  1  0
  2 14  1  0
 14 15  2  0
 15 16  1  0
 15 17  1  0
 17 18  2  0
 18 19  1  0
 19 20  2  0
 20 21  1  0
 10  4  1  0
 20 14  1  0
M  END
>  <ref_mols>  (312) 
7gov-a

>  <gnina_score>  (312) 
5.096

>  <smina_score_min>  (312) 
-5.686

>  <ref_pdb>  (312) 
7gov-a

>  <inspiration_score>  (312) 
None

>  <inchikey>  (312) 
PGBWRDPJWXTGBW-UHFFFAOYSA-N

>  <tags>  (312) 
BulkDock Fragalysis export,openbind_d68ev3c_c2_elabs_scored,openbind_d68ev3c_c2_elabs_scored_4.5plus,openbind_d68ev3c_c2_elabs,openbind_d68ev3c_c2_elabs_scored_5plus,syndirella_product,openbind_d68ev3c_c2_elabs_scored_top80percent,syndirella_placed

>  <smiles>  (312) 
O=C(Nc1cc(F)ccc1C(F)F)c1c(F)cncc1Cl

>  <subsites>  (312) 
None

>  <rmsd(smina/fragmenstein)>  (312) 
1.163

>  <alias>  (312) 
None

>  <energy_score>  (312) 
-21.167758

>  <HIPPO Pose ID>  (312) 
65285

>  <distance_score>  (312) 
0.780693

>  <HIPPO Compound ID>  (312) 
102371

>  <gnina_score_min>  (312) 
5.081

>  <name>  (312) 
P65285

>  <exports>  (312) 
['/opt/xchem-fragalysis-2/maxwin/BulkDock/OUTPUTS/openbind_d68ev3c_c2_elabs_1LOTQJ3.sdf', '/opt/xchem-fragalysis-2/maxwin/BulkDock/OUTPUTS/openbind_d68ev3c_c2_elabs_1LSYEHW.sdf', '/opt/xchem-fragalysis-2/maxwin/BulkDock/OUTPUTS/openbind_d68ev3c_c2_elabs_1LSYI5W.sdf']

$$$$
P65286
     RDKit          3D

 21 22  0  0  0  0  0  0  0  0999 V2000
    2.6455   -4.4665   33.6368 O   0  0  0  0  0  0  0  0  0  0  0  0
    3.0294   -3.8920   34.6476 C   0  0  0  0  0  0  0  0  0  0  0  0
    2.2078   -3.7823   35.8731 C   0  0  0  0  0  0  0  0  0  0  0  0
    2.7093   -2.9787   36.9074 C   0  0  0  0  0  0  0  0  0  0  0  0
    2.0076   -2.8770   38.1080 C   0  0  0  0  0  0  0  0  0  0  0  0
    2.6505   -1.9122   39.3816 Cl  0  0  0  0  0  0  0  0  0  0  0  0
    0.8042   -3.5558   38.2682 C   0  0  0  0  0  0  0  0  0  0  0  0
    0.1174   -3.4713   39.4173 F   0  0  0  0  0  0  0  0  0  0  0  0
    0.2894   -4.3355   37.2373 C   0  0  0  0  0  0  0  0  0  0  0  0
    0.9902   -4.4631   36.0318 C   0  0  0  0  0  0  0  0  0  0  0  0
    0.4580   -5.2568   35.0150 N   0  0  0  0  0  0  0  0  0  0  0  0
   -0.7476   -6.2245   35.0236 C   0  0  0  0  0  0  0  0  0  0  0  0
   -1.5292   -6.4503   35.8594 O   0  0  0  0  0  0  0  0  0  0  0  0
   -0.9512   -6.9586   33.7219 C   0  0  0  0  0  0  0  0  0  0  0  0
   -0.3802   -6.5155   32.5271 C   0  0  0  0  0  0  0  0  0  0  0  0
    0.3832   -5.4187   32.4716 F   0  0  0  0  0  0  0  0  0  0  0  0
   -0.6467   -7.1821   31.3395 C   0  0  0  0  0  0  0  0  0  0  0  0
   -1.4742   -8.2460   31.2429 N   0  0  0  0  0  0  0  0  0  0  0  0
   -2.0152   -8.6706   32.4054 C   0  0  0  0  0  0  0  0  0  0  0  0
   -1.8043   -8.0740   33.6437 C   0  0  0  0  0  0  0  0  0  0  0  0
   -2.7276   -8.7455   34.9359 Cl  0  0  0  0  0  0  0  0  0  0  0  0
  1  2  2  0
  2  3  1  0
  3  4  2  0
  4  5  1  0
  5  6  1  0
  5  7  2  0
  7  8  1  0
  7  9  1  0
  9 10  2  0
 10 11  1  0
 11 12  1  0
 12 13  2  0
 12 14  1  0
 14 15  2  0
 15 16  1  0
 15 17  1  0
 17 18  2  0
 18 19  1  0
 19 20  2  0
 20 21  1  0
 10  3  1  0
 20 14  1  0
M  END
>  <ref_mols>  (313) 
7gov-a

>  <gnina_score>  (313) 
5.233

>  <smina_score_min>  (313) 
-6.224

>  <ref_pdb>  (313) 
7gov-a

>  <inspiration_score>  (313) 
None

>  <inchikey>  (313) 
GZLYJRGROOJKSD-UHFFFAOYSA-N

>  <tags>  (313) 
BulkDock Fragalysis export,openbind_d68ev3c_c2_elabs_scored,openbind_d68ev3c_c2_elabs_scored_4.5plus,openbind_d68ev3c_c2_elabs,openbind_d68ev3c_c2_elabs_scored_5plus,syndirella_product,openbind_d68ev3c_c2_elabs_scored_top80percent,syndirella_placed

>  <smiles>  (313) 
O=Cc1cc(Cl)c(F)cc1NC(=O)c1c(F)cncc1Cl

>  <subsites>  (313) 
None

>  <rmsd(smina/fragmenstein)>  (313) 
1.298

>  <alias>  (313) 
None

>  <energy_score>  (313) 
-26.429077

>  <HIPPO Pose ID>  (313) 
65286

>  <distance_score>  (313) 
0.782558

>  <HIPPO Compound ID>  (313) 
102372

>  <gnina_score_min>  (313) 
5.176

>  <name>  (313) 
P65286

>  <exports>  (313) 
['/opt/xchem-fragalysis-2/maxwin/BulkDock/OUTPUTS/openbind_d68ev3c_c2_elabs_1LOTQJ3.sdf', '/opt/xchem-fragalysis-2/maxwin/BulkDock/OUTPUTS/openbind_d68ev3c_c2_elabs_1LSYEHW.sdf', '/opt/xchem-fragalysis-2/maxwin/BulkDock/OUTPUTS/openbind_d68ev3c_c2_elabs_1LSYI5W.sdf']

$$$$
P65287
     RDKit          3D

 21 22  0  0  0  0  0  0  0  0999 V2000
   -1.4874   -6.5558   35.9202 O   0  0  0  0  0  0  0  0  0  0  0  0
   -0.7268   -6.3191   35.0690 C   0  0  0  0  0  0  0  0  0  0  0  0
    0.5123   -5.3958   35.0621 N   0  0  0  0  0  0  0  0  0  0  0  0
    1.0009   -4.5288   36.0387 C   0  0  0  0  0  0  0  0  0  0  0  0
    0.2958   -4.3742   37.2377 C   0  0  0  0  0  0  0  0  0  0  0  0
    0.7787   -3.5291   38.2296 C   0  0  0  0  0  0  0  0  0  0  0  0
    0.0926   -3.4265   39.3780 F   0  0  0  0  0  0  0  0  0  0  0  0
    1.9490   -2.8087   38.0312 C   0  0  0  0  0  0  0  0  0  0  0  0
    2.6159   -1.6602   39.3772 Br  0  0  0  0  0  0  0  0  0  0  0  0
    2.6482   -2.9387   36.8304 C   0  0  0  0  0  0  0  0  0  0  0  0
    2.1923   -3.8134   35.8257 C   0  0  0  0  0  0  0  0  0  0  0  0
    3.0186   -3.9804   34.5770 C   0  0  0  0  0  0  0  0  0  0  0  0
    2.3319   -3.4807   33.4355 O   0  0  0  0  0  0  0  0  0  0  0  0
   -0.9568   -7.0286   33.7577 C   0  0  0  0  0  0  0  0  0  0  0  0
   -0.3474   -6.6048   32.5734 C   0  0  0  0  0  0  0  0  0  0  0  0
    0.4994   -5.5681   32.5453 F   0  0  0  0  0  0  0  0  0  0  0  0
   -0.6360   -7.2419   31.3755 C   0  0  0  0  0  0  0  0  0  0  0  0
   -1.5089   -8.2661   31.2622 N   0  0  0  0  0  0  0  0  0  0  0  0
   -2.0777   -8.6801   32.4160 C   0  0  0  0  0  0  0  0  0  0  0  0
   -1.8544   -8.1061   33.6625 C   0  0  0  0  0  0  0  0  0  0  0  0
   -2.8102   -8.7570   34.9421 Cl  0  0  0  0  0  0  0  0  0  0  0  0
  1  2  2  0
  2  3  1  0
  3  4  1  0
  4  5  2  0
  5  6  1  0
  6  7  1  0
  6  8  2  0
  8  9  1  0
  8 10  1  0
 10 11  2  0
 11 12  1  0
 12 13  1  0
  2 14  1  0
 14 15  2  0
 15 16  1  0
 15 17  1  0
 17 18  2  0
 18 19  1  0
 19 20  2  0
 20 21  1  0
 11  4  1  0
 20 14  1  0
M  END
>  <ref_mols>  (314) 
7gov-a

>  <gnina_score>  (314) 
5.19

>  <smina_score_min>  (314) 
-5.774

>  <ref_pdb>  (314) 
7gov-a

>  <inspiration_score>  (314) 
None

>  <inchikey>  (314) 
SLNDXVXRSVBDIQ-UHFFFAOYSA-N

>  <tags>  (314) 
BulkDock Fragalysis export,openbind_d68ev3c_c2_elabs_scored,openbind_d68ev3c_c2_elabs_scored_4.5plus,openbind_d68ev3c_c2_elabs,openbind_d68ev3c_c2_elabs_scored_5plus,syndirella_product,openbind_d68ev3c_c2_elabs_scored_top80percent,syndirella_placed

>  <smiles>  (314) 
O=C(Nc1cc(F)c(Br)cc1CO)c1c(F)cncc1Cl

>  <subsites>  (314) 
None

>  <rmsd(smina/fragmenstein)>  (314) 
1.216

>  <alias>  (314) 
None

>  <energy_score>  (314) 
-20.098904

>  <HIPPO Pose ID>  (314) 
65287

>  <distance_score>  (314) 
0.770438

>  <HIPPO Compound ID>  (314) 
102373

>  <gnina_score_min>  (314) 
5.042

>  <name>  (314) 
P65287

>  <exports>  (314) 
['/opt/xchem-fragalysis-2/maxwin/BulkDock/OUTPUTS/openbind_d68ev3c_c2_elabs_1LOTQJ3.sdf', '/opt/xchem-fragalysis-2/maxwin/BulkDock/OUTPUTS/openbind_d68ev3c_c2_elabs_1LSYEHW.sdf', '/opt/xchem-fragalysis-2/maxwin/BulkDock/OUTPUTS/openbind_d68ev3c_c2_elabs_1LSYI5W.sdf']

$$$$
P65288
     RDKit          3D

 21 22  0  0  0  0  0  0  0  0999 V2000
    3.8908   -3.0976   34.2489 O   0  0  0  0  0  0  0  0  0  0  0  0
    3.0731   -3.9482   34.5838 C   0  0  0  0  0  0  0  0  0  0  0  0
    2.2487   -3.8078   35.8040 C   0  0  0  0  0  0  0  0  0  0  0  0
    2.6941   -2.9067   36.7854 C   0  0  0  0  0  0  0  0  0  0  0  0
    1.9948   -2.7801   37.9843 C   0  0  0  0  0  0  0  0  0  0  0  0
    2.6340   -1.6011   39.3168 Br  0  0  0  0  0  0  0  0  0  0  0  0
    0.8414   -3.5265   38.1929 C   0  0  0  0  0  0  0  0  0  0  0  0
    0.1532   -3.4266   39.3403 F   0  0  0  0  0  0  0  0  0  0  0  0
    0.3746   -4.3957   37.2110 C   0  0  0  0  0  0  0  0  0  0  0  0
    1.0766   -4.5561   36.0083 C   0  0  0  0  0  0  0  0  0  0  0  0
    0.5669   -5.4337   35.0440 N   0  0  0  0  0  0  0  0  0  0  0  0
   -0.6807   -6.3450   35.0759 C   0  0  0  0  0  0  0  0  0  0  0  0
   -1.4337   -6.5639   35.9381 O   0  0  0  0  0  0  0  0  0  0  0  0
   -0.9354   -7.0482   33.7641 C   0  0  0  0  0  0  0  0  0  0  0  0
   -0.3226   -6.6340   32.5762 C   0  0  0  0  0  0  0  0  0  0  0  0
    0.5564   -5.6215   32.5481 F   0  0  0  0  0  0  0  0  0  0  0  0
   -0.6328   -7.2610   31.3785 C   0  0  0  0  0  0  0  0  0  0  0  0
   -1.5259   -8.2676   31.2703 N   0  0  0  0  0  0  0  0  0  0  0  0
   -2.0970   -8.6729   32.4264 C   0  0  0  0  0  0  0  0  0  0  0  0
   -1.8553   -8.1063   33.6727 C   0  0  0  0  0  0  0  0  0  0  0  0
   -2.8132   -8.7406   34.9582 Cl  0  0  0  0  0  0  0  0  0  0  0  0
  1  2  2  0
  2  3  1  0
  3  4  2  0
  4  5  1  0
  5  6  1  0
  5  7  2  0
  7  8  1  0
  7  9  1  0
  9 10  2  0
 10 11  1  0
 11 12  1  0
 12 13  2  0
 12 14  1  0
 14 15  2  0
 15 16  1  0
 15 17  1  0
 17 18  2  0
 18 19  1  0
 19 20  2  0
 20 21  1  0
 10  3  1  0
 20 14  1  0
M  END
>  <ref_mols>  (315) 
7gov-a

>  <gnina_score>  (315) 
5.272

>  <smina_score_min>  (315) 
-5.906

>  <ref_pdb>  (315) 
7gov-a

>  <inspiration_score>  (315) 
None

>  <inchikey>  (315) 
LFSQRLWEFSJDAK-UHFFFAOYSA-N

>  <tags>  (315) 
BulkDock Fragalysis export,openbind_d68ev3c_c2_elabs_scored,openbind_d68ev3c_c2_elabs_scored_4.5plus,openbind_d68ev3c_c2_elabs,openbind_d68ev3c_c2_elabs_scored_5plus,syndirella_product,openbind_d68ev3c_c2_elabs_scored_top80percent,syndirella_placed

>  <smiles>  (315) 
O=Cc1cc(Br)c(F)cc1NC(=O)c1c(F)cncc1Cl

>  <subsites>  (315) 
None

>  <rmsd(smina/fragmenstein)>  (315) 
2.435

>  <alias>  (315) 
None

>  <energy_score>  (315) 
-21.577228

>  <HIPPO Pose ID>  (315) 
65288

>  <distance_score>  (315) 
0.766559

>  <HIPPO Compound ID>  (315) 
102374

>  <gnina_score_min>  (315) 
5.227

>  <name>  (315) 
P65288

>  <exports>  (315) 
['/opt/xchem-fragalysis-2/maxwin/BulkDock/OUTPUTS/openbind_d68ev3c_c2_elabs_1LOTQJ3.sdf', '/opt/xchem-fragalysis-2/maxwin/BulkDock/OUTPUTS/openbind_d68ev3c_c2_elabs_1LSYEHW.sdf', '/opt/xchem-fragalysis-2/maxwin/BulkDock/OUTPUTS/openbind_d68ev3c_c2_elabs_1LSYI5W.sdf']

$$$$
P65290
     RDKit          3D

 21 22  0  0  0  0  0  0  0  0999 V2000
    3.3968   -1.8505   39.2526 C   0  0  0  0  0  0  0  0  0  0  0  0
    2.0150   -2.1786   39.2665 O   0  0  0  0  0  0  0  0  0  0  0  0
    1.5373   -2.8900   38.1988 C   0  0  0  0  0  0  0  0  0  0  0  0
    2.2660   -3.2495   37.0658 C   0  0  0  0  0  0  0  0  0  0  0  0
    1.6784   -4.0158   36.0410 C   0  0  0  0  0  0  0  0  0  0  0  0
    2.5380   -4.4253   34.8734 C   0  0  0  0  0  0  0  0  0  0  0  0
    0.3260   -4.3848   36.1560 C   0  0  0  0  0  0  0  0  0  0  0  0
   -0.2633   -5.2317   35.2312 N   0  0  0  0  0  0  0  0  0  0  0  0
    0.1362   -6.6440   34.7740 C   0  0  0  0  0  0  0  0  0  0  0  0
    0.9783   -7.3514   35.1564 O   0  0  0  0  0  0  0  0  0  0  0  0
   -0.6364   -7.0860   33.6051 C   0  0  0  0  0  0  0  0  0  0  0  0
   -0.1861   -6.6903   32.3442 C   0  0  0  0  0  0  0  0  0  0  0  0
   -0.8286   -7.2203   31.2440 C   0  0  0  0  0  0  0  0  0  0  0  0
   -0.3861   -6.6113   29.5121 Br  0  0  0  0  0  0  0  0  0  0  0  0
   -1.8375   -8.1189   31.3291 N   0  0  0  0  0  0  0  0  0  0  0  0
   -2.2245   -8.4927   32.5695 C   0  0  0  0  0  0  0  0  0  0  0  0
   -1.6829   -7.9840   33.7326 C   0  0  0  0  0  0  0  0  0  0  0  0
   -2.4047   -8.3853   35.2233 Cl  0  0  0  0  0  0  0  0  0  0  0  0
   -0.4252   -3.9826   37.2517 C   0  0  0  0  0  0  0  0  0  0  0  0
    0.1987   -3.2789   38.2772 C   0  0  0  0  0  0  0  0  0  0  0  0
   -0.5091   -3.0087   39.3838 F   0  0  0  0  0  0  0  0  0  0  0  0
  1  2  1  0
  2  3  1  0
  3  4  2  0
  4  5  1  0
  5  6  1  0
  5  7  2  0
  7  8  1  0
  8  9  1  0
  9 10  2  0
  9 11  1  0
 11 12  2  0
 12 13  1  0
 13 14  1  0
 13 15  2  0
 15 16  1  0
 16 17  2  0
 17 18  1  0
  7 19  1  0
 19 20  2  0
 20 21  1  0
 20  3  1  0
 17 11  1  0
M  END
>  <ref_mols>  (316) 
7gov-a

>  <gnina_score>  (316) 
5.16

>  <smina_score_min>  (316) 
-5.939

>  <ref_pdb>  (316) 
7gov-a

>  <inspiration_score>  (316) 
None

>  <inchikey>  (316) 
ZWRCJUHNDANWBB-UHFFFAOYSA-N

>  <tags>  (316) 
BulkDock Fragalysis export,openbind_d68ev3c_c2_elabs_scored,openbind_d68ev3c_c2_elabs_scored_4.5plus,openbind_d68ev3c_c2_elabs,openbind_d68ev3c_c2_elabs_scored_5plus,syndirella_product,openbind_d68ev3c_c2_elabs_scored_top80percent,syndirella_placed

>  <smiles>  (316) 
COc1cc(C)c(NC(=O)c2cc(Br)ncc2Cl)cc1F

>  <subsites>  (316) 
None

>  <rmsd(smina/fragmenstein)>  (316) 
1.09

>  <alias>  (316) 
None

>  <energy_score>  (316) 
-4.8691

>  <HIPPO Pose ID>  (316) 
65290

>  <distance_score>  (316) 
0.449357

>  <HIPPO Compound ID>  (316) 
102377

>  <gnina_score_min>  (316) 
5.165

>  <name>  (316) 
P65290

>  <exports>  (316) 
['/opt/xchem-fragalysis-2/maxwin/BulkDock/OUTPUTS/openbind_d68ev3c_c2_elabs_1LOTQJ3.sdf', '/opt/xchem-fragalysis-2/maxwin/BulkDock/OUTPUTS/openbind_d68ev3c_c2_elabs_1LSYEHW.sdf', '/opt/xchem-fragalysis-2/maxwin/BulkDock/OUTPUTS/openbind_d68ev3c_c2_elabs_1LSYI5W.sdf']

$$$$
P65291
     RDKit          3D

 21 22  0  0  0  0  0  0  0  0999 V2000
    3.7492   -2.8284   33.8115 N   0  0  0  0  0  0  0  0  0  0  0  0
    3.1475   -3.0150   34.7868 C   0  0  0  0  0  0  0  0  0  0  0  0
    2.3896   -3.1880   35.9909 C   0  0  0  0  0  0  0  0  0  0  0  0
    2.7180   -2.4227   37.1206 C   0  0  0  0  0  0  0  0  0  0  0  0
    2.0281   -2.6000   38.3232 C   0  0  0  0  0  0  0  0  0  0  0  0
    1.0139   -3.5456   38.3983 C   0  0  0  0  0  0  0  0  0  0  0  0
    0.3289   -3.6873   39.5417 F   0  0  0  0  0  0  0  0  0  0  0  0
    0.6909   -4.3180   37.2916 C   0  0  0  0  0  0  0  0  0  0  0  0
   -0.3393   -5.1733   37.3852 F   0  0  0  0  0  0  0  0  0  0  0  0
    1.3737   -4.1430   36.0778 C   0  0  0  0  0  0  0  0  0  0  0  0
    1.0076   -4.8981   34.9672 N   0  0  0  0  0  0  0  0  0  0  0  0
    0.4826   -6.3346   34.8686 C   0  0  0  0  0  0  0  0  0  0  0  0
    0.3436   -7.1467   35.6930 O   0  0  0  0  0  0  0  0  0  0  0  0
   -0.0128   -6.6891   33.5059 C   0  0  0  0  0  0  0  0  0  0  0  0
   -1.0447   -7.6266   33.5430 C   0  0  0  0  0  0  0  0  0  0  0  0
   -1.6297   -8.0104   32.3645 C   0  0  0  0  0  0  0  0  0  0  0  0
   -3.0525   -9.1875   32.4876 Br  0  0  0  0  0  0  0  0  0  0  0  0
   -1.2807   -7.5621   31.1492 N   0  0  0  0  0  0  0  0  0  0  0  0
   -0.2593   -6.6772   31.1314 C   0  0  0  0  0  0  0  0  0  0  0  0
    0.3913   -6.1946   32.2658 C   0  0  0  0  0  0  0  0  0  0  0  0
    1.6413   -5.0384   32.0270 Cl  0  0  0  0  0  0  0  0  0  0  0  0
  1  2  3  0
  2  3  1  0
  3  4  2  0
  4  5  1  0
  5  6  2  0
  6  7  1  0
  6  8  1  0
  8  9  1  0
  8 10  2  0
 10 11  1  0
 11 12  1  0
 12 13  2  0
 12 14  1  0
 14 15  2  0
 15 16  1  0
 16 17  1  0
 16 18  2  0
 18 19  1  0
 19 20  2  0
 20 21  1  0
 10  3  1  0
 20 14  1  0
M  END
>  <ref_mols>  (317) 
7gov-a

>  <gnina_score>  (317) 
5.178

>  <smina_score_min>  (317) 
-5.028

>  <ref_pdb>  (317) 
7gov-a

>  <inspiration_score>  (317) 
None

>  <inchikey>  (317) 
BOFLJMIXNVNZSL-UHFFFAOYSA-N

>  <tags>  (317) 
BulkDock Fragalysis export,openbind_d68ev3c_c2_elabs_scored,openbind_d68ev3c_c2_elabs_scored_4.5plus,openbind_d68ev3c_c2_elabs,openbind_d68ev3c_c2_elabs_scored_5plus,syndirella_product,openbind_d68ev3c_c2_elabs_scored_top80percent,syndirella_placed

>  <smiles>  (317) 
N#Cc1ccc(F)c(F)c1NC(=O)c1cc(Br)ncc1Cl

>  <subsites>  (317) 
None

>  <rmsd(smina/fragmenstein)>  (317) 
1.245

>  <alias>  (317) 
None

>  <energy_score>  (317) 
-6.17662

>  <HIPPO Pose ID>  (317) 
65291

>  <distance_score>  (317) 
0.767923

>  <HIPPO Compound ID>  (317) 
102379

>  <gnina_score_min>  (317) 
5.127

>  <name>  (317) 
P65291

>  <exports>  (317) 
['/opt/xchem-fragalysis-2/maxwin/BulkDock/OUTPUTS/openbind_d68ev3c_c2_elabs_1LOTQJ3.sdf', '/opt/xchem-fragalysis-2/maxwin/BulkDock/OUTPUTS/openbind_d68ev3c_c2_elabs_1LSYEHW.sdf', '/opt/xchem-fragalysis-2/maxwin/BulkDock/OUTPUTS/openbind_d68ev3c_c2_elabs_1LSYI5W.sdf']

$$$$
P65319
     RDKit          3D

 21 22  0  0  0  0  0  0  0  0999 V2000
    2.7756   -4.6124   33.8082 O   0  0  0  0  0  0  0  0  0  0  0  0
    3.0719   -3.9398   34.7893 C   0  0  0  0  0  0  0  0  0  0  0  0
    2.1921   -3.8311   35.9685 C   0  0  0  0  0  0  0  0  0  0  0  0
    2.5992   -2.9751   36.9946 C   0  0  0  0  0  0  0  0  0  0  0  0
    3.7249   -2.2540   36.8760 F   0  0  0  0  0  0  0  0  0  0  0  0
    1.8530   -2.8467   38.1591 C   0  0  0  0  0  0  0  0  0  0  0  0
    0.6844   -3.5805   38.2887 C   0  0  0  0  0  0  0  0  0  0  0  0
   -0.0349   -3.4761   39.4134 F   0  0  0  0  0  0  0  0  0  0  0  0
    0.2434   -4.4213   37.2708 C   0  0  0  0  0  0  0  0  0  0  0  0
    0.9979   -4.5581   36.1007 C   0  0  0  0  0  0  0  0  0  0  0  0
    0.5517   -5.3949   35.0767 N   0  0  0  0  0  0  0  0  0  0  0  0
   -0.6900   -6.3092   34.9975 C   0  0  0  0  0  0  0  0  0  0  0  0
   -1.4944   -6.5659   35.8055 O   0  0  0  0  0  0  0  0  0  0  0  0
   -0.8620   -6.9847   33.6726 C   0  0  0  0  0  0  0  0  0  0  0  0
   -1.5074   -8.2330   33.7387 C   0  0  0  0  0  0  0  0  0  0  0  0
   -1.8398   -8.8773   32.5688 C   0  0  0  0  0  0  0  0  0  0  0  0
   -1.5375   -8.4008   31.3511 N   0  0  0  0  0  0  0  0  0  0  0  0
   -0.8652   -7.2221   31.3087 C   0  0  0  0  0  0  0  0  0  0  0  0
   -0.5297   -6.7574   29.6840 Cl  0  0  0  0  0  0  0  0  0  0  0  0
   -0.5533   -6.4421   32.4200 C   0  0  0  0  0  0  0  0  0  0  0  0
    0.0139   -4.8267   32.2013 Cl  0  0  0  0  0  0  0  0  0  0  0  0
  1  2  2  0
  2  3  1  0
  3  4  2  0
  4  5  1  0
  4  6  1  0
  6  7  2  0
  7  8  1  0
  7  9  1  0
  9 10  2  0
 10 11  1  0
 11 12  1  0
 12 13  2  0
 12 14  1  0
 14 15  2  0
 15 16  1  0
 16 17  2  0
 17 18  1  0
 18 19  1  0
 18 20  2  0
 20 21  1  0
 10  3  1  0
 20 14  1  0
M  END
>  <ref_mols>  (318) 
7gov-a

>  <gnina_score>  (318) 
5.102

>  <smina_score_min>  (318) 
-6.155

>  <ref_pdb>  (318) 
7gov-a

>  <inspiration_score>  (318) 
None

>  <inchikey>  (318) 
PXXUSSAXQZZNOH-UHFFFAOYSA-N

>  <tags>  (318) 
BulkDock Fragalysis export,openbind_d68ev3c_c2_elabs_scored,openbind_d68ev3c_c2_elabs_scored_4.5plus,openbind_d68ev3c_c2_elabs,openbind_d68ev3c_c2_elabs_scored_5plus,syndirella_product,openbind_d68ev3c_c2_elabs_scored_top80percent,syndirella_placed

>  <smiles>  (318) 
O=Cc1c(F)cc(F)cc1NC(=O)c1ccnc(Cl)c1Cl

>  <subsites>  (318) 
None

>  <rmsd(smina/fragmenstein)>  (318) 
1.192

>  <alias>  (318) 
None

>  <energy_score>  (318) 
-21.800731

>  <HIPPO Pose ID>  (318) 
65319

>  <distance_score>  (318) 
0.74991

>  <HIPPO Compound ID>  (318) 
102424

>  <gnina_score_min>  (318) 
5.1

>  <name>  (318) 
P65319

>  <exports>  (318) 
['/opt/xchem-fragalysis-2/maxwin/BulkDock/OUTPUTS/openbind_d68ev3c_c2_elabs_1LOTQJ3.sdf', '/opt/xchem-fragalysis-2/maxwin/BulkDock/OUTPUTS/openbind_d68ev3c_c2_elabs_1LSYEHW.sdf', '/opt/xchem-fragalysis-2/maxwin/BulkDock/OUTPUTS/openbind_d68ev3c_c2_elabs_1LSYI5W.sdf']

$$$$
P65320
     RDKit          3D

 21 22  0  0  0  0  0  0  0  0999 V2000
    3.5402   -0.7364   35.8632 C   0  0  0  0  0  0  0  0  0  0  0  0
    3.8230   -2.0000   36.6626 C   0  0  0  0  0  0  0  0  0  0  0  0
    2.5923   -2.8666   36.8113 C   0  0  0  0  0  0  0  0  0  0  0  0
    1.8694   -2.7595   38.0130 C   0  0  0  0  0  0  0  0  0  0  0  0
    0.7391   -3.5322   38.2268 C   0  0  0  0  0  0  0  0  0  0  0  0
    0.0765   -3.4268   39.3869 F   0  0  0  0  0  0  0  0  0  0  0  0
    0.2878   -4.4124   37.2599 C   0  0  0  0  0  0  0  0  0  0  0  0
    0.9872   -4.5423   36.0573 C   0  0  0  0  0  0  0  0  0  0  0  0
    0.5216   -5.4445   35.0961 N   0  0  0  0  0  0  0  0  0  0  0  0
   -0.7530   -6.3167   35.0729 C   0  0  0  0  0  0  0  0  0  0  0  0
   -1.5736   -6.4765   35.8853 O   0  0  0  0  0  0  0  0  0  0  0  0
   -0.9585   -7.0387   33.7672 C   0  0  0  0  0  0  0  0  0  0  0  0
   -0.3397   -6.6150   32.5872 C   0  0  0  0  0  0  0  0  0  0  0  0
    0.5109   -5.5787   32.5647 F   0  0  0  0  0  0  0  0  0  0  0  0
   -0.6263   -7.2507   31.3880 C   0  0  0  0  0  0  0  0  0  0  0  0
   -1.5019   -8.2726   31.2706 N   0  0  0  0  0  0  0  0  0  0  0  0
   -2.0755   -8.6872   32.4223 C   0  0  0  0  0  0  0  0  0  0  0  0
   -1.8557   -8.1149   33.6698 C   0  0  0  0  0  0  0  0  0  0  0  0
   -2.8082   -8.7654   34.9510 Cl  0  0  0  0  0  0  0  0  0  0  0  0
    2.1482   -3.7703   35.8127 C   0  0  0  0  0  0  0  0  0  0  0  0
    2.8958   -3.9480   34.5143 C   0  0  0  0  0  0  0  0  0  0  0  0
  1  2  1  0
  2  3  1  0
  3  4  2  0
  4  5  1  0
  5  6  1  0
  5  7  2  0
  7  8  1  0
  8  9  1  0
  9 10  1  0
 10 11  2  0
 10 12  1  0
 12 13  2  0
 13 14  1  0
 13 15  1  0
 15 16  2  0
 16 17  1  0
 17 18  2  0
 18 19  1  0
  8 20  2  0
 20 21  1  0
 20  3  1  0
 18 12  1  0
M  END
>  <ref_mols>  (319) 
7gov-a

>  <gnina_score>  (319) 
5.309

>  <smina_score_min>  (319) 
-5.669

>  <ref_pdb>  (319) 
7gov-a

>  <inspiration_score>  (319) 
None

>  <inchikey>  (319) 
HFTFENLZZDIMSR-UHFFFAOYSA-N

>  <tags>  (319) 
BulkDock Fragalysis export,openbind_d68ev3c_c2_elabs_scored,openbind_d68ev3c_c2_elabs_scored_4.5plus,openbind_d68ev3c_c2_elabs,openbind_d68ev3c_c2_elabs_scored_5plus,syndirella_product,openbind_d68ev3c_c2_elabs_scored_top80percent,syndirella_placed

>  <smiles>  (319) 
CCc1cc(F)cc(NC(=O)c2c(F)cncc2Cl)c1C

>  <subsites>  (319) 
None

>  <rmsd(smina/fragmenstein)>  (319) 
1.224

>  <alias>  (319) 
None

>  <energy_score>  (319) 
-25.18897

>  <HIPPO Pose ID>  (319) 
65320

>  <distance_score>  (319) 
0.794619

>  <HIPPO Compound ID>  (319) 
102427

>  <gnina_score_min>  (319) 
5.217

>  <name>  (319) 
P65320

>  <exports>  (319) 
['/opt/xchem-fragalysis-2/maxwin/BulkDock/OUTPUTS/openbind_d68ev3c_c2_elabs_1LOTQJ3.sdf', '/opt/xchem-fragalysis-2/maxwin/BulkDock/OUTPUTS/openbind_d68ev3c_c2_elabs_1LSYEHW.sdf', '/opt/xchem-fragalysis-2/maxwin/BulkDock/OUTPUTS/openbind_d68ev3c_c2_elabs_1LSYI5W.sdf']

$$$$
P65322
     RDKit          3D

 21 22  0  0  0  0  0  0  0  0999 V2000
    2.6724   -4.4620   33.6538 O   0  0  0  0  0  0  0  0  0  0  0  0
    3.0432   -3.8699   34.6608 C   0  0  0  0  0  0  0  0  0  0  0  0
    2.2151   -3.7741   35.8766 C   0  0  0  0  0  0  0  0  0  0  0  0
    2.6875   -2.9601   36.9101 C   0  0  0  0  0  0  0  0  0  0  0  0
    3.8301   -2.2704   36.7657 F   0  0  0  0  0  0  0  0  0  0  0  0
    1.9899   -2.8366   38.1057 C   0  0  0  0  0  0  0  0  0  0  0  0
    0.8044   -3.5358   38.2622 C   0  0  0  0  0  0  0  0  0  0  0  0
    0.1273   -3.4365   39.4136 F   0  0  0  0  0  0  0  0  0  0  0  0
    0.3022   -4.3350   37.2406 C   0  0  0  0  0  0  0  0  0  0  0  0
    1.0059   -4.4650   36.0363 C   0  0  0  0  0  0  0  0  0  0  0  0
    0.4752   -5.2621   35.0198 N   0  0  0  0  0  0  0  0  0  0  0  0
   -0.7321   -6.2284   35.0281 C   0  0  0  0  0  0  0  0  0  0  0  0
   -1.5166   -6.4502   35.8625 O   0  0  0  0  0  0  0  0  0  0  0  0
   -0.9386   -6.9609   33.7259 C   0  0  0  0  0  0  0  0  0  0  0  0
   -0.3658   -6.5192   32.5315 C   0  0  0  0  0  0  0  0  0  0  0  0
    0.4057   -5.4278   32.4777 F   0  0  0  0  0  0  0  0  0  0  0  0
   -0.6381   -7.1816   31.3426 C   0  0  0  0  0  0  0  0  0  0  0  0
   -1.4722   -8.2403   31.2445 N   0  0  0  0  0  0  0  0  0  0  0  0
   -2.0140   -8.6643   32.4068 C   0  0  0  0  0  0  0  0  0  0  0  0
   -1.7982   -8.0713   33.6461 C   0  0  0  0  0  0  0  0  0  0  0  0
   -2.7236   -8.7409   34.9379 Cl  0  0  0  0  0  0  0  0  0  0  0  0
  1  2  2  0
  2  3  1  0
  3  4  2  0
  4  5  1  0
  4  6  1  0
  6  7  2  0
  7  8  1  0
  7  9  1  0
  9 10  2  0
 10 11  1  0
 11 12  1  0
 12 13  2  0
 12 14  1  0
 14 15  2  0
 15 16  1  0
 15 17  1  0
 17 18  2  0
 18 19  1  0
 19 20  2  0
 20 21  1  0
 10  3  1  0
 20 14  1  0
M  END
>  <ref_mols>  (320) 
7gov-a

>  <gnina_score>  (320) 
5.155

>  <smina_score_min>  (320) 
-6.233

>  <ref_pdb>  (320) 
7gov-a

>  <inspiration_score>  (320) 
None

>  <inchikey>  (320) 
GWQPUVKOSQKHOB-UHFFFAOYSA-N

>  <tags>  (320) 
BulkDock Fragalysis export,openbind_d68ev3c_c2_elabs_scored,openbind_d68ev3c_c2_elabs_scored_4.5plus,openbind_d68ev3c_c2_elabs,openbind_d68ev3c_c2_elabs_scored_5plus,syndirella_product,openbind_d68ev3c_c2_elabs_scored_top80percent,syndirella_placed

>  <smiles>  (320) 
O=Cc1c(F)cc(F)cc1NC(=O)c1c(F)cncc1Cl

>  <subsites>  (320) 
None

>  <rmsd(smina/fragmenstein)>  (320) 
1.268

>  <alias>  (320) 
None

>  <energy_score>  (320) 
-35.642741

>  <HIPPO Pose ID>  (320) 
65322

>  <distance_score>  (320) 
0.782219

>  <HIPPO Compound ID>  (320) 
102429

>  <gnina_score_min>  (320) 
5.123

>  <name>  (320) 
P65322

>  <exports>  (320) 
['/opt/xchem-fragalysis-2/maxwin/BulkDock/OUTPUTS/openbind_d68ev3c_c2_elabs_1LOTQJ3.sdf', '/opt/xchem-fragalysis-2/maxwin/BulkDock/OUTPUTS/openbind_d68ev3c_c2_elabs_1LSYEHW.sdf', '/opt/xchem-fragalysis-2/maxwin/BulkDock/OUTPUTS/openbind_d68ev3c_c2_elabs_1LSYI5W.sdf']

$$$$
P65324
     RDKit          3D

 21 23  0  0  0  0  0  0  0  0999 V2000
   -1.4623   -6.5798   35.9493 O   0  0  0  0  0  0  0  0  0  0  0  0
   -0.7132   -6.3234   35.0940 C   0  0  0  0  0  0  0  0  0  0  0  0
    0.5010   -5.3700   35.0804 N   0  0  0  0  0  0  0  0  0  0  0  0
    0.9741   -4.4906   36.0555 C   0  0  0  0  0  0  0  0  0  0  0  0
    0.2960   -4.3852   37.2755 C   0  0  0  0  0  0  0  0  0  0  0  0
    0.7620   -3.5181   38.2510 C   0  0  0  0  0  0  0  0  0  0  0  0
    0.1214   -3.4382   39.4253 F   0  0  0  0  0  0  0  0  0  0  0  0
    1.8780   -2.7305   38.0255 C   0  0  0  0  0  0  0  0  0  0  0  0
    2.5445   -2.8225   36.8022 C   0  0  0  0  0  0  0  0  0  0  0  0
    2.1248   -3.7131   35.7926 C   0  0  0  0  0  0  0  0  0  0  0  0
    2.8799   -3.7849   34.4783 C   0  0  0  0  0  0  0  0  0  0  0  0
    4.3925   -3.8234   34.4564 C   0  0  0  0  0  0  0  0  0  0  0  0
    3.6152   -5.0513   34.1015 C   0  0  0  0  0  0  0  0  0  0  0  0
   -0.9415   -7.0244   33.7761 C   0  0  0  0  0  0  0  0  0  0  0  0
   -0.3244   -6.6002   32.5946 C   0  0  0  0  0  0  0  0  0  0  0  0
    0.5370   -5.5732   32.5706 F   0  0  0  0  0  0  0  0  0  0  0  0
   -0.6181   -7.2291   31.3925 C   0  0  0  0  0  0  0  0  0  0  0  0
   -1.4990   -8.2456   31.2707 N   0  0  0  0  0  0  0  0  0  0  0  0
   -2.0719   -8.6616   32.4216 C   0  0  0  0  0  0  0  0  0  0  0  0
   -1.8467   -8.0957   33.6719 C   0  0  0  0  0  0  0  0  0  0  0  0
   -2.8117   -8.7492   34.9439 Cl  0  0  0  0  0  0  0  0  0  0  0  0
  1  2  2  0
  2  3  1  0
  3  4  1  0
  4  5  2  0
  5  6  1  0
  6  7  1  0
  6  8  2  0
  8  9  1  0
  9 10  2  0
 10 11  1  0
 11 12  1  0
 12 13  1  0
  2 14  1  0
 14 15  2  0
 15 16  1  0
 15 17  1  0
 17 18  2  0
 18 19  1  0
 19 20  2  0
 20 21  1  0
 10  4  1  0
 13 11  1  0
 20 14  1  0
M  END
>  <ref_mols>  (321) 
7gov-a

>  <gnina_score>  (321) 
5.241

>  <smina_score_min>  (321) 
-5.732

>  <ref_pdb>  (321) 
7gov-a

>  <inspiration_score>  (321) 
None

>  <inchikey>  (321) 
DGUVNWWHURRIKN-UHFFFAOYSA-N

>  <tags>  (321) 
BulkDock Fragalysis export,openbind_d68ev3c_c2_elabs_scored,openbind_d68ev3c_c2_elabs_scored_4.5plus,openbind_d68ev3c_c2_elabs,openbind_d68ev3c_c2_elabs_scored_5plus,syndirella_product,openbind_d68ev3c_c2_elabs_scored_top80percent,syndirella_placed

>  <smiles>  (321) 
O=C(Nc1cc(F)ccc1C1CC1)c1c(F)cncc1Cl

>  <subsites>  (321) 
None

>  <rmsd(smina/fragmenstein)>  (321) 
1.144

>  <alias>  (321) 
None

>  <energy_score>  (321) 
-23.739616

>  <HIPPO Pose ID>  (321) 
65324

>  <distance_score>  (321) 
0.771405

>  <HIPPO Compound ID>  (321) 
102433

>  <gnina_score_min>  (321) 
5.199

>  <name>  (321) 
P65324

>  <exports>  (321) 
['/opt/xchem-fragalysis-2/maxwin/BulkDock/OUTPUTS/openbind_d68ev3c_c2_elabs_1LOTQJ3.sdf', '/opt/xchem-fragalysis-2/maxwin/BulkDock/OUTPUTS/openbind_d68ev3c_c2_elabs_1LSYEHW.sdf', '/opt/xchem-fragalysis-2/maxwin/BulkDock/OUTPUTS/openbind_d68ev3c_c2_elabs_1LSYI5W.sdf']

$$$$
P65327
     RDKit          3D

 21 22  0  0  0  0  0  0  0  0999 V2000
   -1.4153   -6.7370   36.0165 O   0  0  0  0  0  0  0  0  0  0  0  0
   -0.6975   -6.4234   35.1544 C   0  0  0  0  0  0  0  0  0  0  0  0
    0.4792   -5.4218   35.1461 N   0  0  0  0  0  0  0  0  0  0  0  0
    0.9433   -4.5514   36.1461 C   0  0  0  0  0  0  0  0  0  0  0  0
    2.1704   -3.8762   35.9784 C   0  0  0  0  0  0  0  0  0  0  0  0
    3.1298   -4.1394   34.8426 C   0  0  0  0  0  0  0  0  0  0  0  0
    4.4383   -4.4095   35.3459 O   0  0  0  0  0  0  0  0  0  0  0  0
    2.5774   -2.9359   36.9535 C   0  0  0  0  0  0  0  0  0  0  0  0
    1.8352   -2.7269   38.1115 C   0  0  0  0  0  0  0  0  0  0  0  0
    0.6617   -3.4366   38.2924 C   0  0  0  0  0  0  0  0  0  0  0  0
   -0.0426   -3.2592   39.4192 F   0  0  0  0  0  0  0  0  0  0  0  0
    0.2042   -4.3179   37.3194 C   0  0  0  0  0  0  0  0  0  0  0  0
   -0.9795   -4.9025   37.5385 F   0  0  0  0  0  0  0  0  0  0  0  0
   -0.9425   -7.0817   33.8166 C   0  0  0  0  0  0  0  0  0  0  0  0
   -0.3110   -6.6465   32.6464 C   0  0  0  0  0  0  0  0  0  0  0  0
    0.5747   -5.6393   32.6493 F   0  0  0  0  0  0  0  0  0  0  0  0
   -0.6111   -7.2438   31.4296 C   0  0  0  0  0  0  0  0  0  0  0  0
   -1.5103   -8.2406   31.2829 N   0  0  0  0  0  0  0  0  0  0  0  0
   -2.0997   -8.6661   32.4220 C   0  0  0  0  0  0  0  0  0  0  0  0
   -1.8720   -8.1294   33.6847 C   0  0  0  0  0  0  0  0  0  0  0  0
   -2.8704   -8.7809   34.9329 Cl  0  0  0  0  0  0  0  0  0  0  0  0
  1  2  2  0
  2  3  1  0
  3  4  1  0
  4  5  2  0
  5  6  1  0
  6  7  1  0
  5  8  1  0
  8  9  2  0
  9 10  1  0
 10 11  1  0
 10 12  2  0
 12 13  1  0
  2 14  1  0
 14 15  2  0
 15 16  1  0
 15 17  1  0
 17 18  2  0
 18 19  1  0
 19 20  2  0
 20 21  1  0
 12  4  1  0
 20 14  1  0
M  END
>  <ref_mols>  (322) 
7gov-a

>  <gnina_score>  (322) 
5.132

>  <smina_score_min>  (322) 
-5.507

>  <ref_pdb>  (322) 
7gov-a

>  <inspiration_score>  (322) 
None

>  <inchikey>  (322) 
BHRDDSCHSZLPJQ-UHFFFAOYSA-N

>  <tags>  (322) 
BulkDock Fragalysis export,openbind_d68ev3c_c2_elabs_scored,openbind_d68ev3c_c2_elabs_scored_4.5plus,openbind_d68ev3c_c2_elabs,openbind_d68ev3c_c2_elabs_scored_5plus,syndirella_product,openbind_d68ev3c_c2_elabs_scored_top80percent,syndirella_placed

>  <smiles>  (322) 
O=C(Nc1c(CO)ccc(F)c1F)c1c(F)cncc1Cl

>  <subsites>  (322) 
None

>  <rmsd(smina/fragmenstein)>  (322) 
0.647

>  <alias>  (322) 
None

>  <energy_score>  (322) 
-15.41362

>  <HIPPO Pose ID>  (322) 
65327

>  <distance_score>  (322) 
0.768695

>  <HIPPO Compound ID>  (322) 
102438

>  <gnina_score_min>  (322) 
5.058

>  <name>  (322) 
P65327

>  <exports>  (322) 
['/opt/xchem-fragalysis-2/maxwin/BulkDock/OUTPUTS/openbind_d68ev3c_c2_elabs_1LOTQJ3.sdf', '/opt/xchem-fragalysis-2/maxwin/BulkDock/OUTPUTS/openbind_d68ev3c_c2_elabs_1LSYEHW.sdf', '/opt/xchem-fragalysis-2/maxwin/BulkDock/OUTPUTS/openbind_d68ev3c_c2_elabs_1LSYI5W.sdf']

$$$$
P65328
     RDKit          3D

 21 22  0  0  0  0  0  0  0  0999 V2000
    1.8869   -1.7110   40.1506 C   0  0  0  0  0  0  0  0  0  0  0  0
    2.4876   -1.8433   38.8690 O   0  0  0  0  0  0  0  0  0  0  0  0
    1.9227   -2.7535   38.0153 C   0  0  0  0  0  0  0  0  0  0  0  0
    2.5940   -2.8892   36.7947 C   0  0  0  0  0  0  0  0  0  0  0  0
    2.1550   -3.7901   35.8069 C   0  0  0  0  0  0  0  0  0  0  0  0
    2.9452   -3.9232   34.5359 C   0  0  0  0  0  0  0  0  0  0  0  0
    1.0032   -4.5515   36.0529 C   0  0  0  0  0  0  0  0  0  0  0  0
    0.5332   -5.4490   35.0943 N   0  0  0  0  0  0  0  0  0  0  0  0
   -0.7451   -6.3153   35.0728 C   0  0  0  0  0  0  0  0  0  0  0  0
   -1.5652   -6.4716   35.8864 O   0  0  0  0  0  0  0  0  0  0  0  0
   -0.9547   -7.0366   33.7671 C   0  0  0  0  0  0  0  0  0  0  0  0
   -0.3371   -6.6133   32.5863 C   0  0  0  0  0  0  0  0  0  0  0  0
    0.5146   -5.5780   32.5631 F   0  0  0  0  0  0  0  0  0  0  0  0
   -0.6259   -7.2487   31.3874 C   0  0  0  0  0  0  0  0  0  0  0  0
   -1.5028   -8.2697   31.2713 N   0  0  0  0  0  0  0  0  0  0  0  0
   -2.0755   -8.6837   32.4237 C   0  0  0  0  0  0  0  0  0  0  0  0
   -1.8533   -8.1116   33.6708 C   0  0  0  0  0  0  0  0  0  0  0  0
   -2.8044   -8.7608   34.9536 Cl  0  0  0  0  0  0  0  0  0  0  0  0
    0.3201   -4.4082   37.2630 C   0  0  0  0  0  0  0  0  0  0  0  0
    0.7843   -3.5263   38.2353 C   0  0  0  0  0  0  0  0  0  0  0  0
    0.0925   -3.4521   39.3826 F   0  0  0  0  0  0  0  0  0  0  0  0
  1  2  1  0
  2  3  1  0
  3  4  2  0
  4  5  1  0
  5  6  1  0
  5  7  2  0
  7  8  1  0
  8  9  1  0
  9 10  2  0
  9 11  1  0
 11 12  2  0
 12 13  1  0
 12 14  1  0
 14 15  2  0
 15 16  1  0
 16 17  2  0
 17 18  1  0
  7 19  1  0
 19 20  2  0
 20 21  1  0
 20  3  1  0
 17 11  1  0
M  END
>  <ref_mols>  (323) 
7gov-a

>  <gnina_score>  (323) 
5.091

>  <smina_score_min>  (323) 
-5.673

>  <ref_pdb>  (323) 
7gov-a

>  <inspiration_score>  (323) 
None

>  <inchikey>  (323) 
DGRURLXTTBVLNX-UHFFFAOYSA-N

>  <tags>  (323) 
BulkDock Fragalysis export,openbind_d68ev3c_c2_elabs_scored,openbind_d68ev3c_c2_elabs_scored_4.5plus,openbind_d68ev3c_c2_elabs,openbind_d68ev3c_c2_elabs_scored_5plus,syndirella_product,openbind_d68ev3c_c2_elabs_scored_top80percent,syndirella_placed

>  <smiles>  (323) 
COc1cc(C)c(NC(=O)c2c(F)cncc2Cl)cc1F

>  <subsites>  (323) 
None

>  <rmsd(smina/fragmenstein)>  (323) 
1.263

>  <alias>  (323) 
None

>  <energy_score>  (323) 
-25.979807

>  <HIPPO Pose ID>  (323) 
65328

>  <distance_score>  (323) 
0.794217

>  <HIPPO Compound ID>  (323) 
102440

>  <gnina_score_min>  (323) 
5.07

>  <name>  (323) 
P65328

>  <exports>  (323) 
['/opt/xchem-fragalysis-2/maxwin/BulkDock/OUTPUTS/openbind_d68ev3c_c2_elabs_1LOTQJ3.sdf', '/opt/xchem-fragalysis-2/maxwin/BulkDock/OUTPUTS/openbind_d68ev3c_c2_elabs_1LSYEHW.sdf', '/opt/xchem-fragalysis-2/maxwin/BulkDock/OUTPUTS/openbind_d68ev3c_c2_elabs_1LSYI5W.sdf']

$$$$
P65329
     RDKit          3D

 21 22  0  0  0  0  0  0  0  0999 V2000
    2.9478   -3.9735   34.5316 C   0  0  0  0  0  0  0  0  0  0  0  0
    2.1862   -3.8060   35.8232 C   0  0  0  0  0  0  0  0  0  0  0  0
    2.6764   -2.9880   36.8681 C   0  0  0  0  0  0  0  0  0  0  0  0
    3.9164   -2.2712   36.7596 C   0  0  0  0  0  0  0  0  0  0  0  0
    4.9093   -1.6733   36.6827 N   0  0  0  0  0  0  0  0  0  0  0  0
    1.9663   -2.8662   38.0699 C   0  0  0  0  0  0  0  0  0  0  0  0
    0.7789   -3.5570   38.2389 C   0  0  0  0  0  0  0  0  0  0  0  0
    0.1105   -3.4478   39.3946 F   0  0  0  0  0  0  0  0  0  0  0  0
    0.2747   -4.3621   37.2308 C   0  0  0  0  0  0  0  0  0  0  0  0
    0.9750   -4.4996   36.0278 C   0  0  0  0  0  0  0  0  0  0  0  0
    0.4481   -5.3195   35.0277 N   0  0  0  0  0  0  0  0  0  0  0  0
   -0.7532   -6.2897   35.0556 C   0  0  0  0  0  0  0  0  0  0  0  0
   -1.5361   -6.4981   35.8935 O   0  0  0  0  0  0  0  0  0  0  0  0
   -0.9556   -7.0264   33.7541 C   0  0  0  0  0  0  0  0  0  0  0  0
   -0.3345   -6.6158   32.5697 C   0  0  0  0  0  0  0  0  0  0  0  0
    0.5262   -5.5881   32.5368 F   0  0  0  0  0  0  0  0  0  0  0  0
   -0.6231   -7.2600   31.3754 C   0  0  0  0  0  0  0  0  0  0  0  0
   -1.5004   -8.2807   31.2665 N   0  0  0  0  0  0  0  0  0  0  0  0
   -2.0724   -8.6873   32.4214 C   0  0  0  0  0  0  0  0  0  0  0  0
   -1.8516   -8.1056   33.6646 C   0  0  0  0  0  0  0  0  0  0  0  0
   -2.8052   -8.7507   34.9484 Cl  0  0  0  0  0  0  0  0  0  0  0  0
  1  2  1  0
  2  3  2  0
  3  4  1  0
  4  5  3  0
  3  6  1  0
  6  7  2  0
  7  8  1  0
  7  9  1  0
  9 10  2  0
 10 11  1  0
 11 12  1  0
 12 13  2  0
 12 14  1  0
 14 15  2  0
 15 16  1  0
 15 17  1  0
 17 18  2  0
 18 19  1  0
 19 20  2  0
 20 21  1  0
 10  2  1  0
 20 14  1  0
M  END
>  <ref_mols>  (324) 
7gov-a

>  <gnina_score>  (324) 
5.246

>  <smina_score_min>  (324) 
-5.755

>  <ref_pdb>  (324) 
7gov-a

>  <inspiration_score>  (324) 
None

>  <inchikey>  (324) 
FDKRUNZHWSKXSN-UHFFFAOYSA-N

>  <tags>  (324) 
BulkDock Fragalysis export,openbind_d68ev3c_c2_elabs_scored,openbind_d68ev3c_c2_elabs_scored_4.5plus,openbind_d68ev3c_c2_elabs,openbind_d68ev3c_c2_elabs_scored_5plus,syndirella_product,openbind_d68ev3c_c2_elabs_scored_top80percent,syndirella_placed

>  <smiles>  (324) 
Cc1c(C#N)cc(F)cc1NC(=O)c1c(F)cncc1Cl

>  <subsites>  (324) 
None

>  <rmsd(smina/fragmenstein)>  (324) 
1.254

>  <alias>  (324) 
None

>  <energy_score>  (324) 
-12.47883

>  <HIPPO Pose ID>  (324) 
65329

>  <distance_score>  (324) 
0.776006

>  <HIPPO Compound ID>  (324) 
102441

>  <gnina_score_min>  (324) 
5.104

>  <name>  (324) 
P65329

>  <exports>  (324) 
['/opt/xchem-fragalysis-2/maxwin/BulkDock/OUTPUTS/openbind_d68ev3c_c2_elabs_1LOTQJ3.sdf', '/opt/xchem-fragalysis-2/maxwin/BulkDock/OUTPUTS/openbind_d68ev3c_c2_elabs_1LSYEHW.sdf', '/opt/xchem-fragalysis-2/maxwin/BulkDock/OUTPUTS/openbind_d68ev3c_c2_elabs_1LSYI5W.sdf']

$$$$
P65334
     RDKit          3D

 21 22  0  0  0  0  0  0  0  0999 V2000
    3.2260   -3.6547   33.4810 N   0  0  0  0  0  0  0  0  0  0  0  0
    2.7165   -3.6683   34.5242 C   0  0  0  0  0  0  0  0  0  0  0  0
    2.0568   -3.6490   35.7985 C   0  0  0  0  0  0  0  0  0  0  0  0
    2.5849   -2.8251   36.8084 C   0  0  0  0  0  0  0  0  0  0  0  0
    1.9959   -2.7872   38.0728 C   0  0  0  0  0  0  0  0  0  0  0  0
    0.8783   -3.5697   38.3253 C   0  0  0  0  0  0  0  0  0  0  0  0
    0.2978   -3.5152   39.5323 F   0  0  0  0  0  0  0  0  0  0  0  0
    0.3459   -4.3877   37.3352 C   0  0  0  0  0  0  0  0  0  0  0  0
   -0.7763   -5.0612   37.6214 F   0  0  0  0  0  0  0  0  0  0  0  0
    0.9279   -4.4457   36.0591 C   0  0  0  0  0  0  0  0  0  0  0  0
    0.3756   -5.2572   35.0558 N   0  0  0  0  0  0  0  0  0  0  0  0
   -0.4997   -6.5264   35.1602 C   0  0  0  0  0  0  0  0  0  0  0  0
   -0.9613   -7.0502   36.0932 O   0  0  0  0  0  0  0  0  0  0  0  0
   -0.8594   -7.1219   33.8171 C   0  0  0  0  0  0  0  0  0  0  0  0
   -0.2411   -6.7137   32.6308 C   0  0  0  0  0  0  0  0  0  0  0  0
    0.6919   -5.7520   32.6135 F   0  0  0  0  0  0  0  0  0  0  0  0
   -0.6048   -7.2861   31.4197 C   0  0  0  0  0  0  0  0  0  0  0  0
   -1.5549   -8.2374   31.2942 N   0  0  0  0  0  0  0  0  0  0  0  0
   -2.1372   -8.6347   32.4472 C   0  0  0  0  0  0  0  0  0  0  0  0
   -1.8497   -8.1144   33.7055 C   0  0  0  0  0  0  0  0  0  0  0  0
   -2.8742   -8.6872   34.9721 Cl  0  0  0  0  0  0  0  0  0  0  0  0
  1  2  3  0
  2  3  1  0
  3  4  2  0
  4  5  1  0
  5  6  2  0
  6  7  1  0
  6  8  1  0
  8  9  1  0
  8 10  2  0
 10 11  1  0
 11 12  1  0
 12 13  2  0
 12 14  1  0
 14 15  2  0
 15 16  1  0
 15 17  1  0
 17 18  2  0
 18 19  1  0
 19 20  2  0
 20 21  1  0
 10  3  1  0
 20 14  1  0
M  END
>  <ref_mols>  (325) 
7gov-a

>  <gnina_score>  (325) 
5.229

>  <smina_score_min>  (325) 
-5.561

>  <ref_pdb>  (325) 
7gov-a

>  <inspiration_score>  (325) 
None

>  <inchikey>  (325) 
UXTPYOKVOIRRKD-UHFFFAOYSA-N

>  <tags>  (325) 
BulkDock Fragalysis export,openbind_d68ev3c_c2_elabs_scored,openbind_d68ev3c_c2_elabs_scored_4.5plus,openbind_d68ev3c_c2_elabs,openbind_d68ev3c_c2_elabs_scored_5plus,syndirella_product,openbind_d68ev3c_c2_elabs_scored_top80percent,syndirella_placed

>  <smiles>  (325) 
N#Cc1ccc(F)c(F)c1NC(=O)c1c(F)cncc1Cl

>  <subsites>  (325) 
None

>  <rmsd(smina/fragmenstein)>  (325) 
0.828

>  <alias>  (325) 
None

>  <energy_score>  (325) 
-8.835469

>  <HIPPO Pose ID>  (325) 
65334

>  <distance_score>  (325) 
0.650943

>  <HIPPO Compound ID>  (325) 
102450

>  <gnina_score_min>  (325) 
5.161

>  <name>  (325) 
P65334

>  <exports>  (325) 
['/opt/xchem-fragalysis-2/maxwin/BulkDock/OUTPUTS/openbind_d68ev3c_c2_elabs_1LOTQJ3.sdf', '/opt/xchem-fragalysis-2/maxwin/BulkDock/OUTPUTS/openbind_d68ev3c_c2_elabs_1LSYEHW.sdf', '/opt/xchem-fragalysis-2/maxwin/BulkDock/OUTPUTS/openbind_d68ev3c_c2_elabs_1LSYI5W.sdf']

$$$$
P65335
     RDKit          3D

 21 22  0  0  0  0  0  0  0  0999 V2000
    2.4145   -1.9018   39.1831 C   0  0  0  0  0  0  0  0  0  0  0  0
    1.9529   -2.7881   38.0614 C   0  0  0  0  0  0  0  0  0  0  0  0
    0.7973   -3.5476   38.2371 C   0  0  0  0  0  0  0  0  0  0  0  0
    0.1162   -3.4799   39.3914 F   0  0  0  0  0  0  0  0  0  0  0  0
    0.3093   -4.3725   37.2359 C   0  0  0  0  0  0  0  0  0  0  0  0
    0.9941   -4.4894   36.0259 C   0  0  0  0  0  0  0  0  0  0  0  0
    0.4547   -5.3033   35.0249 N   0  0  0  0  0  0  0  0  0  0  0  0
   -0.7295   -6.2945   35.0674 C   0  0  0  0  0  0  0  0  0  0  0  0
   -1.4871   -6.5296   35.9216 O   0  0  0  0  0  0  0  0  0  0  0  0
   -0.9474   -7.0211   33.7609 C   0  0  0  0  0  0  0  0  0  0  0  0
   -0.3290   -6.6116   32.5743 C   0  0  0  0  0  0  0  0  0  0  0  0
    0.5354   -5.5871   32.5382 F   0  0  0  0  0  0  0  0  0  0  0  0
   -0.6232   -7.2533   31.3796 C   0  0  0  0  0  0  0  0  0  0  0  0
   -1.5040   -8.2709   31.2707 N   0  0  0  0  0  0  0  0  0  0  0  0
   -2.0745   -8.6759   32.4267 C   0  0  0  0  0  0  0  0  0  0  0  0
   -1.8485   -8.0965   33.6706 C   0  0  0  0  0  0  0  0  0  0  0  0
   -2.8059   -8.7401   34.9528 Cl  0  0  0  0  0  0  0  0  0  0  0  0
    2.1887   -3.7696   35.8106 C   0  0  0  0  0  0  0  0  0  0  0  0
    2.9329   -3.9297   34.5077 C   0  0  0  0  0  0  0  0  0  0  0  0
    2.6370   -2.8922   36.8316 C   0  0  0  0  0  0  0  0  0  0  0  0
    4.1847   -1.7933   36.5569 Br  0  0  0  0  0  0  0  0  0  0  0  0
  1  2  1  0
  2  3  2  0
  3  4  1  0
  3  5  1  0
  5  6  2  0
  6  7  1  0
  7  8  1  0
  8  9  2  0
  8 10  1  0
 10 11  2  0
 11 12  1  0
 11 13  1  0
 13 14  2  0
 14 15  1  0
 15 16  2  0
 16 17  1  0
  6 18  1  0
 18 19  1  0
 18 20  2  0
 20 21  1  0
 20  2  1  0
 16 10  1  0
M  END
>  <ref_mols>  (326) 
7gov-a

>  <gnina_score>  (326) 
5.353

>  <smina_score_min>  (326) 
-6.059

>  <ref_pdb>  (326) 
7gov-a

>  <inspiration_score>  (326) 
None

>  <inchikey>  (326) 
GMCOFUIPKGLKLI-UHFFFAOYSA-N

>  <tags>  (326) 
BulkDock Fragalysis export,openbind_d68ev3c_c2_elabs_scored,openbind_d68ev3c_c2_elabs_scored_4.5plus,openbind_d68ev3c_c2_elabs,openbind_d68ev3c_c2_elabs_scored_5plus,syndirella_product,openbind_d68ev3c_c2_elabs_scored_top80percent,syndirella_placed

>  <smiles>  (326) 
Cc1c(F)cc(NC(=O)c2c(F)cncc2Cl)c(C)c1Br

>  <subsites>  (326) 
None

>  <rmsd(smina/fragmenstein)>  (326) 
1.241

>  <alias>  (326) 
None

>  <energy_score>  (326) 
-31.967181

>  <HIPPO Pose ID>  (326) 
65335

>  <distance_score>  (326) 
0.769064

>  <HIPPO Compound ID>  (326) 
102451

>  <gnina_score_min>  (326) 
5.272

>  <name>  (326) 
P65335

>  <exports>  (326) 
['/opt/xchem-fragalysis-2/maxwin/BulkDock/OUTPUTS/openbind_d68ev3c_c2_elabs_1LOTQJ3.sdf', '/opt/xchem-fragalysis-2/maxwin/BulkDock/OUTPUTS/openbind_d68ev3c_c2_elabs_1LSYEHW.sdf', '/opt/xchem-fragalysis-2/maxwin/BulkDock/OUTPUTS/openbind_d68ev3c_c2_elabs_1LSYI5W.sdf']

$$$$
P65336
     RDKit          3D

 21 22  0  0  0  0  0  0  0  0999 V2000
    3.2970   -3.4871   33.1373 N   0  0  0  0  0  0  0  0  0  0  0  0
    2.8464   -3.5133   34.2073 C   0  0  0  0  0  0  0  0  0  0  0  0
    2.2666   -3.4869   35.5188 C   0  0  0  0  0  0  0  0  0  0  0  0
    2.8720   -2.6801   36.4983 C   0  0  0  0  0  0  0  0  0  0  0  0
    2.3709   -2.6445   37.7986 C   0  0  0  0  0  0  0  0  0  0  0  0
    1.2647   -3.4145   38.1201 C   0  0  0  0  0  0  0  0  0  0  0  0
    0.7619   -3.3319   39.3635 F   0  0  0  0  0  0  0  0  0  0  0  0
    0.6566   -4.2268   37.1606 C   0  0  0  0  0  0  0  0  0  0  0  0
   -0.9425   -5.0657   37.6993 Br  0  0  0  0  0  0  0  0  0  0  0  0
    1.1542   -4.2788   35.8439 C   0  0  0  0  0  0  0  0  0  0  0  0
    0.5460   -5.0713   34.8555 N   0  0  0  0  0  0  0  0  0  0  0  0
    0.1134   -6.5535   34.8843 C   0  0  0  0  0  0  0  0  0  0  0  0
    0.1239   -7.3269   35.7570 O   0  0  0  0  0  0  0  0  0  0  0  0
   -0.5012   -7.0127   33.6051 C   0  0  0  0  0  0  0  0  0  0  0  0
   -0.0037   -6.6008   32.3737 C   0  0  0  0  0  0  0  0  0  0  0  0
    0.9653   -5.6803   32.2836 F   0  0  0  0  0  0  0  0  0  0  0  0
   -0.5418   -7.1352   31.2123 C   0  0  0  0  0  0  0  0  0  0  0  0
   -1.5557   -8.0346   31.1921 N   0  0  0  0  0  0  0  0  0  0  0  0
   -2.0344   -8.4089   32.4011 C   0  0  0  0  0  0  0  0  0  0  0  0
   -1.5674   -7.9224   33.6144 C   0  0  0  0  0  0  0  0  0  0  0  0
   -2.4568   -8.3880   35.0124 Cl  0  0  0  0  0  0  0  0  0  0  0  0
  1  2  3  0
  2  3  1  0
  3  4  2  0
  4  5  1  0
  5  6  2  0
  6  7  1  0
  6  8  1  0
  8  9  1  0
  8 10  2  0
 10 11  1  0
 11 12  1  0
 12 13  2  0
 12 14  1  0
 14 15  2  0
 15 16  1  0
 15 17  1  0
 17 18  2  0
 18 19  1  0
 19 20  2  0
 20 21  1  0
 10  3  1  0
 20 14  1  0
M  END
>  <ref_mols>  (327) 
7gov-a

>  <gnina_score>  (327) 
5.297

>  <smina_score_min>  (327) 
-4.973

>  <ref_pdb>  (327) 
7gov-a

>  <inspiration_score>  (327) 
None

>  <inchikey>  (327) 
RBHBYPFQPFENCU-UHFFFAOYSA-N

>  <tags>  (327) 
BulkDock Fragalysis export,openbind_d68ev3c_c2_elabs_scored,openbind_d68ev3c_c2_elabs_scored_4.5plus,openbind_d68ev3c_c2_elabs,openbind_d68ev3c_c2_elabs_scored_5plus,syndirella_product,openbind_d68ev3c_c2_elabs_scored_top80percent,syndirella_placed

>  <smiles>  (327) 
N#Cc1ccc(F)c(Br)c1NC(=O)c1c(F)cncc1Cl

>  <subsites>  (327) 
None

>  <rmsd(smina/fragmenstein)>  (327) 
0.405

>  <alias>  (327) 
None

>  <energy_score>  (327) 
-3.15458

>  <HIPPO Pose ID>  (327) 
65336

>  <distance_score>  (327) 
0.577584

>  <HIPPO Compound ID>  (327) 
102453

>  <gnina_score_min>  (327) 
5.19

>  <name>  (327) 
P65336

>  <exports>  (327) 
['/opt/xchem-fragalysis-2/maxwin/BulkDock/OUTPUTS/openbind_d68ev3c_c2_elabs_1LOTQJ3.sdf', '/opt/xchem-fragalysis-2/maxwin/BulkDock/OUTPUTS/openbind_d68ev3c_c2_elabs_1LSYEHW.sdf', '/opt/xchem-fragalysis-2/maxwin/BulkDock/OUTPUTS/openbind_d68ev3c_c2_elabs_1LSYI5W.sdf']

$$$$
P65337
     RDKit          3D

 21 22  0  0  0  0  0  0  0  0999 V2000
    2.2463   -1.6751   39.5800 C   0  0  0  0  0  0  0  0  0  0  0  0
    1.9822   -2.5123   38.3601 C   0  0  0  0  0  0  0  0  0  0  0  0
    0.9794   -3.4807   38.4158 C   0  0  0  0  0  0  0  0  0  0  0  0
    0.2583   -3.6439   39.5355 F   0  0  0  0  0  0  0  0  0  0  0  0
    0.6836   -4.2768   37.3243 C   0  0  0  0  0  0  0  0  0  0  0  0
    1.3985   -4.1186   36.1375 C   0  0  0  0  0  0  0  0  0  0  0  0
    1.0386   -4.8971   35.0463 N   0  0  0  0  0  0  0  0  0  0  0  0
    0.3171   -6.2474   34.9807 C   0  0  0  0  0  0  0  0  0  0  0  0
   -0.0250   -6.9640   35.8346 O   0  0  0  0  0  0  0  0  0  0  0  0
   -0.0907   -6.6422   33.5902 C   0  0  0  0  0  0  0  0  0  0  0  0
   -1.1008   -7.6063   33.5865 C   0  0  0  0  0  0  0  0  0  0  0  0
   -1.6333   -8.0123   32.3898 C   0  0  0  0  0  0  0  0  0  0  0  0
   -3.0486   -9.2001   32.4731 Br  0  0  0  0  0  0  0  0  0  0  0  0
   -1.2470   -7.5714   31.1852 N   0  0  0  0  0  0  0  0  0  0  0  0
   -0.2408   -6.6715   31.2001 C   0  0  0  0  0  0  0  0  0  0  0  0
    0.3553   -6.1623   32.3553 C   0  0  0  0  0  0  0  0  0  0  0  0
    1.5934   -4.9884   32.1246 Cl  0  0  0  0  0  0  0  0  0  0  0  0
    2.4356   -3.1792   36.0327 C   0  0  0  0  0  0  0  0  0  0  0  0
    3.2333   -3.1112   34.7559 C   0  0  0  0  0  0  0  0  0  0  0  0
    2.7048   -2.3633   37.1553 C   0  0  0  0  0  0  0  0  0  0  0  0
    4.0519   -1.0042   37.0596 Br  0  0  0  0  0  0  0  0  0  0  0  0
  1  2  1  0
  2  3  2  0
  3  4  1  0
  3  5  1  0
  5  6  2  0
  6  7  1  0
  7  8  1  0
  8  9  2  0
  8 10  1  0
 10 11  2  0
 11 12  1  0
 12 13  1  0
 12 14  2  0
 14 15  1  0
 15 16  2  0
 16 17  1  0
  6 18  1  0
 18 19  1  0
 18 20  2  0
 20 21  1  0
 20  2  1  0
 16 10  1  0
M  END
>  <ref_mols>  (328) 
7gov-a

>  <gnina_score>  (328) 
5.211

>  <smina_score_min>  (328) 
-4.874

>  <ref_pdb>  (328) 
7gov-a

>  <inspiration_score>  (328) 
None

>  <inchikey>  (328) 
GKVQUIFVHKUENP-UHFFFAOYSA-N

>  <tags>  (328) 
BulkDock Fragalysis export,openbind_d68ev3c_c2_elabs_scored,openbind_d68ev3c_c2_elabs_scored_4.5plus,openbind_d68ev3c_c2_elabs,openbind_d68ev3c_c2_elabs_scored_5plus,syndirella_product,openbind_d68ev3c_c2_elabs_scored_top80percent,syndirella_placed

>  <smiles>  (328) 
Cc1c(F)cc(NC(=O)c2cc(Br)ncc2Cl)c(C)c1Br

>  <subsites>  (328) 
None

>  <rmsd(smina/fragmenstein)>  (328) 
0.855

>  <alias>  (328) 
None

>  <energy_score>  (328) 
-14.346492

>  <HIPPO Pose ID>  (328) 
65337

>  <distance_score>  (328) 
0.808639

>  <HIPPO Compound ID>  (328) 
102456

>  <gnina_score_min>  (328) 
5.139

>  <name>  (328) 
P65337

>  <exports>  (328) 
['/opt/xchem-fragalysis-2/maxwin/BulkDock/OUTPUTS/openbind_d68ev3c_c2_elabs_1LOTQJ3.sdf', '/opt/xchem-fragalysis-2/maxwin/BulkDock/OUTPUTS/openbind_d68ev3c_c2_elabs_1LSYEHW.sdf', '/opt/xchem-fragalysis-2/maxwin/BulkDock/OUTPUTS/openbind_d68ev3c_c2_elabs_1LSYI5W.sdf']

$$$$
P65338
     RDKit          3D

 21 22  0  0  0  0  0  0  0  0999 V2000
    3.3992   -3.4399   34.9699 C   0  0  0  0  0  0  0  0  0  0  0  0
    2.5439   -3.3839   36.2112 C   0  0  0  0  0  0  0  0  0  0  0  0
    2.9008   -2.5890   37.3209 C   0  0  0  0  0  0  0  0  0  0  0  0
    4.0877   -1.7811   37.3273 C   0  0  0  0  0  0  0  0  0  0  0  0
    5.0427   -1.1208   37.3458 N   0  0  0  0  0  0  0  0  0  0  0  0
    2.1070   -2.5805   38.4768 C   0  0  0  0  0  0  0  0  0  0  0  0
    0.9610   -3.3551   38.5320 C   0  0  0  0  0  0  0  0  0  0  0  0
    0.2104   -3.3554   39.6408 F   0  0  0  0  0  0  0  0  0  0  0  0
    0.5789   -4.1285   37.4535 C   0  0  0  0  0  0  0  0  0  0  0  0
    1.3645   -4.1437   36.2976 C   0  0  0  0  0  0  0  0  0  0  0  0
    0.9637   -4.9269   35.2238 N   0  0  0  0  0  0  0  0  0  0  0  0
   -0.2480   -5.8512   35.0625 C   0  0  0  0  0  0  0  0  0  0  0  0
   -1.0662   -6.1662   35.8311 O   0  0  0  0  0  0  0  0  0  0  0  0
   -0.3789   -6.4162   33.6810 C   0  0  0  0  0  0  0  0  0  0  0  0
   -1.2202   -7.5236   33.6369 C   0  0  0  0  0  0  0  0  0  0  0  0
   -1.5895   -8.0173   32.4134 C   0  0  0  0  0  0  0  0  0  0  0  0
   -2.9329   -9.2804   32.4159 Br  0  0  0  0  0  0  0  0  0  0  0  0
   -1.1437   -7.5756   31.2300 N   0  0  0  0  0  0  0  0  0  0  0  0
   -0.2582   -6.5618   31.2930 C   0  0  0  0  0  0  0  0  0  0  0  0
    0.1312   -5.9282   32.4728 C   0  0  0  0  0  0  0  0  0  0  0  0
    1.1490   -4.5513   32.3017 Cl  0  0  0  0  0  0  0  0  0  0  0  0
  1  2  1  0
  2  3  2  0
  3  4  1  0
  4  5  3  0
  3  6  1  0
  6  7  2  0
  7  8  1  0
  7  9  1  0
  9 10  2  0
 10 11  1  0
 11 12  1  0
 12 13  2  0
 12 14  1  0
 14 15  2  0
 15 16  1  0
 16 17  1  0
 16 18  2  0
 18 19  1  0
 19 20  2  0
 20 21  1  0
 10  2  1  0
 20 14  1  0
M  END
>  <ref_mols>  (329) 
7gov-a

>  <gnina_score>  (329) 
5.134

>  <smina_score_min>  (329) 
-4.532

>  <ref_pdb>  (329) 
7gov-a

>  <inspiration_score>  (329) 
None

>  <inchikey>  (329) 
PPJDAUXEBQNZAL-UHFFFAOYSA-N

>  <tags>  (329) 
BulkDock Fragalysis export,openbind_d68ev3c_c2_elabs_scored,openbind_d68ev3c_c2_elabs_scored_4.5plus,openbind_d68ev3c_c2_elabs,openbind_d68ev3c_c2_elabs_scored_5plus,syndirella_product,openbind_d68ev3c_c2_elabs_scored_top80percent,syndirella_placed

>  <smiles>  (329) 
Cc1c(C#N)cc(F)cc1NC(=O)c1cc(Br)ncc1Cl

>  <subsites>  (329) 
None

>  <rmsd(smina/fragmenstein)>  (329) 
1.387

>  <alias>  (329) 
None

>  <energy_score>  (329) 
-15.519456

>  <HIPPO Pose ID>  (329) 
65338

>  <distance_score>  (329) 
0.992178

>  <HIPPO Compound ID>  (329) 
102457

>  <gnina_score_min>  (329) 
5.009

>  <name>  (329) 
P65338

>  <exports>  (329) 
['/opt/xchem-fragalysis-2/maxwin/BulkDock/OUTPUTS/openbind_d68ev3c_c2_elabs_1LOTQJ3.sdf', '/opt/xchem-fragalysis-2/maxwin/BulkDock/OUTPUTS/openbind_d68ev3c_c2_elabs_1LSYEHW.sdf', '/opt/xchem-fragalysis-2/maxwin/BulkDock/OUTPUTS/openbind_d68ev3c_c2_elabs_1LSYI5W.sdf']

$$$$
P65339
     RDKit          3D

 21 22  0  0  0  0  0  0  0  0999 V2000
    3.0881   -2.1430   34.0651 C   0  0  0  0  0  0  0  0  0  0  0  0
    2.5275   -3.5109   34.4767 C   0  0  0  0  0  0  0  0  0  0  0  0
    3.6366   -4.5662   34.4389 C   0  0  0  0  0  0  0  0  0  0  0  0
    1.8254   -3.5270   35.8335 C   0  0  0  0  0  0  0  0  0  0  0  0
    2.2836   -2.7071   36.8829 C   0  0  0  0  0  0  0  0  0  0  0  0
    1.7234   -2.7870   38.1590 C   0  0  0  0  0  0  0  0  0  0  0  0
    0.7154   -3.7044   38.4080 C   0  0  0  0  0  0  0  0  0  0  0  0
    0.1739   -3.7739   39.6313 F   0  0  0  0  0  0  0  0  0  0  0  0
    0.2572   -4.5474   37.4081 C   0  0  0  0  0  0  0  0  0  0  0  0
    0.7994   -4.4548   36.1242 C   0  0  0  0  0  0  0  0  0  0  0  0
    0.3157   -5.2966   35.1278 N   0  0  0  0  0  0  0  0  0  0  0  0
   -0.3972   -6.6635   35.2278 C   0  0  0  0  0  0  0  0  0  0  0  0
   -0.6211   -7.3320   36.1557 O   0  0  0  0  0  0  0  0  0  0  0  0
   -0.8376   -7.1846   33.8829 C   0  0  0  0  0  0  0  0  0  0  0  0
   -0.2161   -6.7548   32.7021 C   0  0  0  0  0  0  0  0  0  0  0  0
   -0.7263   -7.1692   31.4831 C   0  0  0  0  0  0  0  0  0  0  0  0
   -0.1461   -6.2647   29.9283 Br  0  0  0  0  0  0  0  0  0  0  0  0
   -1.7203   -8.0712   31.3539 N   0  0  0  0  0  0  0  0  0  0  0  0
   -2.2410   -8.5463   32.5066 C   0  0  0  0  0  0  0  0  0  0  0  0
   -1.8812   -8.1122   33.7749 C   0  0  0  0  0  0  0  0  0  0  0  0
   -2.8852   -8.6584   35.0619 Cl  0  0  0  0  0  0  0  0  0  0  0  0
  1  2  1  0
  2  3  1  0
  2  4  1  0
  4  5  2  0
  5  6  1  0
  6  7  2  0
  7  8  1  0
  7  9  1  0
  9 10  2  0
 10 11  1  0
 11 12  1  0
 12 13  2  0
 12 14  1  0
 14 15  2  0
 15 16  1  0
 16 17  1  0
 16 18  2  0
 18 19  1  0
 19 20  2  0
 20 21  1  0
 10  4  1  0
 20 14  1  0
M  END
>  <ref_mols>  (330) 
7gov-a

>  <gnina_score>  (330) 
5.279

>  <smina_score_min>  (330) 
-5.823

>  <ref_pdb>  (330) 
7gov-a

>  <inspiration_score>  (330) 
None

>  <inchikey>  (330) 
MZINOBPOUSDHMI-UHFFFAOYSA-N

>  <tags>  (330) 
BulkDock Fragalysis export,openbind_d68ev3c_c2_elabs_scored,openbind_d68ev3c_c2_elabs_scored_4.5plus,openbind_d68ev3c_c2_elabs,openbind_d68ev3c_c2_elabs_scored_5plus,syndirella_product,openbind_d68ev3c_c2_elabs_scored_top80percent,syndirella_placed

>  <smiles>  (330) 
CC(C)c1ccc(F)cc1NC(=O)c1cc(Br)ncc1Cl

>  <subsites>  (330) 
None

>  <rmsd(smina/fragmenstein)>  (330) 
1.307

>  <alias>  (330) 
None

>  <energy_score>  (330) 
-11.983091

>  <HIPPO Pose ID>  (330) 
65339

>  <distance_score>  (330) 
0.618689

>  <HIPPO Compound ID>  (330) 
102462

>  <gnina_score_min>  (330) 
5.361

>  <name>  (330) 
P65339

>  <exports>  (330) 
['/opt/xchem-fragalysis-2/maxwin/BulkDock/OUTPUTS/openbind_d68ev3c_c2_elabs_1LOTQJ3.sdf', '/opt/xchem-fragalysis-2/maxwin/BulkDock/OUTPUTS/openbind_d68ev3c_c2_elabs_1LSYEHW.sdf', '/opt/xchem-fragalysis-2/maxwin/BulkDock/OUTPUTS/openbind_d68ev3c_c2_elabs_1LSYI5W.sdf']

$$$$
P65341
     RDKit          3D

 21 23  0  0  0  0  0  0  0  0999 V2000
   -0.8506   -6.3219   35.8833 O   0  0  0  0  0  0  0  0  0  0  0  0
   -0.1219   -5.8975   35.0775 C   0  0  0  0  0  0  0  0  0  0  0  0
    0.9961   -4.8557   35.1986 N   0  0  0  0  0  0  0  0  0  0  0  0
    1.3842   -4.0695   36.2748 C   0  0  0  0  0  0  0  0  0  0  0  0
    0.6221   -4.1011   37.4479 C   0  0  0  0  0  0  0  0  0  0  0  0
    0.9867   -3.3102   38.5206 C   0  0  0  0  0  0  0  0  0  0  0  0
    0.2606   -3.3514   39.6455 F   0  0  0  0  0  0  0  0  0  0  0  0
    2.0852   -2.4714   38.4372 C   0  0  0  0  0  0  0  0  0  0  0  0
    2.8370   -2.4353   37.2593 C   0  0  0  0  0  0  0  0  0  0  0  0
    2.5196   -3.2443   36.1520 C   0  0  0  0  0  0  0  0  0  0  0  0
    3.3718   -3.1988   34.8963 C   0  0  0  0  0  0  0  0  0  0  0  0
    4.8819   -3.2315   34.9939 C   0  0  0  0  0  0  0  0  0  0  0  0
    4.1491   -4.4244   34.4661 C   0  0  0  0  0  0  0  0  0  0  0  0
   -0.3020   -6.4276   33.6826 C   0  0  0  0  0  0  0  0  0  0  0  0
   -1.1628   -7.5239   33.6342 C   0  0  0  0  0  0  0  0  0  0  0  0
   -1.5654   -7.9981   32.4123 C   0  0  0  0  0  0  0  0  0  0  0  0
   -2.9054   -9.2678   32.4223 Br  0  0  0  0  0  0  0  0  0  0  0  0
   -1.1428   -7.5418   31.2267 N   0  0  0  0  0  0  0  0  0  0  0  0
   -0.2474   -6.5362   31.2879 C   0  0  0  0  0  0  0  0  0  0  0  0
    0.1796   -5.9254   32.4685 C   0  0  0  0  0  0  0  0  0  0  0  0
    1.2118   -4.5613   32.2823 Cl  0  0  0  0  0  0  0  0  0  0  0  0
  1  2  2  0
  2  3  1  0
  3  4  1  0
  4  5  2  0
  5  6  1  0
  6  7  1  0
  6  8  2  0
  8  9  1  0
  9 10  2  0
 10 11  1  0
 11 12  1  0
 12 13  1  0
  2 14  1  0
 14 15  2  0
 15 16  1  0
 16 17  1  0
 16 18  2  0
 18 19  1  0
 19 20  2  0
 20 21  1  0
 10  4  1  0
 13 11  1  0
 20 14  1  0
M  END
>  <ref_mols>  (331) 
7gov-a

>  <gnina_score>  (331) 
5.142

>  <smina_score_min>  (331) 
-4.604

>  <ref_pdb>  (331) 
7gov-a

>  <inspiration_score>  (331) 
None

>  <inchikey>  (331) 
WDIPIDJNWPMMAM-UHFFFAOYSA-N

>  <tags>  (331) 
BulkDock Fragalysis export,openbind_d68ev3c_c2_elabs_scored,openbind_d68ev3c_c2_elabs_scored_4.5plus,openbind_d68ev3c_c2_elabs,openbind_d68ev3c_c2_elabs_scored_5plus,syndirella_product,openbind_d68ev3c_c2_elabs_scored_top80percent,syndirella_placed

>  <smiles>  (331) 
O=C(Nc1cc(F)ccc1C1CC1)c1cc(Br)ncc1Cl

>  <subsites>  (331) 
None

>  <rmsd(smina/fragmenstein)>  (331) 
0.543

>  <alias>  (331) 
None

>  <energy_score>  (331) 
-19.507329

>  <HIPPO Pose ID>  (331) 
65341

>  <distance_score>  (331) 
0.985991

>  <HIPPO Compound ID>  (331) 
102464

>  <gnina_score_min>  (331) 
5.121

>  <name>  (331) 
P65341

>  <exports>  (331) 
['/opt/xchem-fragalysis-2/maxwin/BulkDock/OUTPUTS/openbind_d68ev3c_c2_elabs_1LOTQJ3.sdf', '/opt/xchem-fragalysis-2/maxwin/BulkDock/OUTPUTS/openbind_d68ev3c_c2_elabs_1LSYEHW.sdf', '/opt/xchem-fragalysis-2/maxwin/BulkDock/OUTPUTS/openbind_d68ev3c_c2_elabs_1LSYI5W.sdf']

$$$$
P65342
     RDKit          3D

 21 22  0  0  0  0  0  0  0  0999 V2000
    3.9763   -3.2167   34.4456 C   0  0  0  0  0  0  0  0  0  0  0  0
    2.5228   -3.5946   34.5615 C   0  0  0  0  0  0  0  0  0  0  0  0
    1.8573   -3.8921   33.5682 O   0  0  0  0  0  0  0  0  0  0  0  0
    1.8850   -3.5894   35.9132 C   0  0  0  0  0  0  0  0  0  0  0  0
    2.3902   -2.7717   36.9341 C   0  0  0  0  0  0  0  0  0  0  0  0
    1.8212   -2.8150   38.2089 C   0  0  0  0  0  0  0  0  0  0  0  0
    0.7621   -3.6789   38.4626 C   0  0  0  0  0  0  0  0  0  0  0  0
    0.2144   -3.7068   39.6842 F   0  0  0  0  0  0  0  0  0  0  0  0
    0.2533   -4.5020   37.4682 C   0  0  0  0  0  0  0  0  0  0  0  0
    0.8039   -4.4490   36.1874 C   0  0  0  0  0  0  0  0  0  0  0  0
    0.2645   -5.2427   35.1828 N   0  0  0  0  0  0  0  0  0  0  0  0
   -0.4568   -6.6059   35.2600 C   0  0  0  0  0  0  0  0  0  0  0  0
   -0.7786   -7.2383   36.1844 O   0  0  0  0  0  0  0  0  0  0  0  0
   -0.8448   -7.1506   33.8988 C   0  0  0  0  0  0  0  0  0  0  0  0
   -0.2270   -6.7120   32.7183 C   0  0  0  0  0  0  0  0  0  0  0  0
   -0.7152   -7.1434   31.4940 C   0  0  0  0  0  0  0  0  0  0  0  0
   -0.1324   -6.2375   29.9398 Br  0  0  0  0  0  0  0  0  0  0  0  0
   -1.6873   -8.0680   31.3548 N   0  0  0  0  0  0  0  0  0  0  0  0
   -2.2086   -8.5475   32.5034 C   0  0  0  0  0  0  0  0  0  0  0  0
   -1.8701   -8.1020   33.7751 C   0  0  0  0  0  0  0  0  0  0  0  0
   -2.8879   -8.6762   35.0426 Cl  0  0  0  0  0  0  0  0  0  0  0  0
  1  2  1  0
  2  3  2  0
  2  4  1  0
  4  5  2  0
  5  6  1  0
  6  7  2  0
  7  8  1  0
  7  9  1  0
  9 10  2  0
 10 11  1  0
 11 12  1  0
 12 13  2  0
 12 14  1  0
 14 15  2  0
 15 16  1  0
 16 17  1  0
 16 18  2  0
 18 19  1  0
 19 20  2  0
 20 21  1  0
 10  4  1  0
 20 14  1  0
M  END
>  <ref_mols>  (332) 
7gov-a

>  <gnina_score>  (332) 
5.195

>  <smina_score_min>  (332) 
-5.96

>  <ref_pdb>  (332) 
7gov-a

>  <inspiration_score>  (332) 
None

>  <inchikey>  (332) 
IVVNNNBBOCRWEC-UHFFFAOYSA-N

>  <tags>  (332) 
BulkDock Fragalysis export,openbind_d68ev3c_c2_elabs_scored,openbind_d68ev3c_c2_elabs_scored_4.5plus,openbind_d68ev3c_c2_elabs,openbind_d68ev3c_c2_elabs_scored_5plus,syndirella_product,openbind_d68ev3c_c2_elabs_scored_top80percent,syndirella_placed

>  <smiles>  (332) 
CC(=O)c1ccc(F)cc1NC(=O)c1cc(Br)ncc1Cl

>  <subsites>  (332) 
None

>  <rmsd(smina/fragmenstein)>  (332) 
0.964

>  <alias>  (332) 
None

>  <energy_score>  (332) 
-18.412848

>  <HIPPO Pose ID>  (332) 
65342

>  <distance_score>  (332) 
0.645259

>  <HIPPO Compound ID>  (332) 
102465

>  <gnina_score_min>  (332) 
5.181

>  <name>  (332) 
P65342

>  <exports>  (332) 
['/opt/xchem-fragalysis-2/maxwin/BulkDock/OUTPUTS/openbind_d68ev3c_c2_elabs_1LOTQJ3.sdf', '/opt/xchem-fragalysis-2/maxwin/BulkDock/OUTPUTS/openbind_d68ev3c_c2_elabs_1LSYEHW.sdf', '/opt/xchem-fragalysis-2/maxwin/BulkDock/OUTPUTS/openbind_d68ev3c_c2_elabs_1LSYI5W.sdf']

$$$$
P65344
     RDKit          3D

 21 22  0  0  0  0  0  0  0  0999 V2000
    0.9858   -7.3832   35.2232 O   0  0  0  0  0  0  0  0  0  0  0  0
    0.1802   -6.6478   34.8160 C   0  0  0  0  0  0  0  0  0  0  0  0
   -0.1768   -5.2180   35.2546 N   0  0  0  0  0  0  0  0  0  0  0  0
    0.4227   -4.3853   36.1900 C   0  0  0  0  0  0  0  0  0  0  0  0
   -0.3729   -3.9779   37.2620 C   0  0  0  0  0  0  0  0  0  0  0  0
    0.1994   -3.2588   38.3038 C   0  0  0  0  0  0  0  0  0  0  0  0
   -0.5338   -2.9830   39.3891 F   0  0  0  0  0  0  0  0  0  0  0  0
    1.5198   -2.8484   38.2387 C   0  0  0  0  0  0  0  0  0  0  0  0
    2.0513   -2.1164   39.2277 F   0  0  0  0  0  0  0  0  0  0  0  0
    2.3001   -3.1969   37.1470 C   0  0  0  0  0  0  0  0  0  0  0  0
    1.7876   -4.0298   36.1310 C   0  0  0  0  0  0  0  0  0  0  0  0
    2.7004   -4.4137   34.9875 C   0  0  0  0  0  0  0  0  0  0  0  0
    4.0697   -4.4574   35.3851 O   0  0  0  0  0  0  0  0  0  0  0  0
   -0.5848   -7.0659   33.6290 C   0  0  0  0  0  0  0  0  0  0  0  0
   -0.1340   -6.6520   32.3755 C   0  0  0  0  0  0  0  0  0  0  0  0
   -0.7812   -7.1603   31.2655 C   0  0  0  0  0  0  0  0  0  0  0  0
   -0.3353   -6.5099   29.5503 Br  0  0  0  0  0  0  0  0  0  0  0  0
   -1.7951   -8.0561   31.3316 N   0  0  0  0  0  0  0  0  0  0  0  0
   -2.1836   -8.4480   32.5658 C   0  0  0  0  0  0  0  0  0  0  0  0
   -1.6397   -7.9590   33.7375 C   0  0  0  0  0  0  0  0  0  0  0  0
   -2.3726   -8.3730   35.2203 Cl  0  0  0  0  0  0  0  0  0  0  0  0
  1  2  2  0
  2  3  1  0
  3  4  1  0
  4  5  2  0
  5  6  1  0
  6  7  1  0
  6  8  2  0
  8  9  1  0
  8 10  1  0
 10 11  2  0
 11 12  1  0
 12 13  1  0
  2 14  1  0
 14 15  2  0
 15 16  1  0
 16 17  1  0
 16 18  2  0
 18 19  1  0
 19 20  2  0
 20 21  1  0
 11  4  1  0
 20 14  1  0
M  END
>  <ref_mols>  (333) 
7gov-a

>  <gnina_score>  (333) 
5.122

>  <smina_score_min>  (333) 
-6.217

>  <ref_pdb>  (333) 
7gov-a

>  <inspiration_score>  (333) 
None

>  <inchikey>  (333) 
IIKBDIPQSTVBNJ-UHFFFAOYSA-N

>  <tags>  (333) 
BulkDock Fragalysis export,openbind_d68ev3c_c2_elabs_scored,openbind_d68ev3c_c2_elabs_scored_4.5plus,openbind_d68ev3c_c2_elabs,openbind_d68ev3c_c2_elabs_scored_5plus,syndirella_product,openbind_d68ev3c_c2_elabs_scored_top80percent,syndirella_placed

>  <smiles>  (333) 
O=C(Nc1cc(F)c(F)cc1CO)c1cc(Br)ncc1Cl

>  <subsites>  (333) 
None

>  <rmsd(smina/fragmenstein)>  (333) 
0.9

>  <alias>  (333) 
None

>  <energy_score>  (333) 
-2.07034

>  <HIPPO Pose ID>  (333) 
65344

>  <distance_score>  (333) 
0.452661

>  <HIPPO Compound ID>  (333) 
102469

>  <gnina_score_min>  (333) 
5.159

>  <name>  (333) 
P65344

>  <exports>  (333) 
['/opt/xchem-fragalysis-2/maxwin/BulkDock/OUTPUTS/openbind_d68ev3c_c2_elabs_1LOTQJ3.sdf', '/opt/xchem-fragalysis-2/maxwin/BulkDock/OUTPUTS/openbind_d68ev3c_c2_elabs_1LSYEHW.sdf', '/opt/xchem-fragalysis-2/maxwin/BulkDock/OUTPUTS/openbind_d68ev3c_c2_elabs_1LSYI5W.sdf']

$$$$
P65345
     RDKit          3D

 21 22  0  0  0  0  0  0  0  0999 V2000
    3.3773   -2.5771   34.2038 O   0  0  0  0  0  0  0  0  0  0  0  0
    2.7094   -3.5423   34.5552 C   0  0  0  0  0  0  0  0  0  0  0  0
    1.9766   -3.5595   35.8375 C   0  0  0  0  0  0  0  0  0  0  0  0
    2.4125   -2.7058   36.8581 C   0  0  0  0  0  0  0  0  0  0  0  0
    1.8184   -2.7824   38.1119 C   0  0  0  0  0  0  0  0  0  0  0  0
    2.2351   -1.9636   39.0878 F   0  0  0  0  0  0  0  0  0  0  0  0
    0.8006   -3.6962   38.3544 C   0  0  0  0  0  0  0  0  0  0  0  0
    0.2187   -3.7533   39.5601 F   0  0  0  0  0  0  0  0  0  0  0  0
    0.3607   -4.5477   37.3459 C   0  0  0  0  0  0  0  0  0  0  0  0
    0.9379   -4.4750   36.0735 C   0  0  0  0  0  0  0  0  0  0  0  0
    0.4324   -5.2939   35.0651 N   0  0  0  0  0  0  0  0  0  0  0  0
   -0.2548   -6.6752   35.1447 C   0  0  0  0  0  0  0  0  0  0  0  0
   -0.4356   -7.3767   36.0570 O   0  0  0  0  0  0  0  0  0  0  0  0
   -0.7558   -7.1681   33.8107 C   0  0  0  0  0  0  0  0  0  0  0  0
   -0.1759   -6.7448   32.6075 C   0  0  0  0  0  0  0  0  0  0  0  0
   -0.7286   -7.1695   31.4097 C   0  0  0  0  0  0  0  0  0  0  0  0
   -0.1843   -6.3067   29.8196 Br  0  0  0  0  0  0  0  0  0  0  0  0
   -1.7332   -8.0638   31.3213 N   0  0  0  0  0  0  0  0  0  0  0  0
   -2.2266   -8.5204   32.4916 C   0  0  0  0  0  0  0  0  0  0  0  0
   -1.8198   -8.0797   33.7420 C   0  0  0  0  0  0  0  0  0  0  0  0
   -2.7937   -8.5987   35.0630 Cl  0  0  0  0  0  0  0  0  0  0  0  0
  1  2  2  0
  2  3  1  0
  3  4  2  0
  4  5  1  0
  5  6  1  0
  5  7  2  0
  7  8  1  0
  7  9  1  0
  9 10  2  0
 10 11  1  0
 11 12  1  0
 12 13  2  0
 12 14  1  0
 14 15  2  0
 15 16  1  0
 16 17  1  0
 16 18  2  0
 18 19  1  0
 19 20  2  0
 20 21  1  0
 10  3  1  0
 20 14  1  0
M  END
>  <ref_mols>  (334) 
7gov-a

>  <gnina_score>  (334) 
5.207

>  <smina_score_min>  (334) 
-5.75

>  <ref_pdb>  (334) 
7gov-a

>  <inspiration_score>  (334) 
None

>  <inchikey>  (334) 
IRJAPCKROGERPR-UHFFFAOYSA-N

>  <tags>  (334) 
BulkDock Fragalysis export,openbind_d68ev3c_c2_elabs_scored,openbind_d68ev3c_c2_elabs_scored_4.5plus,openbind_d68ev3c_c2_elabs,openbind_d68ev3c_c2_elabs_scored_5plus,syndirella_product,openbind_d68ev3c_c2_elabs_scored_top80percent,syndirella_placed

>  <smiles>  (334) 
O=Cc1cc(F)c(F)cc1NC(=O)c1cc(Br)ncc1Cl

>  <subsites>  (334) 
None

>  <rmsd(smina/fragmenstein)>  (334) 
1.077

>  <alias>  (334) 
None

>  <energy_score>  (334) 
-7.365318

>  <HIPPO Pose ID>  (334) 
65345

>  <distance_score>  (334) 
0.55086

>  <HIPPO Compound ID>  (334) 
102472

>  <gnina_score_min>  (334) 
5.248

>  <name>  (334) 
P65345

>  <exports>  (334) 
['/opt/xchem-fragalysis-2/maxwin/BulkDock/OUTPUTS/openbind_d68ev3c_c2_elabs_1LOTQJ3.sdf', '/opt/xchem-fragalysis-2/maxwin/BulkDock/OUTPUTS/openbind_d68ev3c_c2_elabs_1LSYEHW.sdf', '/opt/xchem-fragalysis-2/maxwin/BulkDock/OUTPUTS/openbind_d68ev3c_c2_elabs_1LSYI5W.sdf']

$$$$
P65346
     RDKit          3D

 21 22  0  0  0  0  0  0  0  0999 V2000
   -1.5944   -6.4707   35.9002 O   0  0  0  0  0  0  0  0  0  0  0  0
   -0.7465   -6.3219   35.1141 C   0  0  0  0  0  0  0  0  0  0  0  0
    0.5366   -5.4635   35.1764 N   0  0  0  0  0  0  0  0  0  0  0  0
    0.9805   -4.5652   36.1493 C   0  0  0  0  0  0  0  0  0  0  0  0
    0.1980   -4.3575   37.2936 C   0  0  0  0  0  0  0  0  0  0  0  0
    0.6291   -3.4891   38.2888 C   0  0  0  0  0  0  0  0  0  0  0  0
   -0.1082   -3.3409   39.3979 F   0  0  0  0  0  0  0  0  0  0  0  0
    1.8153   -2.7911   38.1424 C   0  0  0  0  0  0  0  0  0  0  0  0
    2.2313   -1.9500   39.0997 F   0  0  0  0  0  0  0  0  0  0  0  0
    2.5930   -2.9678   37.0051 C   0  0  0  0  0  0  0  0  0  0  0  0
    2.1951   -3.8703   35.9989 C   0  0  0  0  0  0  0  0  0  0  0  0
    3.1536   -4.1320   34.8707 C   0  0  0  0  0  0  0  0  0  0  0  0
    3.9383   -5.2805   35.1616 O   0  0  0  0  0  0  0  0  0  0  0  0
   -0.9288   -7.0395   33.8037 C   0  0  0  0  0  0  0  0  0  0  0  0
   -0.2981   -6.6021   32.6360 C   0  0  0  0  0  0  0  0  0  0  0  0
    0.5598   -5.5718   32.6382 F   0  0  0  0  0  0  0  0  0  0  0  0
   -0.5838   -7.2178   31.4248 C   0  0  0  0  0  0  0  0  0  0  0  0
   -1.4682   -8.2310   31.2846 N   0  0  0  0  0  0  0  0  0  0  0  0
   -2.0502   -8.6603   32.4262 C   0  0  0  0  0  0  0  0  0  0  0  0
   -1.8335   -8.1078   33.6833 C   0  0  0  0  0  0  0  0  0  0  0  0
   -2.7990   -8.7693   34.9493 Cl  0  0  0  0  0  0  0  0  0  0  0  0
  1  2  2  0
  2  3  1  0
  3  4  1  0
  4  5  2  0
  5  6  1  0
  6  7  1  0
  6  8  2  0
  8  9  1  0
  8 10  1  0
 10 11  2  0
 11 12  1  0
 12 13  1  0
  2 14  1  0
 14 15  2  0
 15 16  1  0
 15 17  1  0
 17 18  2  0
 18 19  1  0
 19 20  2  0
 20 21  1  0
 11  4  1  0
 20 14  1  0
M  END
>  <ref_mols>  (335) 
7gov-a

>  <gnina_score>  (335) 
5.077

>  <smina_score_min>  (335) 
-6.094

>  <ref_pdb>  (335) 
7gov-a

>  <inspiration_score>  (335) 
None

>  <inchikey>  (335) 
AMQQXWWEAYLYMA-UHFFFAOYSA-N

>  <tags>  (335) 
BulkDock Fragalysis export,openbind_d68ev3c_c2_elabs_scored,openbind_d68ev3c_c2_elabs_scored_4.5plus,openbind_d68ev3c_c2_elabs,openbind_d68ev3c_c2_elabs_scored_5plus,syndirella_product,openbind_d68ev3c_c2_elabs_scored_top80percent,syndirella_placed

>  <smiles>  (335) 
O=C(Nc1cc(F)c(F)cc1CO)c1c(F)cncc1Cl

>  <subsites>  (335) 
None

>  <rmsd(smina/fragmenstein)>  (335) 
1.19

>  <alias>  (335) 
None

>  <energy_score>  (335) 
-14.945089

>  <HIPPO Pose ID>  (335) 
65346

>  <distance_score>  (335) 
0.814172

>  <HIPPO Compound ID>  (335) 
102473

>  <gnina_score_min>  (335) 
5.079

>  <name>  (335) 
P65346

>  <exports>  (335) 
['/opt/xchem-fragalysis-2/maxwin/BulkDock/OUTPUTS/openbind_d68ev3c_c2_elabs_1LOTQJ3.sdf', '/opt/xchem-fragalysis-2/maxwin/BulkDock/OUTPUTS/openbind_d68ev3c_c2_elabs_1LSYEHW.sdf', '/opt/xchem-fragalysis-2/maxwin/BulkDock/OUTPUTS/openbind_d68ev3c_c2_elabs_1LSYI5W.sdf']

$$$$
P65347
     RDKit          3D

 21 22  0  0  0  0  0  0  0  0999 V2000
    3.3338   -2.5937   34.1999 O   0  0  0  0  0  0  0  0  0  0  0  0
    2.6667   -3.5559   34.5613 C   0  0  0  0  0  0  0  0  0  0  0  0
    1.9489   -3.5685   35.8531 C   0  0  0  0  0  0  0  0  0  0  0  0
    2.3971   -2.7119   36.8677 C   0  0  0  0  0  0  0  0  0  0  0  0
    1.8190   -2.7829   38.1341 C   0  0  0  0  0  0  0  0  0  0  0  0
    2.4373   -1.6373   39.5054 Br  0  0  0  0  0  0  0  0  0  0  0  0
    0.8004   -3.6990   38.3828 C   0  0  0  0  0  0  0  0  0  0  0  0
    0.2185   -3.7682   39.5891 F   0  0  0  0  0  0  0  0  0  0  0  0
    0.3524   -4.5531   37.3791 C   0  0  0  0  0  0  0  0  0  0  0  0
    0.9160   -4.4852   36.1024 C   0  0  0  0  0  0  0  0  0  0  0  0
    0.4139   -5.3128   35.0991 N   0  0  0  0  0  0  0  0  0  0  0  0
   -0.3240   -6.6673   35.1914 C   0  0  0  0  0  0  0  0  0  0  0  0
   -0.5581   -7.3376   36.1150 O   0  0  0  0  0  0  0  0  0  0  0  0
   -0.7962   -7.1728   33.8497 C   0  0  0  0  0  0  0  0  0  0  0  0
   -0.1955   -6.7446   32.6579 C   0  0  0  0  0  0  0  0  0  0  0  0
   -0.7254   -7.1635   31.4480 C   0  0  0  0  0  0  0  0  0  0  0  0
   -0.1612   -6.2773   29.8775 Br  0  0  0  0  0  0  0  0  0  0  0  0
   -1.7240   -8.0622   31.3373 N   0  0  0  0  0  0  0  0  0  0  0  0
   -2.2317   -8.5299   32.4975 C   0  0  0  0  0  0  0  0  0  0  0  0
   -1.8499   -8.0935   33.7582 C   0  0  0  0  0  0  0  0  0  0  0  0
   -2.8407   -8.6316   35.0591 Cl  0  0  0  0  0  0  0  0  0  0  0  0
  1  2  2  0
  2  3  1  0
  3  4  2  0
  4  5  1  0
  5  6  1  0
  5  7  2  0
  7  8  1  0
  7  9  1  0
  9 10  2  0
 10 11  1  0
 11 12  1  0
 12 13  2  0
 12 14  1  0
 14 15  2  0
 15 16  1  0
 16 17  1  0
 16 18  2  0
 18 19  1  0
 19 20  2  0
 20 21  1  0
 10  3  1  0
 20 14  1  0
M  END
>  <ref_mols>  (336) 
7gov-a

>  <gnina_score>  (336) 
5.276

>  <smina_score_min>  (336) 
-6.189

>  <ref_pdb>  (336) 
7gov-a

>  <inspiration_score>  (336) 
None

>  <inchikey>  (336) 
YMSRSTGVGFIAOG-UHFFFAOYSA-N

>  <tags>  (336) 
BulkDock Fragalysis export,openbind_d68ev3c_c2_elabs_scored,openbind_d68ev3c_c2_elabs_scored_4.5plus,openbind_d68ev3c_c2_elabs,openbind_d68ev3c_c2_elabs_scored_5plus,syndirella_product,openbind_d68ev3c_c2_elabs_scored_top80percent,syndirella_placed

>  <smiles>  (336) 
O=Cc1cc(Br)c(F)cc1NC(=O)c1cc(Br)ncc1Cl

>  <subsites>  (336) 
None

>  <rmsd(smina/fragmenstein)>  (336) 
1.248

>  <alias>  (336) 
None

>  <energy_score>  (336) 
-7.211133

>  <HIPPO Pose ID>  (336) 
65347

>  <distance_score>  (336) 
0.587388

>  <HIPPO Compound ID>  (336) 
102475

>  <gnina_score_min>  (336) 
5.371

>  <name>  (336) 
P65347

>  <exports>  (336) 
['/opt/xchem-fragalysis-2/maxwin/BulkDock/OUTPUTS/openbind_d68ev3c_c2_elabs_1LOTQJ3.sdf', '/opt/xchem-fragalysis-2/maxwin/BulkDock/OUTPUTS/openbind_d68ev3c_c2_elabs_1LSYEHW.sdf', '/opt/xchem-fragalysis-2/maxwin/BulkDock/OUTPUTS/openbind_d68ev3c_c2_elabs_1LSYI5W.sdf']

$$$$
P65349
     RDKit          3D

 21 22  0  0  0  0  0  0  0  0999 V2000
   -1.1660   -6.0787   35.8436 O   0  0  0  0  0  0  0  0  0  0  0  0
   -0.2797   -5.8322   35.1267 C   0  0  0  0  0  0  0  0  0  0  0  0
    0.9620   -4.9586   35.3444 N   0  0  0  0  0  0  0  0  0  0  0  0
    1.3218   -4.1533   36.4160 C   0  0  0  0  0  0  0  0  0  0  0  0
    0.4917   -4.0985   37.5386 C   0  0  0  0  0  0  0  0  0  0  0  0
    0.8496   -3.3156   38.6240 C   0  0  0  0  0  0  0  0  0  0  0  0
    0.0514   -3.3114   39.7010 F   0  0  0  0  0  0  0  0  0  0  0  0
    2.0152   -2.5615   38.5929 C   0  0  0  0  0  0  0  0  0  0  0  0
    2.5151   -1.4991   40.0756 Br  0  0  0  0  0  0  0  0  0  0  0  0
    2.8396   -2.5980   37.4678 C   0  0  0  0  0  0  0  0  0  0  0  0
    2.5103   -3.4095   36.3693 C   0  0  0  0  0  0  0  0  0  0  0  0
    3.4929   -3.5374   35.2370 C   0  0  0  0  0  0  0  0  0  0  0  0
    4.0461   -4.8458   35.2149 O   0  0  0  0  0  0  0  0  0  0  0  0
   -0.3656   -6.4069   33.7490 C   0  0  0  0  0  0  0  0  0  0  0  0
   -1.1848   -7.5298   33.6836 C   0  0  0  0  0  0  0  0  0  0  0  0
   -1.5353   -8.0086   32.4477 C   0  0  0  0  0  0  0  0  0  0  0  0
   -2.8607   -9.2913   32.4062 Br  0  0  0  0  0  0  0  0  0  0  0  0
   -1.0863   -7.5397   31.2756 N   0  0  0  0  0  0  0  0  0  0  0  0
   -0.2222   -6.5092   31.3617 C   0  0  0  0  0  0  0  0  0  0  0  0
    0.1403   -5.8848   32.5542 C   0  0  0  0  0  0  0  0  0  0  0  0
    1.0995   -4.4639   32.4186 Cl  0  0  0  0  0  0  0  0  0  0  0  0
  1  2  2  0
  2  3  1  0
  3  4  1  0
  4  5  2  0
  5  6  1  0
  6  7  1  0
  6  8  2  0
  8  9  1  0
  8 10  1  0
 10 11  2  0
 11 12  1  0
 12 13  1  0
  2 14  1  0
 14 15  2  0
 15 16  1  0
 16 17  1  0
 16 18  2  0
 18 19  1  0
 19 20  2  0
 20 21  1  0
 11  4  1  0
 20 14  1  0
M  END
>  <ref_mols>  (337) 
7gov-a

>  <gnina_score>  (337) 
5.017

>  <smina_score_min>  (337) 
-4.901

>  <ref_pdb>  (337) 
7gov-a

>  <inspiration_score>  (337) 
None

>  <inchikey>  (337) 
VGJBZBWHWPXAJE-UHFFFAOYSA-N

>  <tags>  (337) 
BulkDock Fragalysis export,openbind_d68ev3c_c2_elabs_scored,openbind_d68ev3c_c2_elabs_scored_4.5plus,openbind_d68ev3c_c2_elabs,openbind_d68ev3c_c2_elabs_scored_5plus,syndirella_product,openbind_d68ev3c_c2_elabs_scored_top80percent,syndirella_placed

>  <smiles>  (337) 
O=C(Nc1cc(F)c(Br)cc1CO)c1cc(Br)ncc1Cl

>  <subsites>  (337) 
None

>  <rmsd(smina/fragmenstein)>  (337) 
1.428

>  <alias>  (337) 
None

>  <energy_score>  (337) 
-14.19097

>  <HIPPO Pose ID>  (337) 
65349

>  <distance_score>  (337) 
1.048761

>  <HIPPO Compound ID>  (337) 
102477

>  <gnina_score_min>  (337) 
5.092

>  <name>  (337) 
P65349

>  <exports>  (337) 
['/opt/xchem-fragalysis-2/maxwin/BulkDock/OUTPUTS/openbind_d68ev3c_c2_elabs_1LOTQJ3.sdf', '/opt/xchem-fragalysis-2/maxwin/BulkDock/OUTPUTS/openbind_d68ev3c_c2_elabs_1LSYEHW.sdf', '/opt/xchem-fragalysis-2/maxwin/BulkDock/OUTPUTS/openbind_d68ev3c_c2_elabs_1LSYI5W.sdf']

$$$$
P65350
     RDKit          3D

 21 22  0  0  0  0  0  0  0  0999 V2000
   -0.6610   -7.3067   36.1514 O   0  0  0  0  0  0  0  0  0  0  0  0
   -0.3771   -6.6511   35.2305 C   0  0  0  0  0  0  0  0  0  0  0  0
    0.3849   -5.3089   35.1543 N   0  0  0  0  0  0  0  0  0  0  0  0
    0.8546   -4.4793   36.1648 C   0  0  0  0  0  0  0  0  0  0  0  0
    0.2596   -4.5262   37.4265 C   0  0  0  0  0  0  0  0  0  0  0  0
    0.7038   -3.6698   38.4244 C   0  0  0  0  0  0  0  0  0  0  0  0
    0.1203   -3.7025   39.6296 F   0  0  0  0  0  0  0  0  0  0  0  0
    1.7390   -2.7747   38.1920 C   0  0  0  0  0  0  0  0  0  0  0  0
    2.3478   -2.7396   36.9378 C   0  0  0  0  0  0  0  0  0  0  0  0
    1.9106   -3.5893   35.9061 C   0  0  0  0  0  0  0  0  0  0  0  0
    2.6828   -3.6276   34.6124 C   0  0  0  0  0  0  0  0  0  0  0  0
    3.2414   -2.4266   34.2862 F   0  0  0  0  0  0  0  0  0  0  0  0
    1.9112   -3.9667   33.5337 F   0  0  0  0  0  0  0  0  0  0  0  0
   -0.8136   -7.1673   33.8749 C   0  0  0  0  0  0  0  0  0  0  0  0
   -0.2115   -6.7321   32.6852 C   0  0  0  0  0  0  0  0  0  0  0  0
   -0.7253   -7.1568   31.4692 C   0  0  0  0  0  0  0  0  0  0  0  0
   -0.1527   -6.2650   29.9038 Br  0  0  0  0  0  0  0  0  0  0  0  0
   -1.7110   -8.0681   31.3465 N   0  0  0  0  0  0  0  0  0  0  0  0
   -2.2234   -8.5394   32.5025 C   0  0  0  0  0  0  0  0  0  0  0  0
   -1.8578   -8.0997   33.7681 C   0  0  0  0  0  0  0  0  0  0  0  0
   -2.8638   -8.6541   35.0526 Cl  0  0  0  0  0  0  0  0  0  0  0  0
  1  2  2  0
  2  3  1  0
  3  4  1  0
  4  5  2  0
  5  6  1  0
  6  7  1  0
  6  8  2  0
  8  9  1  0
  9 10  2  0
 10 11  1  0
 11 12  1  0
 11 13  1  0
  2 14  1  0
 14 15  2  0
 15 16  1  0
 16 17  1  0
 16 18  2  0
 18 19  1  0
 19 20  2  0
 20 21  1  0
 10  4  1  0
 20 14  1  0
M  END
>  <ref_mols>  (338) 
7gov-a

>  <gnina_score>  (338) 
5.174

>  <smina_score_min>  (338) 
-5.953

>  <ref_pdb>  (338) 
7gov-a

>  <inspiration_score>  (338) 
None

>  <inchikey>  (338) 
WHOUUSOKBGGECE-UHFFFAOYSA-N

>  <tags>  (338) 
BulkDock Fragalysis export,openbind_d68ev3c_c2_elabs_scored,openbind_d68ev3c_c2_elabs_scored_4.5plus,openbind_d68ev3c_c2_elabs,openbind_d68ev3c_c2_elabs_scored_5plus,syndirella_product,openbind_d68ev3c_c2_elabs_scored_top80percent,syndirella_placed

>  <smiles>  (338) 
O=C(Nc1cc(F)ccc1C(F)F)c1cc(Br)ncc1Cl

>  <subsites>  (338) 
None

>  <rmsd(smina/fragmenstein)>  (338) 
1.016

>  <alias>  (338) 
None

>  <energy_score>  (338) 
-16.646318

>  <HIPPO Pose ID>  (338) 
65350

>  <distance_score>  (338) 
0.609809

>  <HIPPO Compound ID>  (338) 
102478

>  <gnina_score_min>  (338) 
5.188

>  <name>  (338) 
P65350

>  <exports>  (338) 
['/opt/xchem-fragalysis-2/maxwin/BulkDock/OUTPUTS/openbind_d68ev3c_c2_elabs_1LOTQJ3.sdf', '/opt/xchem-fragalysis-2/maxwin/BulkDock/OUTPUTS/openbind_d68ev3c_c2_elabs_1LSYEHW.sdf', '/opt/xchem-fragalysis-2/maxwin/BulkDock/OUTPUTS/openbind_d68ev3c_c2_elabs_1LSYI5W.sdf']

$$$$
P65352
     RDKit          3D

 21 22  0  0  0  0  0  0  0  0999 V2000
    3.7364   -2.6575   34.2820 C   0  0  0  0  0  0  0  0  0  0  0  0
    2.5286   -3.5648   34.4871 C   0  0  0  0  0  0  0  0  0  0  0  0
    1.8787   -3.5643   35.8589 C   0  0  0  0  0  0  0  0  0  0  0  0
    2.3363   -2.7332   36.8969 C   0  0  0  0  0  0  0  0  0  0  0  0
    1.7771   -2.8118   38.1754 C   0  0  0  0  0  0  0  0  0  0  0  0
    2.4284   -1.6818   39.5462 Br  0  0  0  0  0  0  0  0  0  0  0  0
    0.7553   -3.7164   38.4331 C   0  0  0  0  0  0  0  0  0  0  0  0
    0.1912   -3.7901   39.6478 F   0  0  0  0  0  0  0  0  0  0  0  0
    0.2896   -4.5551   37.4308 C   0  0  0  0  0  0  0  0  0  0  0  0
    0.8397   -4.4752   36.1499 C   0  0  0  0  0  0  0  0  0  0  0  0
    0.3576   -5.3123   35.1492 N   0  0  0  0  0  0  0  0  0  0  0  0
   -0.4107   -6.6502   35.2432 C   0  0  0  0  0  0  0  0  0  0  0  0
   -0.6909   -7.2962   36.1719 O   0  0  0  0  0  0  0  0  0  0  0  0
   -0.8392   -7.1756   33.8919 C   0  0  0  0  0  0  0  0  0  0  0  0
   -0.2166   -6.7459   32.7112 C   0  0  0  0  0  0  0  0  0  0  0  0
   -0.7223   -7.1615   31.4897 C   0  0  0  0  0  0  0  0  0  0  0  0
   -0.1390   -6.2534   29.9377 Br  0  0  0  0  0  0  0  0  0  0  0  0
   -1.7130   -8.0657   31.3561 N   0  0  0  0  0  0  0  0  0  0  0  0
   -2.2351   -8.5424   32.5068 C   0  0  0  0  0  0  0  0  0  0  0  0
   -1.8807   -8.1073   33.7770 C   0  0  0  0  0  0  0  0  0  0  0  0
   -2.8906   -8.6641   35.0560 Cl  0  0  0  0  0  0  0  0  0  0  0  0
  1  2  1  0
  2  3  1  0
  3  4  2  0
  4  5  1  0
  5  6  1  0
  5  7  2  0
  7  8  1  0
  7  9  1  0
  9 10  2  0
 10 11  1  0
 11 12  1  0
 12 13  2  0
 12 14  1  0
 14 15  2  0
 15 16  1  0
 16 17  1  0
 16 18  2  0
 18 19  1  0
 19 20  2  0
 20 21  1  0
 10  3  1  0
 20 14  1  0
M  END
>  <ref_mols>  (339) 
7gov-a

>  <gnina_score>  (339) 
5.352

>  <smina_score_min>  (339) 
-5.915

>  <ref_pdb>  (339) 
7gov-a

>  <inspiration_score>  (339) 
None

>  <inchikey>  (339) 
UCBIRCKNEZKYOL-UHFFFAOYSA-N

>  <tags>  (339) 
BulkDock Fragalysis export,openbind_d68ev3c_c2_elabs_scored,openbind_d68ev3c_c2_elabs_scored_4.5plus,openbind_d68ev3c_c2_elabs,openbind_d68ev3c_c2_elabs_scored_5plus,syndirella_product,openbind_d68ev3c_c2_elabs_scored_top80percent,syndirella_placed

>  <smiles>  (339) 
CCc1cc(Br)c(F)cc1NC(=O)c1cc(Br)ncc1Cl

>  <subsites>  (339) 
None

>  <rmsd(smina/fragmenstein)>  (339) 
1.01

>  <alias>  (339) 
None

>  <energy_score>  (339) 
-8.680229

>  <HIPPO Pose ID>  (339) 
65352

>  <distance_score>  (339) 
0.629618

>  <HIPPO Compound ID>  (339) 
102481

>  <gnina_score_min>  (339) 
5.388

>  <name>  (339) 
P65352

>  <exports>  (339) 
['/opt/xchem-fragalysis-2/maxwin/BulkDock/OUTPUTS/openbind_d68ev3c_c2_elabs_1LOTQJ3.sdf', '/opt/xchem-fragalysis-2/maxwin/BulkDock/OUTPUTS/openbind_d68ev3c_c2_elabs_1LSYEHW.sdf', '/opt/xchem-fragalysis-2/maxwin/BulkDock/OUTPUTS/openbind_d68ev3c_c2_elabs_1LSYI5W.sdf']

$$$$
P65355
     RDKit          3D

 21 22  0  0  0  0  0  0  0  0999 V2000
    3.0003   -4.0103   34.6743 C   0  0  0  0  0  0  0  0  0  0  0  0
    2.1717   -3.8653   35.9279 C   0  0  0  0  0  0  0  0  0  0  0  0
    2.5748   -2.9972   36.9698 C   0  0  0  0  0  0  0  0  0  0  0  0
    3.7794   -2.2182   36.8941 C   0  0  0  0  0  0  0  0  0  0  0  0
    4.7428   -1.5713   36.8476 N   0  0  0  0  0  0  0  0  0  0  0  0
    1.8087   -2.8837   38.1361 C   0  0  0  0  0  0  0  0  0  0  0  0
    0.6445   -3.6209   38.2665 C   0  0  0  0  0  0  0  0  0  0  0  0
   -0.0759   -3.5179   39.3908 F   0  0  0  0  0  0  0  0  0  0  0  0
    0.2135   -4.4616   37.2520 C   0  0  0  0  0  0  0  0  0  0  0  0
    0.9708   -4.5924   36.0843 C   0  0  0  0  0  0  0  0  0  0  0  0
    0.5222   -5.4361   35.0659 N   0  0  0  0  0  0  0  0  0  0  0  0
   -0.7094   -6.3629   35.0019 C   0  0  0  0  0  0  0  0  0  0  0  0
   -1.5017   -6.6267   35.8186 O   0  0  0  0  0  0  0  0  0  0  0  0
   -0.8865   -7.0359   33.6716 C   0  0  0  0  0  0  0  0  0  0  0  0
   -1.5823   -8.2553   33.7388 C   0  0  0  0  0  0  0  0  0  0  0  0
   -1.9291   -8.8907   32.5710 C   0  0  0  0  0  0  0  0  0  0  0  0
   -1.6065   -8.4267   31.3547 N   0  0  0  0  0  0  0  0  0  0  0  0
   -0.8866   -7.2762   31.2959 C   0  0  0  0  0  0  0  0  0  0  0  0
   -0.4847   -6.7341   29.5125 Br  0  0  0  0  0  0  0  0  0  0  0  0
   -0.5279   -6.5212   32.4155 C   0  0  0  0  0  0  0  0  0  0  0  0
    0.2208   -4.9760   32.2097 Cl  0  0  0  0  0  0  0  0  0  0  0  0
  1  2  1  0
  2  3  2  0
  3  4  1  0
  4  5  3  0
  3  6  1  0
  6  7  2  0
  7  8  1  0
  7  9  1  0
  9 10  2  0
 10 11  1  0
 11 12  1  0
 12 13  2  0
 12 14  1  0
 14 15  2  0
 15 16  1  0
 16 17  2  0
 17 18  1  0
 18 19  1  0
 18 20  2  0
 20 21  1  0
 10  2  1  0
 20 14  1  0
M  END
>  <ref_mols>  (340) 
7gov-a

>  <gnina_score>  (340) 
5.181

>  <smina_score_min>  (340) 
-5.672

>  <ref_pdb>  (340) 
7gov-a

>  <inspiration_score>  (340) 
None

>  <inchikey>  (340) 
HBNLMRTYXCZLLM-UHFFFAOYSA-N

>  <tags>  (340) 
BulkDock Fragalysis export,openbind_d68ev3c_c2_elabs_scored,openbind_d68ev3c_c2_elabs_scored_4.5plus,openbind_d68ev3c_c2_elabs,openbind_d68ev3c_c2_elabs_scored_5plus,syndirella_product,openbind_d68ev3c_c2_elabs_scored_top80percent,syndirella_placed

>  <smiles>  (340) 
Cc1c(C#N)cc(F)cc1NC(=O)c1ccnc(Br)c1Cl

>  <subsites>  (340) 
None

>  <rmsd(smina/fragmenstein)>  (340) 
1.11

>  <alias>  (340) 
None

>  <energy_score>  (340) 
-23.051252

>  <HIPPO Pose ID>  (340) 
65355

>  <distance_score>  (340) 
0.737673

>  <HIPPO Compound ID>  (340) 
102489

>  <gnina_score_min>  (340) 
5.091

>  <name>  (340) 
P65355

>  <exports>  (340) 
['/opt/xchem-fragalysis-2/maxwin/BulkDock/OUTPUTS/openbind_d68ev3c_c2_elabs_1LOTQJ3.sdf', '/opt/xchem-fragalysis-2/maxwin/BulkDock/OUTPUTS/openbind_d68ev3c_c2_elabs_1LSYEHW.sdf', '/opt/xchem-fragalysis-2/maxwin/BulkDock/OUTPUTS/openbind_d68ev3c_c2_elabs_1LSYI5W.sdf']

$$$$
P65356
     RDKit          3D

 21 22  0  0  0  0  0  0  0  0999 V2000
    0.8060   -7.1968   35.6923 O   0  0  0  0  0  0  0  0  0  0  0  0
    0.6004   -6.3436   34.9299 C   0  0  0  0  0  0  0  0  0  0  0  0
    0.8123   -4.8343   35.0500 N   0  0  0  0  0  0  0  0  0  0  0  0
    1.2173   -4.0685   36.1233 C   0  0  0  0  0  0  0  0  0  0  0  0
    2.1697   -3.0666   35.9198 C   0  0  0  0  0  0  0  0  0  0  0  0
    2.8758   -2.9265   34.5986 C   0  0  0  0  0  0  0  0  0  0  0  0
    1.9354   -2.6989   33.5497 O   0  0  0  0  0  0  0  0  0  0  0  0
    2.5495   -2.2859   37.0228 C   0  0  0  0  0  0  0  0  0  0  0  0
    1.9670   -2.4895   38.2798 C   0  0  0  0  0  0  0  0  0  0  0  0
    1.0135   -3.4868   38.4486 C   0  0  0  0  0  0  0  0  0  0  0  0
    0.4293   -3.6477   39.6446 F   0  0  0  0  0  0  0  0  0  0  0  0
    0.6473   -4.2874   37.3820 C   0  0  0  0  0  0  0  0  0  0  0  0
   -0.3104   -5.2133   37.5513 F   0  0  0  0  0  0  0  0  0  0  0  0
   -0.0591   -6.6873   33.6547 C   0  0  0  0  0  0  0  0  0  0  0  0
    0.4463   -6.2387   32.4319 C   0  0  0  0  0  0  0  0  0  0  0  0
   -0.1602   -6.6857   31.2727 C   0  0  0  0  0  0  0  0  0  0  0  0
   -1.2095   -7.5270   31.2628 N   0  0  0  0  0  0  0  0  0  0  0  0
   -1.6605   -7.9365   32.4734 C   0  0  0  0  0  0  0  0  0  0  0  0
   -3.0482   -9.1791   32.4084 Br  0  0  0  0  0  0  0  0  0  0  0  0
   -1.1644   -7.5251   33.6953 C   0  0  0  0  0  0  0  0  0  0  0  0
   -1.9454   -7.9598   35.1765 Cl  0  0  0  0  0  0  0  0  0  0  0  0
  1  2  2  0
  2  3  1  0
  3  4  1  0
  4  5  2  0
  5  6  1  0
  6  7  1  0
  5  8  1  0
  8  9  2  0
  9 10  1  0
 10 11  1  0
 10 12  2  0
 12 13  1  0
  2 14  1  0
 14 15  2  0
 15 16  1  0
 16 17  2  0
 17 18  1  0
 18 19  1  0
 18 20  2  0
 20 21  1  0
 12  4  1  0
 20 14  1  0
M  END
>  <ref_mols>  (341) 
7gov-a

>  <gnina_score>  (341) 
5.198

>  <smina_score_min>  (341) 
-4.631

>  <ref_pdb>  (341) 
7gov-a

>  <inspiration_score>  (341) 
None

>  <inchikey>  (341) 
AHEVZCVBBZHTCU-UHFFFAOYSA-N

>  <tags>  (341) 
BulkDock Fragalysis export,openbind_d68ev3c_c2_elabs_scored,openbind_d68ev3c_c2_elabs_scored_4.5plus,openbind_d68ev3c_c2_elabs,openbind_d68ev3c_c2_elabs_scored_5plus,syndirella_product,openbind_d68ev3c_c2_elabs_scored_top80percent,syndirella_placed

>  <smiles>  (341) 
O=C(Nc1c(CO)ccc(F)c1F)c1ccnc(Br)c1Cl

>  <subsites>  (341) 
None

>  <rmsd(smina/fragmenstein)>  (341) 
0.653

>  <alias>  (341) 
None

>  <energy_score>  (341) 
-6.84626

>  <HIPPO Pose ID>  (341) 
65356

>  <distance_score>  (341) 
0.769965

>  <HIPPO Compound ID>  (341) 
102491

>  <gnina_score_min>  (341) 
5.113

>  <name>  (341) 
P65356

>  <exports>  (341) 
['/opt/xchem-fragalysis-2/maxwin/BulkDock/OUTPUTS/openbind_d68ev3c_c2_elabs_1LOTQJ3.sdf', '/opt/xchem-fragalysis-2/maxwin/BulkDock/OUTPUTS/openbind_d68ev3c_c2_elabs_1LSYEHW.sdf', '/opt/xchem-fragalysis-2/maxwin/BulkDock/OUTPUTS/openbind_d68ev3c_c2_elabs_1LSYI5W.sdf']

$$$$
P65357
     RDKit          3D

 21 22  0  0  0  0  0  0  0  0999 V2000
    4.4897   -3.9049   34.7820 C   0  0  0  0  0  0  0  0  0  0  0  0
    2.9786   -3.7868   34.5429 C   0  0  0  0  0  0  0  0  0  0  0  0
    2.6718   -2.5537   33.6882 C   0  0  0  0  0  0  0  0  0  0  0  0
    2.1512   -3.7564   35.8255 C   0  0  0  0  0  0  0  0  0  0  0  0
    2.5365   -2.8802   36.8639 C   0  0  0  0  0  0  0  0  0  0  0  0
    1.8226   -2.8099   38.0595 C   0  0  0  0  0  0  0  0  0  0  0  0
    0.7007   -3.6017   38.2260 C   0  0  0  0  0  0  0  0  0  0  0  0
    0.0138   -3.5392   39.3750 F   0  0  0  0  0  0  0  0  0  0  0  0
    0.2728   -4.4522   37.2166 C   0  0  0  0  0  0  0  0  0  0  0  0
    0.9900   -4.5411   36.0166 C   0  0  0  0  0  0  0  0  0  0  0  0
    0.5226   -5.3899   35.0097 N   0  0  0  0  0  0  0  0  0  0  0  0
   -0.6913   -6.3416   34.9844 C   0  0  0  0  0  0  0  0  0  0  0  0
   -1.4488   -6.6255   35.8274 O   0  0  0  0  0  0  0  0  0  0  0  0
   -0.8907   -7.0212   33.6587 C   0  0  0  0  0  0  0  0  0  0  0  0
   -1.5756   -8.2456   33.7448 C   0  0  0  0  0  0  0  0  0  0  0  0
   -1.9256   -8.8979   32.5871 C   0  0  0  0  0  0  0  0  0  0  0  0
   -1.6139   -8.4486   31.3628 N   0  0  0  0  0  0  0  0  0  0  0  0
   -0.9055   -7.2929   31.2850 C   0  0  0  0  0  0  0  0  0  0  0  0
   -0.5103   -6.7770   29.4912 Br  0  0  0  0  0  0  0  0  0  0  0  0
   -0.5506   -6.5182   32.3924 C   0  0  0  0  0  0  0  0  0  0  0  0
    0.1652   -4.9630   32.1545 Cl  0  0  0  0  0  0  0  0  0  0  0  0
  1  2  1  0
  2  3  1  0
  2  4  1  0
  4  5  2  0
  5  6  1  0
  6  7  2  0
  7  8  1  0
  7  9  1  0
  9 10  2  0
 10 11  1  0
 11 12  1  0
 12 13  2  0
 12 14  1  0
 14 15  2  0
 15 16  1  0
 16 17  2  0
 17 18  1  0
 18 19  1  0
 18 20  2  0
 20 21  1  0
 10  4  1  0
 20 14  1  0
M  END
>  <ref_mols>  (342) 
7gov-a

>  <gnina_score>  (342) 
5.242

>  <smina_score_min>  (342) 
-5.662

>  <ref_pdb>  (342) 
7gov-a

>  <inspiration_score>  (342) 
None

>  <inchikey>  (342) 
WINHNHROVDZXRL-UHFFFAOYSA-N

>  <tags>  (342) 
BulkDock Fragalysis export,openbind_d68ev3c_c2_elabs_scored,openbind_d68ev3c_c2_elabs_scored_4.5plus,openbind_d68ev3c_c2_elabs,openbind_d68ev3c_c2_elabs_scored_5plus,syndirella_product,openbind_d68ev3c_c2_elabs_scored_top80percent,syndirella_placed

>  <smiles>  (342) 
CC(C)c1ccc(F)cc1NC(=O)c1ccnc(Br)c1Cl

>  <subsites>  (342) 
None

>  <rmsd(smina/fragmenstein)>  (342) 
1.16

>  <alias>  (342) 
None

>  <energy_score>  (342) 
-9.071115

>  <HIPPO Pose ID>  (342) 
65357

>  <distance_score>  (342) 
0.730761

>  <HIPPO Compound ID>  (342) 
102494

>  <gnina_score_min>  (342) 
5.162

>  <name>  (342) 
P65357

>  <exports>  (342) 
['/opt/xchem-fragalysis-2/maxwin/BulkDock/OUTPUTS/openbind_d68ev3c_c2_elabs_1LOTQJ3.sdf', '/opt/xchem-fragalysis-2/maxwin/BulkDock/OUTPUTS/openbind_d68ev3c_c2_elabs_1LSYEHW.sdf', '/opt/xchem-fragalysis-2/maxwin/BulkDock/OUTPUTS/openbind_d68ev3c_c2_elabs_1LSYI5W.sdf']

$$$$
P65358
     RDKit          3D

 21 22  0  0  0  0  0  0  0  0999 V2000
    2.8448   -3.9268   34.5970 C   0  0  0  0  0  0  0  0  0  0  0  0
    2.0556   -3.8123   35.8804 C   0  0  0  0  0  0  0  0  0  0  0  0
    2.4638   -2.9284   36.9108 C   0  0  0  0  0  0  0  0  0  0  0  0
    3.7247   -2.1052   36.8199 C   0  0  0  0  0  0  0  0  0  0  0  0
    4.8720   -2.9352   36.9519 O   0  0  0  0  0  0  0  0  0  0  0  0
    1.7235   -2.8679   38.1023 C   0  0  0  0  0  0  0  0  0  0  0  0
    0.5918   -3.6513   38.2639 C   0  0  0  0  0  0  0  0  0  0  0  0
   -0.0947   -3.5846   39.4125 F   0  0  0  0  0  0  0  0  0  0  0  0
    0.1655   -4.5051   37.2601 C   0  0  0  0  0  0  0  0  0  0  0  0
    0.8918   -4.5937   36.0710 C   0  0  0  0  0  0  0  0  0  0  0  0
    0.4629   -5.4562   35.0600 N   0  0  0  0  0  0  0  0  0  0  0  0
   -0.7715   -6.3764   34.9853 C   0  0  0  0  0  0  0  0  0  0  0  0
   -1.5850   -6.6183   35.7875 O   0  0  0  0  0  0  0  0  0  0  0  0
   -0.9310   -7.0533   33.6574 C   0  0  0  0  0  0  0  0  0  0  0  0
   -1.6034   -8.2842   33.7250 C   0  0  0  0  0  0  0  0  0  0  0  0
   -1.9297   -8.9264   32.5559 C   0  0  0  0  0  0  0  0  0  0  0  0
   -1.6044   -8.4604   31.3409 N   0  0  0  0  0  0  0  0  0  0  0  0
   -0.9062   -7.2975   31.2832 C   0  0  0  0  0  0  0  0  0  0  0  0
   -0.4972   -6.7547   29.5017 Br  0  0  0  0  0  0  0  0  0  0  0  0
   -0.5757   -6.5323   32.4030 C   0  0  0  0  0  0  0  0  0  0  0  0
    0.1241   -4.9646   32.1992 Cl  0  0  0  0  0  0  0  0  0  0  0  0
  1  2  1  0
  2  3  2  0
  3  4  1  0
  4  5  1  0
  3  6  1  0
  6  7  2  0
  7  8  1  0
  7  9  1  0
  9 10  2  0
 10 11  1  0
 11 12  1  0
 12 13  2  0
 12 14  1  0
 14 15  2  0
 15 16  1  0
 16 17  2  0
 17 18  1  0
 18 19  1  0
 18 20  2  0
 20 21  1  0
 10  2  1  0
 20 14  1  0
M  END
>  <ref_mols>  (343) 
7gov-a

>  <gnina_score>  (343) 
5.047

>  <smina_score_min>  (343) 
-5.891

>  <ref_pdb>  (343) 
7gov-a

>  <inspiration_score>  (343) 
None

>  <inchikey>  (343) 
YQAOCOWLHCLFGP-UHFFFAOYSA-N

>  <tags>  (343) 
BulkDock Fragalysis export,openbind_d68ev3c_c2_elabs_scored,openbind_d68ev3c_c2_elabs_scored_4.5plus,openbind_d68ev3c_c2_elabs,openbind_d68ev3c_c2_elabs_scored_5plus,syndirella_product,openbind_d68ev3c_c2_elabs_scored_top80percent,syndirella_placed

>  <smiles>  (343) 
Cc1c(CO)cc(F)cc1NC(=O)c1ccnc(Br)c1Cl

>  <subsites>  (343) 
None

>  <rmsd(smina/fragmenstein)>  (343) 
1.181

>  <alias>  (343) 
None

>  <energy_score>  (343) 
-22.181104

>  <HIPPO Pose ID>  (343) 
65358

>  <distance_score>  (343) 
0.758628

>  <HIPPO Compound ID>  (343) 
102495

>  <gnina_score_min>  (343) 
5.008

>  <name>  (343) 
P65358

>  <exports>  (343) 
['/opt/xchem-fragalysis-2/maxwin/BulkDock/OUTPUTS/openbind_d68ev3c_c2_elabs_1LOTQJ3.sdf', '/opt/xchem-fragalysis-2/maxwin/BulkDock/OUTPUTS/openbind_d68ev3c_c2_elabs_1LSYEHW.sdf', '/opt/xchem-fragalysis-2/maxwin/BulkDock/OUTPUTS/openbind_d68ev3c_c2_elabs_1LSYI5W.sdf']

$$$$
P65359
     RDKit          3D

 21 23  0  0  0  0  0  0  0  0999 V2000
    0.7753   -7.0948   35.7299 O   0  0  0  0  0  0  0  0  0  0  0  0
    0.5918   -6.2616   34.9383 C   0  0  0  0  0  0  0  0  0  0  0  0
    0.8104   -4.7464   35.0211 N   0  0  0  0  0  0  0  0  0  0  0  0
    1.1964   -3.9511   36.0842 C   0  0  0  0  0  0  0  0  0  0  0  0
    0.7069   -4.2739   37.3532 C   0  0  0  0  0  0  0  0  0  0  0  0
    1.0349   -3.4722   38.4296 C   0  0  0  0  0  0  0  0  0  0  0  0
    0.5132   -3.7352   39.6351 F   0  0  0  0  0  0  0  0  0  0  0  0
    1.8819   -2.3879   38.2654 C   0  0  0  0  0  0  0  0  0  0  0  0
    2.3837   -2.0879   36.9941 C   0  0  0  0  0  0  0  0  0  0  0  0
    2.0293   -2.8431   35.8616 C   0  0  0  0  0  0  0  0  0  0  0  0
    2.6197   -2.5454   34.4981 C   0  0  0  0  0  0  0  0  0  0  0  0
    2.7458   -1.1221   34.0024 C   0  0  0  0  0  0  0  0  0  0  0  0
    1.7313   -2.0334   33.3852 C   0  0  0  0  0  0  0  0  0  0  0  0
   -0.0422   -6.6430   33.6573 C   0  0  0  0  0  0  0  0  0  0  0  0
    0.4730   -6.2158   32.4305 C   0  0  0  0  0  0  0  0  0  0  0  0
   -0.1269   -6.6774   31.2728 C   0  0  0  0  0  0  0  0  0  0  0  0
   -1.1768   -7.5175   31.2661 N   0  0  0  0  0  0  0  0  0  0  0  0
   -1.6308   -7.9191   32.4770 C   0  0  0  0  0  0  0  0  0  0  0  0
   -3.0087   -9.1746   32.4120 Br  0  0  0  0  0  0  0  0  0  0  0  0
   -1.1431   -7.4905   33.6976 C   0  0  0  0  0  0  0  0  0  0  0  0
   -1.9320   -7.9201   35.1774 Cl  0  0  0  0  0  0  0  0  0  0  0  0
  1  2  2  0
  2  3  1  0
  3  4  1  0
  4  5  2  0
  5  6  1  0
  6  7  1  0
  6  8  2  0
  8  9  1  0
  9 10  2  0
 10 11  1  0
 11 12  1  0
 12 13  1  0
  2 14  1  0
 14 15  2  0
 15 16  1  0
 16 17  2  0
 17 18  1  0
 18 19  1  0
 18 20  2  0
 20 21  1  0
 10  4  1  0
 13 11  1  0
 20 14  1  0
M  END
>  <ref_mols>  (344) 
7gov-a

>  <gnina_score>  (344) 
5.272

>  <smina_score_min>  (344) 
-4.57

>  <ref_pdb>  (344) 
7gov-a

>  <inspiration_score>  (344) 
None

>  <inchikey>  (344) 
RILPIUSODLMDPG-UHFFFAOYSA-N

>  <tags>  (344) 
BulkDock Fragalysis export,openbind_d68ev3c_c2_elabs_scored,openbind_d68ev3c_c2_elabs_scored_4.5plus,openbind_d68ev3c_c2_elabs,openbind_d68ev3c_c2_elabs_scored_5plus,syndirella_product,openbind_d68ev3c_c2_elabs_scored_top80percent,syndirella_placed

>  <smiles>  (344) 
O=C(Nc1cc(F)ccc1C1CC1)c1ccnc(Br)c1Cl

>  <subsites>  (344) 
None

>  <rmsd(smina/fragmenstein)>  (344) 
1.41

>  <alias>  (344) 
None

>  <energy_score>  (344) 
-11.773264

>  <HIPPO Pose ID>  (344) 
65359

>  <distance_score>  (344) 
0.867673

>  <HIPPO Compound ID>  (344) 
102496

>  <gnina_score_min>  (344) 
5.218

>  <name>  (344) 
P65359

>  <exports>  (344) 
['/opt/xchem-fragalysis-2/maxwin/BulkDock/OUTPUTS/openbind_d68ev3c_c2_elabs_1LOTQJ3.sdf', '/opt/xchem-fragalysis-2/maxwin/BulkDock/OUTPUTS/openbind_d68ev3c_c2_elabs_1LSYEHW.sdf', '/opt/xchem-fragalysis-2/maxwin/BulkDock/OUTPUTS/openbind_d68ev3c_c2_elabs_1LSYI5W.sdf']

$$$$
P65360
     RDKit          3D

 21 22  0  0  0  0  0  0  0  0999 V2000
    4.4114   -3.3948   34.7546 C   0  0  0  0  0  0  0  0  0  0  0  0
    3.0172   -3.9681   34.7463 C   0  0  0  0  0  0  0  0  0  0  0  0
    2.5957   -4.5580   33.7524 O   0  0  0  0  0  0  0  0  0  0  0  0
    2.1527   -3.8075   35.9620 C   0  0  0  0  0  0  0  0  0  0  0  0
    2.5719   -2.9760   37.0158 C   0  0  0  0  0  0  0  0  0  0  0  0
    1.8126   -2.8717   38.1824 C   0  0  0  0  0  0  0  0  0  0  0  0
    0.6308   -3.5875   38.2953 C   0  0  0  0  0  0  0  0  0  0  0  0
   -0.0855   -3.4987   39.4234 F   0  0  0  0  0  0  0  0  0  0  0  0
    0.1772   -4.3884   37.2559 C   0  0  0  0  0  0  0  0  0  0  0  0
    0.9298   -4.5036   36.0814 C   0  0  0  0  0  0  0  0  0  0  0  0
    0.4367   -5.2770   35.0279 N   0  0  0  0  0  0  0  0  0  0  0  0
   -0.7464   -6.2671   34.9787 C   0  0  0  0  0  0  0  0  0  0  0  0
   -1.5438   -6.5356   35.7900 O   0  0  0  0  0  0  0  0  0  0  0  0
   -0.9004   -6.9680   33.6629 C   0  0  0  0  0  0  0  0  0  0  0  0
   -1.5074   -8.2322   33.7576 C   0  0  0  0  0  0  0  0  0  0  0  0
   -1.8308   -8.9050   32.6035 C   0  0  0  0  0  0  0  0  0  0  0  0
   -1.5474   -8.4454   31.3757 N   0  0  0  0  0  0  0  0  0  0  0  0
   -0.9061   -7.2494   31.2933 C   0  0  0  0  0  0  0  0  0  0  0  0
   -0.5034   -6.7358   29.5010 Br  0  0  0  0  0  0  0  0  0  0  0  0
   -0.6175   -6.4400   32.3952 C   0  0  0  0  0  0  0  0  0  0  0  0
   -0.1210   -4.8026   32.1532 Cl  0  0  0  0  0  0  0  0  0  0  0  0
  1  2  1  0
  2  3  2  0
  2  4  1  0
  4  5  2  0
  5  6  1  0
  6  7  2  0
  7  8  1  0
  7  9  1  0
  9 10  2  0
 10 11  1  0
 11 12  1  0
 12 13  2  0
 12 14  1  0
 14 15  2  0
 15 16  1  0
 16 17  2  0
 17 18  1  0
 18 19  1  0
 18 20  2  0
 20 21  1  0
 10  4  1  0
 20 14  1  0
M  END
>  <ref_mols>  (345) 
7gov-a

>  <gnina_score>  (345) 
5.12

>  <smina_score_min>  (345) 
-6.165

>  <ref_pdb>  (345) 
7gov-a

>  <inspiration_score>  (345) 
None

>  <inchikey>  (345) 
KNBYSHGFDLNXSU-UHFFFAOYSA-N

>  <tags>  (345) 
BulkDock Fragalysis export,openbind_d68ev3c_c2_elabs_scored,openbind_d68ev3c_c2_elabs_scored_4.5plus,openbind_d68ev3c_c2_elabs,openbind_d68ev3c_c2_elabs_scored_5plus,syndirella_product,openbind_d68ev3c_c2_elabs_scored_top80percent,syndirella_placed

>  <smiles>  (345) 
CC(=O)c1ccc(F)cc1NC(=O)c1ccnc(Br)c1Cl

>  <subsites>  (345) 
None

>  <rmsd(smina/fragmenstein)>  (345) 
1.156

>  <alias>  (345) 
None

>  <energy_score>  (345) 
-26.904886

>  <HIPPO Pose ID>  (345) 
65360

>  <distance_score>  (345) 
0.758787

>  <HIPPO Compound ID>  (345) 
102497

>  <gnina_score_min>  (345) 
5.094

>  <name>  (345) 
P65360

>  <exports>  (345) 
['/opt/xchem-fragalysis-2/maxwin/BulkDock/OUTPUTS/openbind_d68ev3c_c2_elabs_1LOTQJ3.sdf', '/opt/xchem-fragalysis-2/maxwin/BulkDock/OUTPUTS/openbind_d68ev3c_c2_elabs_1LSYEHW.sdf', '/opt/xchem-fragalysis-2/maxwin/BulkDock/OUTPUTS/openbind_d68ev3c_c2_elabs_1LSYI5W.sdf']

$$$$
P65363
     RDKit          3D

 21 22  0  0  0  0  0  0  0  0999 V2000
    4.8875   -2.1992   37.1992 C   0  0  0  0  0  0  0  0  0  0  0  0
    3.5460   -1.7288   36.6600 C   0  0  0  0  0  0  0  0  0  0  0  0
    2.4441   -2.7496   36.8459 C   0  0  0  0  0  0  0  0  0  0  0  0
    1.7297   -2.7202   38.0551 C   0  0  0  0  0  0  0  0  0  0  0  0
    0.6706   -3.5890   38.2672 C   0  0  0  0  0  0  0  0  0  0  0  0
    0.0013   -3.5399   39.4272 F   0  0  0  0  0  0  0  0  0  0  0  0
    0.2783   -4.4870   37.2889 C   0  0  0  0  0  0  0  0  0  0  0  0
    0.9854   -4.5554   36.0868 C   0  0  0  0  0  0  0  0  0  0  0  0
    0.5516   -5.4276   35.0828 N   0  0  0  0  0  0  0  0  0  0  0  0
   -0.6775   -6.3589   35.0259 C   0  0  0  0  0  0  0  0  0  0  0  0
   -1.4806   -6.6036   35.8385 O   0  0  0  0  0  0  0  0  0  0  0  0
   -0.8648   -7.0323   33.6958 C   0  0  0  0  0  0  0  0  0  0  0  0
   -1.5649   -8.2492   33.7678 C   0  0  0  0  0  0  0  0  0  0  0  0
   -1.9229   -8.8847   32.6025 C   0  0  0  0  0  0  0  0  0  0  0  0
   -1.6078   -8.4248   31.3826 N   0  0  0  0  0  0  0  0  0  0  0  0
   -0.8843   -7.2768   31.3190 C   0  0  0  0  0  0  0  0  0  0  0  0
   -0.4878   -6.7399   29.5324 Br  0  0  0  0  0  0  0  0  0  0  0  0
   -0.5162   -6.5206   32.4357 C   0  0  0  0  0  0  0  0  0  0  0  0
    0.2263   -4.9736   32.2197 Cl  0  0  0  0  0  0  0  0  0  0  0  0
    2.1061   -3.7170   35.8656 C   0  0  0  0  0  0  0  0  0  0  0  0
    2.9038   -3.8280   34.5894 C   0  0  0  0  0  0  0  0  0  0  0  0
  1  2  1  0
  2  3  1  0
  3  4  2  0
  4  5  1  0
  5  6  1  0
  5  7  2  0
  7  8  1  0
  8  9  1  0
  9 10  1  0
 10 11  2  0
 10 12  1  0
 12 13  2  0
 13 14  1  0
 14 15  2  0
 15 16  1  0
 16 17  1  0
 16 18  2  0
 18 19  1  0
  8 20  2  0
 20 21  1  0
 20  3  1  0
 18 12  1  0
M  END
>  <ref_mols>  (346) 
7gov-a

>  <gnina_score>  (346) 
5.191

>  <smina_score_min>  (346) 
-5.647

>  <ref_pdb>  (346) 
7gov-a

>  <inspiration_score>  (346) 
None

>  <inchikey>  (346) 
HZBLZDOJNOKZRY-UHFFFAOYSA-N

>  <tags>  (346) 
BulkDock Fragalysis export,openbind_d68ev3c_c2_elabs_scored,openbind_d68ev3c_c2_elabs_scored_4.5plus,openbind_d68ev3c_c2_elabs,openbind_d68ev3c_c2_elabs_scored_5plus,syndirella_product,openbind_d68ev3c_c2_elabs_scored_top80percent,syndirella_placed

>  <smiles>  (346) 
CCc1cc(F)cc(NC(=O)c2ccnc(Br)c2Cl)c1C

>  <subsites>  (346) 
None

>  <rmsd(smina/fragmenstein)>  (346) 
1.205

>  <alias>  (346) 
None

>  <energy_score>  (346) 
-24.469235

>  <HIPPO Pose ID>  (346) 
65363

>  <distance_score>  (346) 
0.747108

>  <HIPPO Compound ID>  (346) 
102502

>  <gnina_score_min>  (346) 
5.174

>  <name>  (346) 
P65363

>  <exports>  (346) 
['/opt/xchem-fragalysis-2/maxwin/BulkDock/OUTPUTS/openbind_d68ev3c_c2_elabs_1LOTQJ3.sdf', '/opt/xchem-fragalysis-2/maxwin/BulkDock/OUTPUTS/openbind_d68ev3c_c2_elabs_1LSYEHW.sdf', '/opt/xchem-fragalysis-2/maxwin/BulkDock/OUTPUTS/openbind_d68ev3c_c2_elabs_1LSYI5W.sdf']

$$$$
P65364
     RDKit          3D

 21 22  0  0  0  0  0  0  0  0999 V2000
    2.3340   -1.6952   39.5119 C   0  0  0  0  0  0  0  0  0  0  0  0
    1.9755   -2.4912   38.2893 C   0  0  0  0  0  0  0  0  0  0  0  0
    1.0202   -3.5029   38.4003 C   0  0  0  0  0  0  0  0  0  0  0  0
    0.4040   -3.7278   39.5708 F   0  0  0  0  0  0  0  0  0  0  0  0
    0.6705   -4.2848   37.3148 C   0  0  0  0  0  0  0  0  0  0  0  0
    1.2510   -4.0354   36.0728 C   0  0  0  0  0  0  0  0  0  0  0  0
    0.8365   -4.8141   35.0109 N   0  0  0  0  0  0  0  0  0  0  0  0
    0.5982   -6.3240   34.9175 C   0  0  0  0  0  0  0  0  0  0  0  0
    0.7856   -7.1667   35.6969 O   0  0  0  0  0  0  0  0  0  0  0  0
   -0.0628   -6.6818   33.6453 C   0  0  0  0  0  0  0  0  0  0  0  0
    0.4479   -6.2527   32.4171 C   0  0  0  0  0  0  0  0  0  0  0  0
   -0.1608   -6.7073   31.2617 C   0  0  0  0  0  0  0  0  0  0  0  0
   -1.2161   -7.5404   31.2606 N   0  0  0  0  0  0  0  0  0  0  0  0
   -1.6672   -7.9392   32.4740 C   0  0  0  0  0  0  0  0  0  0  0  0
   -3.0591   -9.1774   32.4181 Br  0  0  0  0  0  0  0  0  0  0  0  0
   -1.1700   -7.5176   33.6924 C   0  0  0  0  0  0  0  0  0  0  0  0
   -1.9523   -7.9376   35.1777 Cl  0  0  0  0  0  0  0  0  0  0  0  0
    2.2098   -3.0345   35.8961 C   0  0  0  0  0  0  0  0  0  0  0  0
    2.9225   -2.8878   34.5764 C   0  0  0  0  0  0  0  0  0  0  0  0
    2.5785   -2.2753   37.0301 C   0  0  0  0  0  0  0  0  0  0  0  0
    3.9294   -0.9267   36.8653 Br  0  0  0  0  0  0  0  0  0  0  0  0
  1  2  1  0
  2  3  2  0
  3  4  1  0
  3  5  1  0
  5  6  2  0
  6  7  1  0
  7  8  1  0
  8  9  2  0
  8 10  1  0
 10 11  2  0
 11 12  1  0
 12 13  2  0
 13 14  1  0
 14 15  1  0
 14 16  2  0
 16 17  1  0
  6 18  1  0
 18 19  1  0
 18 20  2  0
 20 21  1  0
 20  2  1  0
 16 10  1  0
M  END
>  <ref_mols>  (347) 
7gov-a

>  <gnina_score>  (347) 
5.25

>  <smina_score_min>  (347) 
-5.336

>  <ref_pdb>  (347) 
7gov-a

>  <inspiration_score>  (347) 
None

>  <inchikey>  (347) 
DJGQSACTIWHGPU-UHFFFAOYSA-N

>  <tags>  (347) 
BulkDock Fragalysis export,openbind_d68ev3c_c2_elabs_scored,openbind_d68ev3c_c2_elabs_scored_4.5plus,openbind_d68ev3c_c2_elabs,openbind_d68ev3c_c2_elabs_scored_5plus,syndirella_product,openbind_d68ev3c_c2_elabs_scored_top80percent,syndirella_placed

>  <smiles>  (347) 
Cc1c(F)cc(NC(=O)c2ccnc(Br)c2Cl)c(C)c1Br

>  <subsites>  (347) 
None

>  <rmsd(smina/fragmenstein)>  (347) 
1.889

>  <alias>  (347) 
None

>  <energy_score>  (347) 
-4.772097

>  <HIPPO Pose ID>  (347) 
65364

>  <distance_score>  (347) 
0.775856

>  <HIPPO Compound ID>  (347) 
102503

>  <gnina_score_min>  (347) 
5.062

>  <name>  (347) 
P65364

>  <exports>  (347) 
['/opt/xchem-fragalysis-2/maxwin/BulkDock/OUTPUTS/openbind_d68ev3c_c2_elabs_1LOTQJ3.sdf', '/opt/xchem-fragalysis-2/maxwin/BulkDock/OUTPUTS/openbind_d68ev3c_c2_elabs_1LSYEHW.sdf', '/opt/xchem-fragalysis-2/maxwin/BulkDock/OUTPUTS/openbind_d68ev3c_c2_elabs_1LSYI5W.sdf']

$$$$
P65365
     RDKit          3D

 21 22  0  0  0  0  0  0  0  0999 V2000
    2.7251   -4.6215   33.7808 O   0  0  0  0  0  0  0  0  0  0  0  0
    3.0379   -3.9673   34.7678 C   0  0  0  0  0  0  0  0  0  0  0  0
    2.1667   -3.8443   35.9589 C   0  0  0  0  0  0  0  0  0  0  0  0
    2.6046   -2.9959   36.9855 C   0  0  0  0  0  0  0  0  0  0  0  0
    1.8556   -2.8879   38.1560 C   0  0  0  0  0  0  0  0  0  0  0  0
    2.4756   -1.7776   39.5557 Br  0  0  0  0  0  0  0  0  0  0  0  0
    0.6693   -3.6026   38.2910 C   0  0  0  0  0  0  0  0  0  0  0  0
   -0.0583   -3.5146   39.4142 F   0  0  0  0  0  0  0  0  0  0  0  0
    0.2152   -4.4262   37.2648 C   0  0  0  0  0  0  0  0  0  0  0  0
    0.9647   -4.5620   36.0923 C   0  0  0  0  0  0  0  0  0  0  0  0
    0.5147   -5.3961   35.0692 N   0  0  0  0  0  0  0  0  0  0  0  0
   -0.7273   -6.3095   34.9931 C   0  0  0  0  0  0  0  0  0  0  0  0
   -1.5287   -6.5674   35.8036 O   0  0  0  0  0  0  0  0  0  0  0  0
   -0.8970   -6.9908   33.6708 C   0  0  0  0  0  0  0  0  0  0  0  0
   -1.5255   -8.2453   33.7477 C   0  0  0  0  0  0  0  0  0  0  0  0
   -1.8520   -8.8981   32.5833 C   0  0  0  0  0  0  0  0  0  0  0  0
   -1.5559   -8.4253   31.3631 N   0  0  0  0  0  0  0  0  0  0  0  0
   -0.8969   -7.2376   31.2989 C   0  0  0  0  0  0  0  0  0  0  0  0
   -0.4835   -6.7011   29.5168 Br  0  0  0  0  0  0  0  0  0  0  0  0
   -0.5976   -6.4500   32.4130 C   0  0  0  0  0  0  0  0  0  0  0  0
   -0.0566   -4.8222   32.2049 Cl  0  0  0  0  0  0  0  0  0  0  0  0
  1  2  2  0
  2  3  1  0
  3  4  2  0
  4  5  1  0
  5  6  1  0
  5  7  2  0
  7  8  1  0
  7  9  1  0
  9 10  2  0
 10 11  1  0
 11 12  1  0
 12 13  2  0
 12 14  1  0
 14 15  2  0
 15 16  1  0
 16 17  2  0
 17 18  1  0
 18 19  1  0
 18 20  2  0
 20 21  1  0
 10  3  1  0
 20 14  1  0
M  END
>  <ref_mols>  (348) 
7gov-a

>  <gnina_score>  (348) 
5.216

>  <smina_score_min>  (348) 
-6.073

>  <ref_pdb>  (348) 
7gov-a

>  <inspiration_score>  (348) 
None

>  <inchikey>  (348) 
LUVBGIUNPNTSEQ-UHFFFAOYSA-N

>  <tags>  (348) 
BulkDock Fragalysis export,openbind_d68ev3c_c2_elabs_scored,openbind_d68ev3c_c2_elabs_scored_4.5plus,openbind_d68ev3c_c2_elabs,openbind_d68ev3c_c2_elabs_scored_5plus,syndirella_product,openbind_d68ev3c_c2_elabs_scored_top80percent,syndirella_placed

>  <smiles>  (348) 
O=Cc1cc(Br)c(F)cc1NC(=O)c1ccnc(Br)c1Cl

>  <subsites>  (348) 
None

>  <rmsd(smina/fragmenstein)>  (348) 
1.172

>  <alias>  (348) 
None

>  <energy_score>  (348) 
-28.234846

>  <HIPPO Pose ID>  (348) 
65365

>  <distance_score>  (348) 
0.754911

>  <HIPPO Compound ID>  (348) 
102507

>  <gnina_score_min>  (348) 
5.157

>  <name>  (348) 
P65365

>  <exports>  (348) 
['/opt/xchem-fragalysis-2/maxwin/BulkDock/OUTPUTS/openbind_d68ev3c_c2_elabs_1LOTQJ3.sdf', '/opt/xchem-fragalysis-2/maxwin/BulkDock/OUTPUTS/openbind_d68ev3c_c2_elabs_1LSYEHW.sdf', '/opt/xchem-fragalysis-2/maxwin/BulkDock/OUTPUTS/openbind_d68ev3c_c2_elabs_1LSYI5W.sdf']

$$$$
P65366
     RDKit          3D

 21 22  0  0  0  0  0  0  0  0999 V2000
    1.5107   -6.8971   35.2651 O   0  0  0  0  0  0  0  0  0  0  0  0
    0.6688   -6.2029   34.8624 C   0  0  0  0  0  0  0  0  0  0  0  0
    0.1942   -4.8300   35.3508 N   0  0  0  0  0  0  0  0  0  0  0  0
    0.6937   -4.0102   36.3371 C   0  0  0  0  0  0  0  0  0  0  0  0
   -0.1230   -3.7406   37.4285 C   0  0  0  0  0  0  0  0  0  0  0  0
    0.4330   -3.1187   38.5364 C   0  0  0  0  0  0  0  0  0  0  0  0
   -0.3250   -2.9747   39.6315 F   0  0  0  0  0  0  0  0  0  0  0  0
    1.7579   -2.6904   38.5277 C   0  0  0  0  0  0  0  0  0  0  0  0
    2.5025   -1.8346   40.0413 Br  0  0  0  0  0  0  0  0  0  0  0  0
    2.5523   -2.9039   37.4023 C   0  0  0  0  0  0  0  0  0  0  0  0
    2.0394   -3.5993   36.2978 C   0  0  0  0  0  0  0  0  0  0  0  0
    2.9415   -3.8659   35.1132 C   0  0  0  0  0  0  0  0  0  0  0  0
    2.4485   -3.2154   33.9404 O   0  0  0  0  0  0  0  0  0  0  0  0
   -0.0494   -6.5852   33.6430 C   0  0  0  0  0  0  0  0  0  0  0  0
    0.4208   -6.1294   32.4105 C   0  0  0  0  0  0  0  0  0  0  0  0
   -0.1925   -6.6078   31.2702 C   0  0  0  0  0  0  0  0  0  0  0  0
   -1.2212   -7.4757   31.2962 N   0  0  0  0  0  0  0  0  0  0  0  0
   -1.6249   -7.8987   32.5201 C   0  0  0  0  0  0  0  0  0  0  0  0
   -2.9905   -9.1671   32.4791 Br  0  0  0  0  0  0  0  0  0  0  0  0
   -1.1034   -7.4709   33.7270 C   0  0  0  0  0  0  0  0  0  0  0  0
   -1.7428   -7.9454   35.2530 Cl  0  0  0  0  0  0  0  0  0  0  0  0
  1  2  2  0
  2  3  1  0
  3  4  1  0
  4  5  2  0
  5  6  1  0
  6  7  1  0
  6  8  2  0
  8  9  1  0
  8 10  1  0
 10 11  2  0
 11 12  1  0
 12 13  1  0
  2 14  1  0
 14 15  2  0
 15 16  1  0
 16 17  2  0
 17 18  1  0
 18 19  1  0
 18 20  2  0
 20 21  1  0
 11  4  1  0
 20 14  1  0
M  END
>  <ref_mols>  (349) 
7gov-a

>  <gnina_score>  (349) 
5.178

>  <smina_score_min>  (349) 
-4.485

>  <ref_pdb>  (349) 
7gov-a

>  <inspiration_score>  (349) 
None

>  <inchikey>  (349) 
OAQLITPBIOEBNQ-UHFFFAOYSA-N

>  <tags>  (349) 
BulkDock Fragalysis export,openbind_d68ev3c_c2_elabs_scored,openbind_d68ev3c_c2_elabs_scored_4.5plus,openbind_d68ev3c_c2_elabs,openbind_d68ev3c_c2_elabs_scored_5plus,syndirella_product,openbind_d68ev3c_c2_elabs_scored_top80percent,syndirella_placed

>  <smiles>  (349) 
O=C(Nc1cc(F)c(Br)cc1CO)c1ccnc(Br)c1Cl

>  <subsites>  (349) 
None

>  <rmsd(smina/fragmenstein)>  (349) 
1.062

>  <alias>  (349) 
None

>  <energy_score>  (349) 
-6.323268

>  <HIPPO Pose ID>  (349) 
65366

>  <distance_score>  (349) 
0.74995

>  <HIPPO Compound ID>  (349) 
102508

>  <gnina_score_min>  (349) 
5.124

>  <name>  (349) 
P65366

>  <exports>  (349) 
['/opt/xchem-fragalysis-2/maxwin/BulkDock/OUTPUTS/openbind_d68ev3c_c2_elabs_1LOTQJ3.sdf', '/opt/xchem-fragalysis-2/maxwin/BulkDock/OUTPUTS/openbind_d68ev3c_c2_elabs_1LSYEHW.sdf', '/opt/xchem-fragalysis-2/maxwin/BulkDock/OUTPUTS/openbind_d68ev3c_c2_elabs_1LSYI5W.sdf']

$$$$
P65367
     RDKit          3D

 21 22  0  0  0  0  0  0  0  0999 V2000
    3.9044   -3.0505   34.3830 O   0  0  0  0  0  0  0  0  0  0  0  0
    3.1021   -3.9266   34.6872 C   0  0  0  0  0  0  0  0  0  0  0  0
    2.2379   -3.8148   35.8825 C   0  0  0  0  0  0  0  0  0  0  0  0
    2.6452   -2.9226   36.8877 C   0  0  0  0  0  0  0  0  0  0  0  0
    1.9139   -2.8243   38.0683 C   0  0  0  0  0  0  0  0  0  0  0  0
    2.4458   -1.7592   39.3116 Cl  0  0  0  0  0  0  0  0  0  0  0  0
    0.7653   -3.5904   38.2332 C   0  0  0  0  0  0  0  0  0  0  0  0
    0.0461   -3.5123   39.3630 F   0  0  0  0  0  0  0  0  0  0  0  0
    0.3342   -4.4523   37.2271 C   0  0  0  0  0  0  0  0  0  0  0  0
    1.0697   -4.5830   36.0424 C   0  0  0  0  0  0  0  0  0  0  0  0
    0.5950   -5.4322   35.0354 N   0  0  0  0  0  0  0  0  0  0  0  0
   -0.6331   -6.3657   35.0078 C   0  0  0  0  0  0  0  0  0  0  0  0
   -1.3998   -6.6329   35.8473 O   0  0  0  0  0  0  0  0  0  0  0  0
   -0.8492   -7.0335   33.6773 C   0  0  0  0  0  0  0  0  0  0  0  0
   -1.5686   -8.2390   33.7545 C   0  0  0  0  0  0  0  0  0  0  0  0
   -1.9403   -8.8715   32.5921 C   0  0  0  0  0  0  0  0  0  0  0  0
   -1.6229   -8.4171   31.3709 N   0  0  0  0  0  0  0  0  0  0  0  0
   -0.8841   -7.2796   31.3003 C   0  0  0  0  0  0  0  0  0  0  0  0
   -0.4928   -6.7501   29.5107 Br  0  0  0  0  0  0  0  0  0  0  0  0
   -0.4968   -6.5294   32.4141 C   0  0  0  0  0  0  0  0  0  0  0  0
    0.2878   -5.0030   32.1940 Cl  0  0  0  0  0  0  0  0  0  0  0  0
  1  2  2  0
  2  3  1  0
  3  4  2  0
  4  5  1  0
  5  6  1  0
  5  7  2  0
  7  8  1  0
  7  9  1  0
  9 10  2  0
 10 11  1  0
 11 12  1  0
 12 13  2  0
 12 14  1  0
 14 15  2  0
 15 16  1  0
 16 17  2  0
 17 18  1  0
 18 19  1  0
 18 20  2  0
 20 21  1  0
 10  3  1  0
 20 14  1  0
M  END
>  <ref_mols>  (350) 
7gov-a

>  <gnina_score>  (350) 
5.224

>  <smina_score_min>  (350) 
-5.673

>  <ref_pdb>  (350) 
7gov-a

>  <inspiration_score>  (350) 
None

>  <inchikey>  (350) 
VFNSJFWPVGKPFN-UHFFFAOYSA-N

>  <tags>  (350) 
BulkDock Fragalysis export,openbind_d68ev3c_c2_elabs_scored,openbind_d68ev3c_c2_elabs_scored_4.5plus,openbind_d68ev3c_c2_elabs,openbind_d68ev3c_c2_elabs_scored_5plus,syndirella_product,openbind_d68ev3c_c2_elabs_scored_top80percent,syndirella_placed

>  <smiles>  (350) 
O=Cc1cc(Cl)c(F)cc1NC(=O)c1ccnc(Br)c1Cl

>  <subsites>  (350) 
None

>  <rmsd(smina/fragmenstein)>  (350) 
1.173

>  <alias>  (350) 
None

>  <energy_score>  (350) 
-13.734649

>  <HIPPO Pose ID>  (350) 
65367

>  <distance_score>  (350) 
0.721994

>  <HIPPO Compound ID>  (350) 
102509

>  <gnina_score_min>  (350) 
5.101

>  <name>  (350) 
P65367

>  <exports>  (350) 
['/opt/xchem-fragalysis-2/maxwin/BulkDock/OUTPUTS/openbind_d68ev3c_c2_elabs_1LOTQJ3.sdf', '/opt/xchem-fragalysis-2/maxwin/BulkDock/OUTPUTS/openbind_d68ev3c_c2_elabs_1LSYEHW.sdf', '/opt/xchem-fragalysis-2/maxwin/BulkDock/OUTPUTS/openbind_d68ev3c_c2_elabs_1LSYI5W.sdf']

$$$$
P65368
     RDKit          3D

 21 22  0  0  0  0  0  0  0  0999 V2000
   -1.5185   -6.6032   35.8120 O   0  0  0  0  0  0  0  0  0  0  0  0
   -0.7258   -6.3339   34.9964 C   0  0  0  0  0  0  0  0  0  0  0  0
    0.5060   -5.4040   35.0656 N   0  0  0  0  0  0  0  0  0  0  0  0
    0.9524   -4.5648   36.0880 C   0  0  0  0  0  0  0  0  0  0  0  0
    0.1726   -4.4068   37.2393 C   0  0  0  0  0  0  0  0  0  0  0  0
    0.5898   -3.5530   38.2528 C   0  0  0  0  0  0  0  0  0  0  0  0
   -0.1476   -3.4382   39.3652 F   0  0  0  0  0  0  0  0  0  0  0  0
    1.7595   -2.8205   38.1338 C   0  0  0  0  0  0  0  0  0  0  0  0
    2.5404   -2.9686   36.9901 C   0  0  0  0  0  0  0  0  0  0  0  0
    2.1594   -3.8550   35.9613 C   0  0  0  0  0  0  0  0  0  0  0  0
    3.1350   -4.0764   34.8342 C   0  0  0  0  0  0  0  0  0  0  0  0
    3.7420   -2.9250   34.4237 F   0  0  0  0  0  0  0  0  0  0  0  0
    2.5755   -4.6080   33.7105 F   0  0  0  0  0  0  0  0  0  0  0  0
   -0.9013   -7.0095   33.6707 C   0  0  0  0  0  0  0  0  0  0  0  0
   -1.5400   -8.2590   33.7449 C   0  0  0  0  0  0  0  0  0  0  0  0
   -1.8700   -8.9080   32.5795 C   0  0  0  0  0  0  0  0  0  0  0  0
   -1.5692   -8.4362   31.3604 N   0  0  0  0  0  0  0  0  0  0  0  0
   -0.9038   -7.2530   31.2973 C   0  0  0  0  0  0  0  0  0  0  0  0
   -0.4894   -6.7168   29.5152 Br  0  0  0  0  0  0  0  0  0  0  0  0
   -0.5958   -6.4709   32.4128 C   0  0  0  0  0  0  0  0  0  0  0  0
   -0.0207   -4.8554   32.2037 Cl  0  0  0  0  0  0  0  0  0  0  0  0
  1  2  2  0
  2  3  1  0
  3  4  1  0
  4  5  2  0
  5  6  1  0
  6  7  1  0
  6  8  2  0
  8  9  1  0
  9 10  2  0
 10 11  1  0
 11 12  1  0
 11 13  1  0
  2 14  1  0
 14 15  2  0
 15 16  1  0
 16 17  2  0
 17 18  1  0
 18 19  1  0
 18 20  2  0
 20 21  1  0
 10  4  1  0
 20 14  1  0
M  END
>  <ref_mols>  (351) 
7gov-a

>  <gnina_score>  (351) 
5.121

>  <smina_score_min>  (351) 
-5.708

>  <ref_pdb>  (351) 
7gov-a

>  <inspiration_score>  (351) 
None

>  <inchikey>  (351) 
NWEVIIPUDLMBQW-UHFFFAOYSA-N

>  <tags>  (351) 
BulkDock Fragalysis export,openbind_d68ev3c_c2_elabs_scored,openbind_d68ev3c_c2_elabs_scored_4.5plus,openbind_d68ev3c_c2_elabs,openbind_d68ev3c_c2_elabs_scored_5plus,syndirella_product,openbind_d68ev3c_c2_elabs_scored_top80percent,syndirella_placed

>  <smiles>  (351) 
O=C(Nc1cc(F)ccc1C(F)F)c1ccnc(Br)c1Cl

>  <subsites>  (351) 
None

>  <rmsd(smina/fragmenstein)>  (351) 
1.091

>  <alias>  (351) 
None

>  <energy_score>  (351) 
-17.589044

>  <HIPPO Pose ID>  (351) 
65368

>  <distance_score>  (351) 
0.757459

>  <HIPPO Compound ID>  (351) 
102510

>  <gnina_score_min>  (351) 
5.02

>  <name>  (351) 
P65368

>  <exports>  (351) 
['/opt/xchem-fragalysis-2/maxwin/BulkDock/OUTPUTS/openbind_d68ev3c_c2_elabs_1LOTQJ3.sdf', '/opt/xchem-fragalysis-2/maxwin/BulkDock/OUTPUTS/openbind_d68ev3c_c2_elabs_1LSYEHW.sdf', '/opt/xchem-fragalysis-2/maxwin/BulkDock/OUTPUTS/openbind_d68ev3c_c2_elabs_1LSYI5W.sdf']

$$$$
P65369
     RDKit          3D

 21 22  0  0  0  0  0  0  0  0999 V2000
    3.5283   -3.9019   33.6438 C   0  0  0  0  0  0  0  0  0  0  0  0
    2.8927   -3.8497   34.6614 C   0  0  0  0  0  0  0  0  0  0  0  0
    2.1371   -3.7880   35.8805 C   0  0  0  0  0  0  0  0  0  0  0  0
    2.5709   -2.9163   36.8853 C   0  0  0  0  0  0  0  0  0  0  0  0
    1.8739   -2.8489   38.0858 C   0  0  0  0  0  0  0  0  0  0  0  0
    2.3010   -2.0181   39.0477 F   0  0  0  0  0  0  0  0  0  0  0  0
    0.7422   -3.6274   38.2874 C   0  0  0  0  0  0  0  0  0  0  0  0
    0.0732   -3.5543   39.4469 F   0  0  0  0  0  0  0  0  0  0  0  0
    0.2892   -4.4879   37.2930 C   0  0  0  0  0  0  0  0  0  0  0  0
    0.9905   -4.5821   36.0865 C   0  0  0  0  0  0  0  0  0  0  0  0
    0.5491   -5.4470   35.0815 N   0  0  0  0  0  0  0  0  0  0  0  0
   -0.7003   -6.3479   35.0125 C   0  0  0  0  0  0  0  0  0  0  0  0
   -1.5191   -6.5695   35.8153 O   0  0  0  0  0  0  0  0  0  0  0  0
   -0.8794   -7.0274   33.6869 C   0  0  0  0  0  0  0  0  0  0  0  0
   -1.5688   -8.2494   33.7604 C   0  0  0  0  0  0  0  0  0  0  0  0
   -1.9170   -8.8889   32.5946 C   0  0  0  0  0  0  0  0  0  0  0  0
   -1.6006   -8.4275   31.3752 N   0  0  0  0  0  0  0  0  0  0  0  0
   -0.8871   -7.2730   31.3119 C   0  0  0  0  0  0  0  0  0  0  0  0
   -0.4865   -6.7350   29.5269 Br  0  0  0  0  0  0  0  0  0  0  0  0
   -0.5321   -6.5118   32.4285 C   0  0  0  0  0  0  0  0  0  0  0  0
    0.1864   -4.9529   32.2190 Cl  0  0  0  0  0  0  0  0  0  0  0  0
  1  2  3  0
  2  3  1  0
  3  4  2  0
  4  5  1  0
  5  6  1  0
  5  7  2  0
  7  8  1  0
  7  9  1  0
  9 10  2  0
 10 11  1  0
 11 12  1  0
 12 13  2  0
 12 14  1  0
 14 15  2  0
 15 16  1  0
 16 17  2  0
 17 18  1  0
 18 19  1  0
 18 20  2  0
 20 21  1  0
 10  3  1  0
 20 14  1  0
M  END
>  <ref_mols>  (352) 
7gov-a

>  <gnina_score>  (352) 
5.282

>  <smina_score_min>  (352) 
-5.739

>  <ref_pdb>  (352) 
7gov-a

>  <inspiration_score>  (352) 
None

>  <inchikey>  (352) 
VNLMYRQAYIXINA-UHFFFAOYSA-N

>  <tags>  (352) 
BulkDock Fragalysis export,openbind_d68ev3c_c2_elabs_scored,openbind_d68ev3c_c2_elabs_scored_4.5plus,openbind_d68ev3c_c2_elabs,openbind_d68ev3c_c2_elabs_scored_5plus,syndirella_product,openbind_d68ev3c_c2_elabs_scored_top80percent,syndirella_placed

>  <smiles>  (352) 
C#Cc1cc(F)c(F)cc1NC(=O)c1ccnc(Br)c1Cl

>  <subsites>  (352) 
None

>  <rmsd(smina/fragmenstein)>  (352) 
1.138

>  <alias>  (352) 
None

>  <energy_score>  (352) 
-14.839081

>  <HIPPO Pose ID>  (352) 
65369

>  <distance_score>  (352) 
0.748705

>  <HIPPO Compound ID>  (352) 
102511

>  <gnina_score_min>  (352) 
5.17

>  <name>  (352) 
P65369

>  <exports>  (352) 
['/opt/xchem-fragalysis-2/maxwin/BulkDock/OUTPUTS/openbind_d68ev3c_c2_elabs_1LOTQJ3.sdf', '/opt/xchem-fragalysis-2/maxwin/BulkDock/OUTPUTS/openbind_d68ev3c_c2_elabs_1LSYEHW.sdf', '/opt/xchem-fragalysis-2/maxwin/BulkDock/OUTPUTS/openbind_d68ev3c_c2_elabs_1LSYI5W.sdf']

$$$$
P65370
     RDKit          3D

 21 22  0  0  0  0  0  0  0  0999 V2000
    2.7561   -3.0209   33.9301 C   0  0  0  0  0  0  0  0  0  0  0  0
    2.7491   -4.1799   34.9163 C   0  0  0  0  0  0  0  0  0  0  0  0
    1.8342   -3.9034   36.0880 C   0  0  0  0  0  0  0  0  0  0  0  0
    2.3615   -3.1653   37.1642 C   0  0  0  0  0  0  0  0  0  0  0  0
    1.5880   -2.9045   38.2905 C   0  0  0  0  0  0  0  0  0  0  0  0
    2.3529   -1.9949   39.7607 Br  0  0  0  0  0  0  0  0  0  0  0  0
    0.2658   -3.3297   38.3273 C   0  0  0  0  0  0  0  0  0  0  0  0
   -0.4793   -3.1411   39.4253 F   0  0  0  0  0  0  0  0  0  0  0  0
   -0.3043   -3.9899   37.2442 C   0  0  0  0  0  0  0  0  0  0  0  0
    0.4854   -4.3009   36.1394 C   0  0  0  0  0  0  0  0  0  0  0  0
   -0.0705   -5.1260   35.1749 N   0  0  0  0  0  0  0  0  0  0  0  0
    0.2642   -6.5770   34.7874 C   0  0  0  0  0  0  0  0  0  0  0  0
    1.0077   -7.3350   35.2680 O   0  0  0  0  0  0  0  0  0  0  0  0
   -0.5123   -7.0462   33.6227 C   0  0  0  0  0  0  0  0  0  0  0  0
   -1.4219   -8.0785   33.8679 C   0  0  0  0  0  0  0  0  0  0  0  0
   -2.0597   -8.6408   32.7849 C   0  0  0  0  0  0  0  0  0  0  0  0
   -1.8320   -8.2675   31.5102 N   0  0  0  0  0  0  0  0  0  0  0  0
   -0.9037   -7.2929   31.2977 C   0  0  0  0  0  0  0  0  0  0  0  0
   -0.5947   -6.9126   29.4544 Br  0  0  0  0  0  0  0  0  0  0  0  0
   -0.2381   -6.6224   32.3186 C   0  0  0  0  0  0  0  0  0  0  0  0
    0.8560   -5.3334   31.9843 Cl  0  0  0  0  0  0  0  0  0  0  0  0
  1  2  1  0
  2  3  1  0
  3  4  2  0
  4  5  1  0
  5  6  1  0
  5  7  2  0
  7  8  1  0
  7  9  1  0
  9 10  2  0
 10 11  1  0
 11 12  1  0
 12 13  2  0
 12 14  1  0
 14 15  2  0
 15 16  1  0
 16 17  2  0
 17 18  1  0
 18 19  1  0
 18 20  2  0
 20 21  1  0
 10  3  1  0
 20 14  1  0
M  END
>  <ref_mols>  (353) 
7gov-a

>  <gnina_score>  (353) 
5.259

>  <smina_score_min>  (353) 
-5.934

>  <ref_pdb>  (353) 
7gov-a

>  <inspiration_score>  (353) 
None

>  <inchikey>  (353) 
LNJMMTFGDMNCAK-UHFFFAOYSA-N

>  <tags>  (353) 
BulkDock Fragalysis export,openbind_d68ev3c_c2_elabs_scored,openbind_d68ev3c_c2_elabs_scored_4.5plus,openbind_d68ev3c_c2_elabs,openbind_d68ev3c_c2_elabs_scored_5plus,syndirella_product,openbind_d68ev3c_c2_elabs_scored_top80percent,syndirella_placed

>  <smiles>  (353) 
CCc1cc(Br)c(F)cc1NC(=O)c1ccnc(Br)c1Cl

>  <subsites>  (353) 
None

>  <rmsd(smina/fragmenstein)>  (353) 
1.098

>  <alias>  (353) 
None

>  <energy_score>  (353) 
-0.27668

>  <HIPPO Pose ID>  (353) 
65370

>  <distance_score>  (353) 
0.358647

>  <HIPPO Compound ID>  (353) 
102513

>  <gnina_score_min>  (353) 
5.098

>  <name>  (353) 
P65370

>  <exports>  (353) 
['/opt/xchem-fragalysis-2/maxwin/BulkDock/OUTPUTS/openbind_d68ev3c_c2_elabs_1LOTQJ3.sdf', '/opt/xchem-fragalysis-2/maxwin/BulkDock/OUTPUTS/openbind_d68ev3c_c2_elabs_1LSYEHW.sdf', '/opt/xchem-fragalysis-2/maxwin/BulkDock/OUTPUTS/openbind_d68ev3c_c2_elabs_1LSYI5W.sdf']

$$$$
P65372
     RDKit          3D

 21 22  0  0  0  0  0  0  0  0999 V2000
    3.5327   -3.9493   33.6930 N   0  0  0  0  0  0  0  0  0  0  0  0
    2.9299   -3.8928   34.6835 C   0  0  0  0  0  0  0  0  0  0  0  0
    2.1615   -3.8094   35.8936 C   0  0  0  0  0  0  0  0  0  0  0  0
    2.6008   -2.9151   36.8866 C   0  0  0  0  0  0  0  0  0  0  0  0
    1.9102   -2.8019   38.0908 C   0  0  0  0  0  0  0  0  0  0  0  0
    0.7808   -3.5795   38.2971 C   0  0  0  0  0  0  0  0  0  0  0  0
    0.1247   -3.4800   39.4620 F   0  0  0  0  0  0  0  0  0  0  0  0
    0.3243   -4.4566   37.3159 C   0  0  0  0  0  0  0  0  0  0  0  0
   -0.7745   -5.1662   37.5972 F   0  0  0  0  0  0  0  0  0  0  0  0
    1.0034   -4.5905   36.0949 C   0  0  0  0  0  0  0  0  0  0  0  0
    0.5570   -5.4423   35.0643 N   0  0  0  0  0  0  0  0  0  0  0  0
   -0.6603   -6.3908   35.0031 C   0  0  0  0  0  0  0  0  0  0  0  0
   -1.4412   -6.6742   35.8240 O   0  0  0  0  0  0  0  0  0  0  0  0
   -0.8520   -7.0482   33.6672 C   0  0  0  0  0  0  0  0  0  0  0  0
   -1.5527   -8.2659   33.7281 C   0  0  0  0  0  0  0  0  0  0  0  0
   -1.9136   -8.8887   32.5580 C   0  0  0  0  0  0  0  0  0  0  0  0
   -1.5978   -8.4156   31.3435 N   0  0  0  0  0  0  0  0  0  0  0  0
   -0.8739   -7.2667   31.2898 C   0  0  0  0  0  0  0  0  0  0  0  0
   -0.4776   -6.7138   29.5086 Br  0  0  0  0  0  0  0  0  0  0  0  0
   -0.5070   -6.5208   32.4131 C   0  0  0  0  0  0  0  0  0  0  0  0
    0.2242   -4.9663   32.2167 Cl  0  0  0  0  0  0  0  0  0  0  0  0
  1  2  3  0
  2  3  1  0
  3  4  2  0
  4  5  1  0
  5  6  2  0
  6  7  1  0
  6  8  1  0
  8  9  1  0
  8 10  2  0
 10 11  1  0
 11 12  1  0
 12 13  2  0
 12 14  1  0
 14 15  2  0
 15 16  1  0
 16 17  2  0
 17 18  1  0
 18 19  1  0
 18 20  2  0
 20 21  1  0
 10  3  1  0
 20 14  1  0
M  END
>  <ref_mols>  (354) 
7gov-a

>  <gnina_score>  (354) 
5.266

>  <smina_score_min>  (354) 
-5.405

>  <ref_pdb>  (354) 
7gov-a

>  <inspiration_score>  (354) 
None

>  <inchikey>  (354) 
HYAVWRYCZKDECK-UHFFFAOYSA-N

>  <tags>  (354) 
BulkDock Fragalysis export,openbind_d68ev3c_c2_elabs_scored,openbind_d68ev3c_c2_elabs_scored_4.5plus,openbind_d68ev3c_c2_elabs,openbind_d68ev3c_c2_elabs_scored_5plus,syndirella_product,openbind_d68ev3c_c2_elabs_scored_top80percent,syndirella_placed

>  <smiles>  (354) 
N#Cc1ccc(F)c(F)c1NC(=O)c1ccnc(Br)c1Cl

>  <subsites>  (354) 
None

>  <rmsd(smina/fragmenstein)>  (354) 
0.673

>  <alias>  (354) 
None

>  <energy_score>  (354) 
-11.004987

>  <HIPPO Pose ID>  (354) 
65372

>  <distance_score>  (354) 
0.727228

>  <HIPPO Compound ID>  (354) 
102523

>  <gnina_score_min>  (354) 
5.137

>  <name>  (354) 
P65372

>  <exports>  (354) 
['/opt/xchem-fragalysis-2/maxwin/BulkDock/OUTPUTS/openbind_d68ev3c_c2_elabs_1LOTQJ3.sdf', '/opt/xchem-fragalysis-2/maxwin/BulkDock/OUTPUTS/openbind_d68ev3c_c2_elabs_1LSYEHW.sdf', '/opt/xchem-fragalysis-2/maxwin/BulkDock/OUTPUTS/openbind_d68ev3c_c2_elabs_1LSYI5W.sdf']

$$$$
P65375
     RDKit          3D

 21 22  0  0  0  0  0  0  0  0999 V2000
    3.1635   -3.4905   33.0772 N   0  0  0  0  0  0  0  0  0  0  0  0
    2.7671   -3.4896   34.1686 C   0  0  0  0  0  0  0  0  0  0  0  0
    2.2108   -3.4703   35.4892 C   0  0  0  0  0  0  0  0  0  0  0  0
    2.8094   -2.6627   36.4701 C   0  0  0  0  0  0  0  0  0  0  0  0
    2.3155   -2.6513   37.7746 C   0  0  0  0  0  0  0  0  0  0  0  0
    1.2299   -3.4513   38.0986 C   0  0  0  0  0  0  0  0  0  0  0  0
    0.7356   -3.3940   39.3466 F   0  0  0  0  0  0  0  0  0  0  0  0
    0.6360   -4.2700   37.1367 C   0  0  0  0  0  0  0  0  0  0  0  0
   -0.9141   -5.1959   37.6667 Br  0  0  0  0  0  0  0  0  0  0  0  0
    1.1179   -4.2861   35.8165 C   0  0  0  0  0  0  0  0  0  0  0  0
    0.5145   -5.0747   34.8245 N   0  0  0  0  0  0  0  0  0  0  0  0
    0.2319   -6.5917   34.7841 C   0  0  0  0  0  0  0  0  0  0  0  0
    0.3860   -7.4106   35.5989 O   0  0  0  0  0  0  0  0  0  0  0  0
   -0.4327   -7.0134   33.5157 C   0  0  0  0  0  0  0  0  0  0  0  0
    0.0498   -6.5744   32.2818 C   0  0  0  0  0  0  0  0  0  0  0  0
   -0.5979   -7.0220   31.1453 C   0  0  0  0  0  0  0  0  0  0  0  0
   -0.2324   -6.3694   29.6076 Cl  0  0  0  0  0  0  0  0  0  0  0  0
   -1.6327   -7.8908   31.1350 N   0  0  0  0  0  0  0  0  0  0  0  0
   -2.0495   -8.3242   32.3407 C   0  0  0  0  0  0  0  0  0  0  0  0
   -1.5209   -7.8932   33.5435 C   0  0  0  0  0  0  0  0  0  0  0  0
   -2.4547   -8.4334   35.0836 Br  0  0  0  0  0  0  0  0  0  0  0  0
  1  2  3  0
  2  3  1  0
  3  4  2  0
  4  5  1  0
  5  6  2  0
  6  7  1  0
  6  8  1  0
  8  9  1  0
  8 10  2  0
 10 11  1  0
 11 12  1  0
 12 13  2  0
 12 14  1  0
 14 15  2  0
 15 16  1  0
 16 17  1  0
 16 18  2  0
 18 19  1  0
 19 20  2  0
 20 21  1  0
 10  3  1  0
 20 14  1  0
M  END
>  <ref_mols>  (355) 
7gov-a

>  <gnina_score>  (355) 
5.49

>  <smina_score_min>  (355) 
-4.751

>  <ref_pdb>  (355) 
7gov-a

>  <inspiration_score>  (355) 
None

>  <inchikey>  (355) 
RPAMDQLJOZSVLC-UHFFFAOYSA-N

>  <tags>  (355) 
BulkDock Fragalysis export,openbind_d68ev3c_c2_elabs_scored,openbind_d68ev3c_c2_elabs_scored_4.5plus,openbind_d68ev3c_c2_elabs,openbind_d68ev3c_c2_elabs_scored_5plus,syndirella_product,openbind_d68ev3c_c2_elabs_scored_top80percent,syndirella_placed

>  <smiles>  (355) 
N#Cc1ccc(F)c(Br)c1NC(=O)c1cc(Cl)ncc1Br

>  <subsites>  (355) 
None

>  <rmsd(smina/fragmenstein)>  (355) 
0.369

>  <alias>  (355) 
None

>  <energy_score>  (355) 
-18.191292

>  <HIPPO Pose ID>  (355) 
65375

>  <distance_score>  (355) 
0.555734

>  <HIPPO Compound ID>  (355) 
102530

>  <gnina_score_min>  (355) 
5.344

>  <name>  (355) 
P65375

>  <exports>  (355) 
['/opt/xchem-fragalysis-2/maxwin/BulkDock/OUTPUTS/openbind_d68ev3c_c2_elabs_1LOTQJ3.sdf', '/opt/xchem-fragalysis-2/maxwin/BulkDock/OUTPUTS/openbind_d68ev3c_c2_elabs_1LSYEHW.sdf', '/opt/xchem-fragalysis-2/maxwin/BulkDock/OUTPUTS/openbind_d68ev3c_c2_elabs_1LSYI5W.sdf']

$$$$
P65376
     RDKit          3D

 21 22  0  0  0  0  0  0  0  0999 V2000
    2.3542   -1.7344   39.5456 C   0  0  0  0  0  0  0  0  0  0  0  0
    2.0180   -2.6016   38.3656 C   0  0  0  0  0  0  0  0  0  0  0  0
    0.8787   -3.4021   38.4231 C   0  0  0  0  0  0  0  0  0  0  0  0
    0.1049   -3.3986   39.5190 F   0  0  0  0  0  0  0  0  0  0  0  0
    0.5016   -4.2039   37.3601 C   0  0  0  0  0  0  0  0  0  0  0  0
    1.2888   -4.2569   36.2096 C   0  0  0  0  0  0  0  0  0  0  0  0
    0.8636   -5.0502   35.1465 N   0  0  0  0  0  0  0  0  0  0  0  0
   -0.3314   -6.0069   35.0310 C   0  0  0  0  0  0  0  0  0  0  0  0
   -1.1096   -6.3453   35.8317 O   0  0  0  0  0  0  0  0  0  0  0  0
   -0.5027   -6.5874   33.6536 C   0  0  0  0  0  0  0  0  0  0  0  0
   -1.3519   -7.6958   33.6436 C   0  0  0  0  0  0  0  0  0  0  0  0
   -1.7477   -8.2016   32.4347 C   0  0  0  0  0  0  0  0  0  0  0  0
   -2.9917   -9.3290   32.3831 Cl  0  0  0  0  0  0  0  0  0  0  0  0
   -1.3286   -7.7882   31.2322 N   0  0  0  0  0  0  0  0  0  0  0  0
   -0.4438   -6.7728   31.2594 C   0  0  0  0  0  0  0  0  0  0  0  0
   -0.0313   -6.1140   32.4203 C   0  0  0  0  0  0  0  0  0  0  0  0
    1.0444   -4.5843   32.1344 Br  0  0  0  0  0  0  0  0  0  0  0  0
    2.4743   -3.5040   36.1168 C   0  0  0  0  0  0  0  0  0  0  0  0
    3.3514   -3.6137   34.8947 C   0  0  0  0  0  0  0  0  0  0  0  0
    2.8047   -2.6460   37.1951 C   0  0  0  0  0  0  0  0  0  0  0  0
    4.3362   -1.4974   37.0810 Br  0  0  0  0  0  0  0  0  0  0  0  0
  1  2  1  0
  2  3  2  0
  3  4  1  0
  3  5  1  0
  5  6  2  0
  6  7  1  0
  7  8  1  0
  8  9  2  0
  8 10  1  0
 10 11  2  0
 11 12  1  0
 12 13  1  0
 12 14  2  0
 14 15  1  0
 15 16  2  0
 16 17  1  0
  6 18  1  0
 18 19  1  0
 18 20  2  0
 20 21  1  0
 20  2  1  0
 16 10  1  0
M  END
>  <ref_mols>  (356) 
7gov-a

>  <gnina_score>  (356) 
5.314

>  <smina_score_min>  (356) 
-5.881

>  <ref_pdb>  (356) 
7gov-a

>  <inspiration_score>  (356) 
None

>  <inchikey>  (356) 
LVMWKGHHJXSFLP-UHFFFAOYSA-N

>  <tags>  (356) 
BulkDock Fragalysis export,openbind_d68ev3c_c2_elabs_scored,openbind_d68ev3c_c2_elabs_scored_4.5plus,openbind_d68ev3c_c2_elabs,openbind_d68ev3c_c2_elabs_scored_5plus,syndirella_product,openbind_d68ev3c_c2_elabs_scored_top80percent,syndirella_placed

>  <smiles>  (356) 
Cc1c(F)cc(NC(=O)c2cc(Cl)ncc2Br)c(C)c1Br

>  <subsites>  (356) 
None

>  <rmsd(smina/fragmenstein)>  (356) 
1.261

>  <alias>  (356) 
None

>  <energy_score>  (356) 
-26.688937

>  <HIPPO Pose ID>  (356) 
65376

>  <distance_score>  (356) 
0.859054

>  <HIPPO Compound ID>  (356) 
102532

>  <gnina_score_min>  (356) 
5.171

>  <name>  (356) 
P65376

>  <exports>  (356) 
['/opt/xchem-fragalysis-2/maxwin/BulkDock/OUTPUTS/openbind_d68ev3c_c2_elabs_1LOTQJ3.sdf', '/opt/xchem-fragalysis-2/maxwin/BulkDock/OUTPUTS/openbind_d68ev3c_c2_elabs_1LSYEHW.sdf', '/opt/xchem-fragalysis-2/maxwin/BulkDock/OUTPUTS/openbind_d68ev3c_c2_elabs_1LSYI5W.sdf']

$$$$
P65377
     RDKit          3D

 21 22  0  0  0  0  0  0  0  0999 V2000
    2.5599   -3.5823   34.4460 C   0  0  0  0  0  0  0  0  0  0  0  0
    1.9163   -3.5851   35.8104 C   0  0  0  0  0  0  0  0  0  0  0  0
    2.4236   -2.8054   36.8743 C   0  0  0  0  0  0  0  0  0  0  0  0
    3.5447   -1.9236   36.7080 C   0  0  0  0  0  0  0  0  0  0  0  0
    4.4390   -1.1941   36.5802 N   0  0  0  0  0  0  0  0  0  0  0  0
    1.8414   -2.8765   38.1472 C   0  0  0  0  0  0  0  0  0  0  0  0
    0.7804   -3.7386   38.3730 C   0  0  0  0  0  0  0  0  0  0  0  0
    0.2230   -3.7941   39.5894 F   0  0  0  0  0  0  0  0  0  0  0  0
    0.2833   -4.5362   37.3563 C   0  0  0  0  0  0  0  0  0  0  0  0
    0.8371   -4.4504   36.0772 C   0  0  0  0  0  0  0  0  0  0  0  0
    0.2888   -5.2398   35.0721 N   0  0  0  0  0  0  0  0  0  0  0  0
   -0.3250   -6.6556   35.1315 C   0  0  0  0  0  0  0  0  0  0  0  0
   -0.5363   -7.3490   36.0436 O   0  0  0  0  0  0  0  0  0  0  0  0
   -0.7688   -7.1629   33.7809 C   0  0  0  0  0  0  0  0  0  0  0  0
   -0.1593   -6.7226   32.5984 C   0  0  0  0  0  0  0  0  0  0  0  0
   -0.6749   -7.1525   31.3889 C   0  0  0  0  0  0  0  0  0  0  0  0
   -0.1957   -6.4095   29.9240 Cl  0  0  0  0  0  0  0  0  0  0  0  0
   -1.6702   -8.0489   31.2550 N   0  0  0  0  0  0  0  0  0  0  0  0
   -2.1864   -8.5236   32.4059 C   0  0  0  0  0  0  0  0  0  0  0  0
   -1.8159   -8.0919   33.6706 C   0  0  0  0  0  0  0  0  0  0  0  0
   -2.9297   -8.7148   35.0663 Br  0  0  0  0  0  0  0  0  0  0  0  0
  1  2  1  0
  2  3  2  0
  3  4  1  0
  4  5  3  0
  3  6  1  0
  6  7  2  0
  7  8  1  0
  7  9  1  0
  9 10  2  0
 10 11  1  0
 11 12  1  0
 12 13  2  0
 12 14  1  0
 14 15  2  0
 15 16  1  0
 16 17  1  0
 16 18  2  0
 18 19  1  0
 19 20  2  0
 20 21  1  0
 10  2  1  0
 20 14  1  0
M  END
>  <ref_mols>  (357) 
7gov-a

>  <gnina_score>  (357) 
5.291

>  <smina_score_min>  (357) 
-5.723

>  <ref_pdb>  (357) 
7gov-a

>  <inspiration_score>  (357) 
None

>  <inchikey>  (357) 
ZBRIMRJZPNLPJE-UHFFFAOYSA-N

>  <tags>  (357) 
BulkDock Fragalysis export,openbind_d68ev3c_c2_elabs_scored,openbind_d68ev3c_c2_elabs_scored_4.5plus,openbind_d68ev3c_c2_elabs,openbind_d68ev3c_c2_elabs_scored_5plus,syndirella_product,openbind_d68ev3c_c2_elabs_scored_top80percent,syndirella_placed

>  <smiles>  (357) 
Cc1c(C#N)cc(F)cc1NC(=O)c1cc(Cl)ncc1Br

>  <subsites>  (357) 
None

>  <rmsd(smina/fragmenstein)>  (357) 
1.03

>  <alias>  (357) 
None

>  <energy_score>  (357) 
-8.716727

>  <HIPPO Pose ID>  (357) 
65377

>  <distance_score>  (357) 
0.558685

>  <HIPPO Compound ID>  (357) 
102533

>  <gnina_score_min>  (357) 
5.254

>  <name>  (357) 
P65377

>  <exports>  (357) 
['/opt/xchem-fragalysis-2/maxwin/BulkDock/OUTPUTS/openbind_d68ev3c_c2_elabs_1LOTQJ3.sdf', '/opt/xchem-fragalysis-2/maxwin/BulkDock/OUTPUTS/openbind_d68ev3c_c2_elabs_1LSYEHW.sdf', '/opt/xchem-fragalysis-2/maxwin/BulkDock/OUTPUTS/openbind_d68ev3c_c2_elabs_1LSYI5W.sdf']

$$$$
P65379
     RDKit          3D

 21 22  0  0  0  0  0  0  0  0999 V2000
    3.6725   -5.0125   34.7103 C   0  0  0  0  0  0  0  0  0  0  0  0
    2.4719   -4.0817   34.5388 C   0  0  0  0  0  0  0  0  0  0  0  0
    2.9058   -2.7503   33.9138 C   0  0  0  0  0  0  0  0  0  0  0  0
    1.7119   -3.8760   35.8446 C   0  0  0  0  0  0  0  0  0  0  0  0
    2.3102   -3.1579   36.8964 C   0  0  0  0  0  0  0  0  0  0  0  0
    1.6406   -2.9636   38.1043 C   0  0  0  0  0  0  0  0  0  0  0  0
    0.3604   -3.4727   38.2653 C   0  0  0  0  0  0  0  0  0  0  0  0
   -0.2625   -3.3222   39.4413 F   0  0  0  0  0  0  0  0  0  0  0  0
   -0.2739   -4.1604   37.2407 C   0  0  0  0  0  0  0  0  0  0  0  0
    0.4082   -4.3767   36.0455 C   0  0  0  0  0  0  0  0  0  0  0  0
   -0.1868   -5.2007   35.1056 N   0  0  0  0  0  0  0  0  0  0  0  0
    0.0959   -6.6676   34.7418 C   0  0  0  0  0  0  0  0  0  0  0  0
    0.8209   -7.4393   35.2261 O   0  0  0  0  0  0  0  0  0  0  0  0
   -0.6205   -7.0769   33.5245 C   0  0  0  0  0  0  0  0  0  0  0  0
   -0.1277   -6.6314   32.2985 C   0  0  0  0  0  0  0  0  0  0  0  0
   -0.7316   -7.1243   31.1645 C   0  0  0  0  0  0  0  0  0  0  0  0
   -0.3308   -6.5366   29.6102 Cl  0  0  0  0  0  0  0  0  0  0  0  0
   -1.7423   -8.0215   31.1674 N   0  0  0  0  0  0  0  0  0  0  0  0
   -2.1686   -8.4474   32.3758 C   0  0  0  0  0  0  0  0  0  0  0  0
   -1.6672   -7.9854   33.5739 C   0  0  0  0  0  0  0  0  0  0  0  0
   -2.5380   -8.5090   35.1431 Br  0  0  0  0  0  0  0  0  0  0  0  0
  1  2  1  0
  2  3  1  0
  2  4  1  0
  4  5  2  0
  5  6  1  0
  6  7  2  0
  7  8  1  0
  7  9  1  0
  9 10  2  0
 10 11  1  0
 11 12  1  0
 12 13  2  0
 12 14  1  0
 14 15  2  0
 15 16  1  0
 16 17  1  0
 16 18  2  0
 18 19  1  0
 19 20  2  0
 20 21  1  0
 10  4  1  0
 20 14  1  0
M  END
>  <ref_mols>  (358) 
7gov-a

>  <gnina_score>  (358) 
5.346

>  <smina_score_min>  (358) 
-5.891

>  <ref_pdb>  (358) 
7gov-a

>  <inspiration_score>  (358) 
None

>  <inchikey>  (358) 
ZXYMZQHJYPLEHD-UHFFFAOYSA-N

>  <tags>  (358) 
BulkDock Fragalysis export,openbind_d68ev3c_c2_elabs_scored,openbind_d68ev3c_c2_elabs_scored_4.5plus,openbind_d68ev3c_c2_elabs,openbind_d68ev3c_c2_elabs_scored_5plus,syndirella_product,openbind_d68ev3c_c2_elabs_scored_top80percent,syndirella_placed

>  <smiles>  (358) 
CC(C)c1ccc(F)cc1NC(=O)c1cc(Cl)ncc1Br

>  <subsites>  (358) 
None

>  <rmsd(smina/fragmenstein)>  (358) 
0.918

>  <alias>  (358) 
None

>  <energy_score>  (358) 
-16.715605

>  <HIPPO Pose ID>  (358) 
65379

>  <distance_score>  (358) 
0.350038

>  <HIPPO Compound ID>  (358) 
102538

>  <gnina_score_min>  (358) 
5.409

>  <name>  (358) 
P65379

>  <exports>  (358) 
['/opt/xchem-fragalysis-2/maxwin/BulkDock/OUTPUTS/openbind_d68ev3c_c2_elabs_1LOTQJ3.sdf', '/opt/xchem-fragalysis-2/maxwin/BulkDock/OUTPUTS/openbind_d68ev3c_c2_elabs_1LSYEHW.sdf', '/opt/xchem-fragalysis-2/maxwin/BulkDock/OUTPUTS/openbind_d68ev3c_c2_elabs_1LSYI5W.sdf']

$$$$
P65380
     RDKit          3D

 21 23  0  0  0  0  0  0  0  0999 V2000
    1.1266   -7.4350   35.3766 O   0  0  0  0  0  0  0  0  0  0  0  0
    0.4488   -6.6010   34.9346 C   0  0  0  0  0  0  0  0  0  0  0  0
   -0.0284   -5.2830   35.5456 N   0  0  0  0  0  0  0  0  0  0  0  0
    0.1362   -4.7843   36.7818 N   0  0  0  0  0  0  0  0  0  0  0  0
   -1.0235   -4.4330   37.5875 C   0  0  0  0  0  0  0  0  0  0  0  0
   -0.5101   -3.5789   38.7485 C   0  0  0  0  0  0  0  0  0  0  0  0
    0.7566   -3.0547   38.1548 C   0  0  0  0  0  0  0  0  0  0  0  0
    1.5605   -2.0702   38.6825 C   0  0  0  0  0  0  0  0  0  0  0  0
    2.7326   -1.7939   37.9968 C   0  0  0  0  0  0  0  0  0  0  0  0
    3.0651   -2.5040   36.8356 C   0  0  0  0  0  0  0  0  0  0  0  0
    4.2089   -2.2016   36.2036 F   0  0  0  0  0  0  0  0  0  0  0  0
    2.2499   -3.5060   36.3235 C   0  0  0  0  0  0  0  0  0  0  0  0
    1.0850   -3.7786   37.0016 C   0  0  0  0  0  0  0  0  0  0  0  0
   -0.1546   -6.8334   33.6204 C   0  0  0  0  0  0  0  0  0  0  0  0
   -1.1396   -7.8129   33.6378 C   0  0  0  0  0  0  0  0  0  0  0  0
   -1.7269   -8.1171   32.4409 C   0  0  0  0  0  0  0  0  0  0  0  0
   -3.0045   -9.2173   32.4010 Cl  0  0  0  0  0  0  0  0  0  0  0  0
   -1.4175   -7.5658   31.2529 N   0  0  0  0  0  0  0  0  0  0  0  0
   -0.4274   -6.6389   31.2778 C   0  0  0  0  0  0  0  0  0  0  0  0
    0.2154   -6.2136   32.4336 C   0  0  0  0  0  0  0  0  0  0  0  0
    1.5195   -4.8554   32.3264 Br  0  0  0  0  0  0  0  0  0  0  0  0
  1  2  2  0
  2  3  1  0
  3  4  1  0
  4  5  1  0
  5  6  1  0
  6  7  1  0
  7  8  2  0
  8  9  1  0
  9 10  2  0
 10 11  1  0
 10 12  1  0
 12 13  2  0
  2 14  1  0
 14 15  2  0
 15 16  1  0
 16 17  1  0
 16 18  2  0
 18 19  1  0
 19 20  2  0
 20 21  1  0
 13  4  1  0
 20 14  1  0
 13  7  1  0
M  END
>  <ref_mols>  (359) 
7gov-a

>  <gnina_score>  (359) 
5.118

>  <smina_score_min>  (359) 
-5.537

>  <ref_pdb>  (359) 
7gov-a

>  <inspiration_score>  (359) 
None

>  <inchikey>  (359) 
OVOBEBMTJGSCJE-UHFFFAOYSA-N

>  <tags>  (359) 
BulkDock Fragalysis export,openbind_d68ev3c_c2_elabs_scored,openbind_d68ev3c_c2_elabs_scored_4.5plus,openbind_d68ev3c_c2_elabs,openbind_d68ev3c_c2_elabs_scored_5plus,syndirella_product,openbind_d68ev3c_c2_elabs_scored_top80percent,syndirella_placed

>  <smiles>  (359) 
O=C(NN1CCc2ccc(F)cc21)c1cc(Cl)ncc1Br

>  <subsites>  (359) 
None

>  <rmsd(smina/fragmenstein)>  (359) 
0.537

>  <alias>  (359) 
None

>  <energy_score>  (359) 
-1.089633

>  <HIPPO Pose ID>  (359) 
65380

>  <distance_score>  (359) 
1.609753

>  <HIPPO Compound ID>  (359) 
102539

>  <gnina_score_min>  (359) 
5.118

>  <name>  (359) 
P65380

>  <exports>  (359) 
['/opt/xchem-fragalysis-2/maxwin/BulkDock/OUTPUTS/openbind_d68ev3c_c2_elabs_1LOTQJ3.sdf', '/opt/xchem-fragalysis-2/maxwin/BulkDock/OUTPUTS/openbind_d68ev3c_c2_elabs_1LSYEHW.sdf', '/opt/xchem-fragalysis-2/maxwin/BulkDock/OUTPUTS/openbind_d68ev3c_c2_elabs_1LSYI5W.sdf']

$$$$
P65381
     RDKit          3D

 21 22  0  0  0  0  0  0  0  0999 V2000
    1.8874   -2.4966   33.4877 C   0  0  0  0  0  0  0  0  0  0  0  0
    2.6002   -3.4514   34.4337 C   0  0  0  0  0  0  0  0  0  0  0  0
    1.9067   -3.5402   35.7735 C   0  0  0  0  0  0  0  0  0  0  0  0
    2.3544   -2.7159   36.8219 C   0  0  0  0  0  0  0  0  0  0  0  0
    1.7928   -2.8198   38.0956 C   0  0  0  0  0  0  0  0  0  0  0  0
    2.4238   -1.7025   39.4850 Br  0  0  0  0  0  0  0  0  0  0  0  0
    0.7804   -3.7420   38.3328 C   0  0  0  0  0  0  0  0  0  0  0  0
    0.2106   -3.8411   39.5435 F   0  0  0  0  0  0  0  0  0  0  0  0
    0.3288   -4.5710   37.3132 C   0  0  0  0  0  0  0  0  0  0  0  0
    0.8812   -4.4649   36.0346 C   0  0  0  0  0  0  0  0  0  0  0  0
    0.4043   -5.2853   35.0207 N   0  0  0  0  0  0  0  0  0  0  0  0
   -0.2518   -6.6806   35.0855 C   0  0  0  0  0  0  0  0  0  0  0  0
   -0.4246   -7.3920   35.9918 O   0  0  0  0  0  0  0  0  0  0  0  0
   -0.7375   -7.1673   33.7437 C   0  0  0  0  0  0  0  0  0  0  0  0
   -0.1435   -6.7328   32.5511 C   0  0  0  0  0  0  0  0  0  0  0  0
   -0.6824   -7.1600   31.3516 C   0  0  0  0  0  0  0  0  0  0  0  0
   -0.2156   -6.4336   29.8746 Cl  0  0  0  0  0  0  0  0  0  0  0  0
   -1.6890   -8.0462   31.2366 N   0  0  0  0  0  0  0  0  0  0  0  0
   -2.1937   -8.5115   32.3963 C   0  0  0  0  0  0  0  0  0  0  0  0
   -1.7978   -8.0822   33.6533 C   0  0  0  0  0  0  0  0  0  0  0  0
   -2.8919   -8.6906   35.0692 Br  0  0  0  0  0  0  0  0  0  0  0  0
  1  2  1  0
  2  3  1  0
  3  4  2  0
  4  5  1  0
  5  6  1  0
  5  7  2  0
  7  8  1  0
  7  9  1  0
  9 10  2  0
 10 11  1  0
 11 12  1  0
 12 13  2  0
 12 14  1  0
 14 15  2  0
 15 16  1  0
 16 17  1  0
 16 18  2  0
 18 19  1  0
 19 20  2  0
 20 21  1  0
 10  3  1  0
 20 14  1  0
M  END
>  <ref_mols>  (360) 
7gov-a

>  <gnina_score>  (360) 
5.436

>  <smina_score_min>  (360) 
-5.69

>  <ref_pdb>  (360) 
7gov-a

>  <inspiration_score>  (360) 
None

>  <inchikey>  (360) 
FMKZGTWNSFUOMZ-UHFFFAOYSA-N

>  <tags>  (360) 
BulkDock Fragalysis export,openbind_d68ev3c_c2_elabs_scored,openbind_d68ev3c_c2_elabs_scored_4.5plus,openbind_d68ev3c_c2_elabs,openbind_d68ev3c_c2_elabs_scored_5plus,syndirella_product,openbind_d68ev3c_c2_elabs_scored_top80percent,syndirella_placed

>  <smiles>  (360) 
CCc1cc(Br)c(F)cc1NC(=O)c1cc(Cl)ncc1Br

>  <subsites>  (360) 
None

>  <rmsd(smina/fragmenstein)>  (360) 
1.011

>  <alias>  (360) 
None

>  <energy_score>  (360) 
-29.845942

>  <HIPPO Pose ID>  (360) 
65381

>  <distance_score>  (360) 
0.546821

>  <HIPPO Compound ID>  (360) 
102540

>  <gnina_score_min>  (360) 
5.407

>  <name>  (360) 
P65381

>  <exports>  (360) 
['/opt/xchem-fragalysis-2/maxwin/BulkDock/OUTPUTS/openbind_d68ev3c_c2_elabs_1LOTQJ3.sdf', '/opt/xchem-fragalysis-2/maxwin/BulkDock/OUTPUTS/openbind_d68ev3c_c2_elabs_1LSYEHW.sdf', '/opt/xchem-fragalysis-2/maxwin/BulkDock/OUTPUTS/openbind_d68ev3c_c2_elabs_1LSYI5W.sdf']

$$$$
P65383
     RDKit          3D

 21 22  0  0  0  0  0  0  0  0999 V2000
    3.0312   -3.3357   33.3853 C   0  0  0  0  0  0  0  0  0  0  0  0
    2.5209   -3.4168   34.4694 C   0  0  0  0  0  0  0  0  0  0  0  0
    1.9105   -3.5114   35.7655 C   0  0  0  0  0  0  0  0  0  0  0  0
    2.3788   -2.6883   36.7940 C   0  0  0  0  0  0  0  0  0  0  0  0
    1.8304   -2.7996   38.0681 C   0  0  0  0  0  0  0  0  0  0  0  0
    2.2723   -1.9935   39.0443 F   0  0  0  0  0  0  0  0  0  0  0  0
    0.8264   -3.7242   38.3268 C   0  0  0  0  0  0  0  0  0  0  0  0
    0.2809   -3.8037   39.5487 F   0  0  0  0  0  0  0  0  0  0  0  0
    0.3657   -4.5639   37.3198 C   0  0  0  0  0  0  0  0  0  0  0  0
    0.9032   -4.4552   36.0344 C   0  0  0  0  0  0  0  0  0  0  0  0
    0.4300   -5.2820   35.0201 N   0  0  0  0  0  0  0  0  0  0  0  0
   -0.2505   -6.6650   35.0901 C   0  0  0  0  0  0  0  0  0  0  0  0
   -0.4516   -7.3619   36.0017 O   0  0  0  0  0  0  0  0  0  0  0  0
   -0.7302   -7.1586   33.7459 C   0  0  0  0  0  0  0  0  0  0  0  0
   -0.1373   -6.7258   32.5518 C   0  0  0  0  0  0  0  0  0  0  0  0
   -0.6758   -7.1544   31.3523 C   0  0  0  0  0  0  0  0  0  0  0  0
   -0.2109   -6.4274   29.8748 Cl  0  0  0  0  0  0  0  0  0  0  0  0
   -1.6812   -8.0420   31.2371 N   0  0  0  0  0  0  0  0  0  0  0  0
   -2.1849   -8.5068   32.3970 C   0  0  0  0  0  0  0  0  0  0  0  0
   -1.7898   -8.0756   33.6542 C   0  0  0  0  0  0  0  0  0  0  0  0
   -2.8865   -8.6884   35.0670 Br  0  0  0  0  0  0  0  0  0  0  0  0
  1  2  3  0
  2  3  1  0
  3  4  2  0
  4  5  1  0
  5  6  1  0
  5  7  2  0
  7  8  1  0
  7  9  1  0
  9 10  2  0
 10 11  1  0
 11 12  1  0
 12 13  2  0
 12 14  1  0
 14 15  2  0
 15 16  1  0
 16 17  1  0
 16 18  2  0
 18 19  1  0
 19 20  2  0
 20 21  1  0
 10  3  1  0
 20 14  1  0
M  END
>  <ref_mols>  (361) 
7gov-a

>  <gnina_score>  (361) 
5.384

>  <smina_score_min>  (361) 
-5.713

>  <ref_pdb>  (361) 
7gov-a

>  <inspiration_score>  (361) 
None

>  <inchikey>  (361) 
CFVWSGHXBZFTMA-UHFFFAOYSA-N

>  <tags>  (361) 
BulkDock Fragalysis export,openbind_d68ev3c_c2_elabs_scored,openbind_d68ev3c_c2_elabs_scored_4.5plus,openbind_d68ev3c_c2_elabs,openbind_d68ev3c_c2_elabs_scored_5plus,syndirella_product,openbind_d68ev3c_c2_elabs_scored_top80percent,syndirella_placed

>  <smiles>  (361) 
C#Cc1cc(F)c(F)cc1NC(=O)c1cc(Cl)ncc1Br

>  <subsites>  (361) 
None

>  <rmsd(smina/fragmenstein)>  (361) 
1.075

>  <alias>  (361) 
None

>  <energy_score>  (361) 
-14.396706

>  <HIPPO Pose ID>  (361) 
65383

>  <distance_score>  (361) 
0.562075

>  <HIPPO Compound ID>  (361) 
102542

>  <gnina_score_min>  (361) 
5.353

>  <name>  (361) 
P65383

>  <exports>  (361) 
['/opt/xchem-fragalysis-2/maxwin/BulkDock/OUTPUTS/openbind_d68ev3c_c2_elabs_1LOTQJ3.sdf', '/opt/xchem-fragalysis-2/maxwin/BulkDock/OUTPUTS/openbind_d68ev3c_c2_elabs_1LSYEHW.sdf', '/opt/xchem-fragalysis-2/maxwin/BulkDock/OUTPUTS/openbind_d68ev3c_c2_elabs_1LSYI5W.sdf']

$$$$
P65384
     RDKit          3D

 21 22  0  0  0  0  0  0  0  0999 V2000
    3.4522   -3.8385   33.6365 C   0  0  0  0  0  0  0  0  0  0  0  0
    2.8272   -3.8077   34.6614 C   0  0  0  0  0  0  0  0  0  0  0  0
    2.0957   -3.7689   35.8972 C   0  0  0  0  0  0  0  0  0  0  0  0
    2.6011   -2.9568   36.9223 C   0  0  0  0  0  0  0  0  0  0  0  0
    1.9559   -2.9053   38.1552 C   0  0  0  0  0  0  0  0  0  0  0  0
    2.6054   -1.9190   39.4091 Cl  0  0  0  0  0  0  0  0  0  0  0  0
    0.8000   -3.6462   38.3620 C   0  0  0  0  0  0  0  0  0  0  0  0
    0.1612   -3.5956   39.5419 F   0  0  0  0  0  0  0  0  0  0  0  0
    0.2846   -4.4438   37.3443 C   0  0  0  0  0  0  0  0  0  0  0  0
   -0.8485   -5.1083   37.6020 F   0  0  0  0  0  0  0  0  0  0  0  0
    0.9233   -4.5275   36.0992 C   0  0  0  0  0  0  0  0  0  0  0  0
    0.4257   -5.3001   35.0361 N   0  0  0  0  0  0  0  0  0  0  0  0
   -0.6882   -6.3680   35.0080 C   0  0  0  0  0  0  0  0  0  0  0  0
   -1.4207   -6.7198   35.8467 O   0  0  0  0  0  0  0  0  0  0  0  0
   -0.8714   -7.0195   33.6623 C   0  0  0  0  0  0  0  0  0  0  0  0
   -1.6047   -8.2209   33.6917 C   0  0  0  0  0  0  0  0  0  0  0  0
   -1.9388   -8.8403   32.5053 C   0  0  0  0  0  0  0  0  0  0  0  0
   -1.5685   -8.3815   31.2960 N   0  0  0  0  0  0  0  0  0  0  0  0
   -0.8187   -7.2540   31.2851 C   0  0  0  0  0  0  0  0  0  0  0  0
   -0.4718   -6.5231   32.4169 C   0  0  0  0  0  0  0  0  0  0  0  0
    0.3453   -5.0345   32.1348 Cl  0  0  0  0  0  0  0  0  0  0  0  0
  1  2  3  0
  2  3  1  0
  3  4  2  0
  4  5  1  0
  5  6  1  0
  5  7  2  0
  7  8  1  0
  7  9  1  0
  9 10  1  0
  9 11  2  0
 11 12  1  0
 12 13  1  0
 13 14  2  0
 13 15  1  0
 15 16  2  0
 16 17  1  0
 17 18  2  0
 18 19  1  0
 19 20  2  0
 20 21  1  0
 11  3  1  0
 20 15  1  0
M  END
>  <ref_mols>  (362) 
7gov-a

>  <gnina_score>  (362) 
5.161

>  <smina_score_min>  (362) 
-5.531

>  <ref_pdb>  (362) 
7gov-a

>  <inspiration_score>  (362) 
None

>  <inchikey>  (362) 
DIIXQWBBASXYMS-UHFFFAOYSA-N

>  <tags>  (362) 
BulkDock Fragalysis export,openbind_d68ev3c_c2_elabs_scored,openbind_d68ev3c_c2_elabs_scored_4.5plus,openbind_d68ev3c_c2_elabs,openbind_d68ev3c_c2_elabs_scored_5plus,syndirella_product,openbind_d68ev3c_c2_elabs_scored_top80percent,syndirella_placed

>  <smiles>  (362) 
C#Cc1cc(Cl)c(F)c(F)c1NC(=O)c1ccncc1Cl

>  <subsites>  (362) 
None

>  <rmsd(smina/fragmenstein)>  (362) 
0.932

>  <alias>  (362) 
None

>  <energy_score>  (362) 
-7.424392

>  <HIPPO Pose ID>  (362) 
65384

>  <distance_score>  (362) 
0.715834

>  <HIPPO Compound ID>  (362) 
102543

>  <gnina_score_min>  (362) 
5.022

>  <name>  (362) 
P65384

>  <exports>  (362) 
['/opt/xchem-fragalysis-2/maxwin/BulkDock/OUTPUTS/openbind_d68ev3c_c2_elabs_1LOTQJ3.sdf', '/opt/xchem-fragalysis-2/maxwin/BulkDock/OUTPUTS/openbind_d68ev3c_c2_elabs_1LSYEHW.sdf', '/opt/xchem-fragalysis-2/maxwin/BulkDock/OUTPUTS/openbind_d68ev3c_c2_elabs_1LSYI5W.sdf']

$$$$
P65386
     RDKit          3D

 21 22  0  0  0  0  0  0  0  0999 V2000
    4.4452   -3.6848   34.5796 C   0  0  0  0  0  0  0  0  0  0  0  0
    2.9709   -3.9956   34.5868 C   0  0  0  0  0  0  0  0  0  0  0  0
    2.3930   -4.3517   33.5589 O   0  0  0  0  0  0  0  0  0  0  0  0
    2.2075   -3.8483   35.8640 C   0  0  0  0  0  0  0  0  0  0  0  0
    2.6773   -2.9872   36.8657 C   0  0  0  0  0  0  0  0  0  0  0  0
    1.9751   -2.8716   38.0617 C   0  0  0  0  0  0  0  0  0  0  0  0
    2.4433   -2.0548   39.0162 F   0  0  0  0  0  0  0  0  0  0  0  0
    0.8026   -3.5848   38.2661 C   0  0  0  0  0  0  0  0  0  0  0  0
    0.1349   -3.4686   39.4222 F   0  0  0  0  0  0  0  0  0  0  0  0
    0.3069   -4.4194   37.2726 C   0  0  0  0  0  0  0  0  0  0  0  0
    1.0070   -4.5612   36.0682 C   0  0  0  0  0  0  0  0  0  0  0  0
    0.4971   -5.3852   35.0662 N   0  0  0  0  0  0  0  0  0  0  0  0
   -0.7786   -6.2569   35.0358 C   0  0  0  0  0  0  0  0  0  0  0  0
   -1.6405   -6.3616   35.8141 O   0  0  0  0  0  0  0  0  0  0  0  0
   -0.9605   -7.0080   33.7339 C   0  0  0  0  0  0  0  0  0  0  0  0
   -0.3789   -6.5636   32.5340 C   0  0  0  0  0  0  0  0  0  0  0  0
   -0.6590   -7.2342   31.3511 C   0  0  0  0  0  0  0  0  0  0  0  0
   -1.4974   -8.2856   31.2661 N   0  0  0  0  0  0  0  0  0  0  0  0
   -2.0436   -8.7025   32.4293 C   0  0  0  0  0  0  0  0  0  0  0  0
   -1.8264   -8.1108   33.6655 C   0  0  0  0  0  0  0  0  0  0  0  0
   -2.7478   -8.7614   34.9673 Cl  0  0  0  0  0  0  0  0  0  0  0  0
  1  2  1  0
  2  3  2  0
  2  4  1  0
  4  5  2  0
  5  6  1  0
  6  7  1  0
  6  8  2  0
  8  9  1  0
  8 10  1  0
 10 11  2  0
 11 12  1  0
 12 13  1  0
 13 14  2  0
 13 15  1  0
 15 16  2  0
 16 17  1  0
 17 18  2  0
 18 19  1  0
 19 20  2  0
 20 21  1  0
 11  4  1  0
 20 15  1  0
M  END
>  <ref_mols>  (363) 
7gov-a

>  <gnina_score>  (363) 
5.082

>  <smina_score_min>  (363) 
-5.694

>  <ref_pdb>  (363) 
7gov-a

>  <inspiration_score>  (363) 
None

>  <inchikey>  (363) 
MMKOXGUTCFPTBF-UHFFFAOYSA-N

>  <tags>  (363) 
BulkDock Fragalysis export,openbind_d68ev3c_c2_elabs_scored,openbind_d68ev3c_c2_elabs_scored_4.5plus,openbind_d68ev3c_c2_elabs,openbind_d68ev3c_c2_elabs_scored_5plus,syndirella_product,openbind_d68ev3c_c2_elabs_scored_top80percent,syndirella_placed

>  <smiles>  (363) 
CC(=O)c1cc(F)c(F)cc1NC(=O)c1ccncc1Cl

>  <subsites>  (363) 
None

>  <rmsd(smina/fragmenstein)>  (363) 
1.314

>  <alias>  (363) 
None

>  <energy_score>  (363) 
-23.467409

>  <HIPPO Pose ID>  (363) 
65386

>  <distance_score>  (363) 
0.807147

>  <HIPPO Compound ID>  (363) 
102545

>  <gnina_score_min>  (363) 
5.005

>  <name>  (363) 
P65386

>  <exports>  (363) 
['/opt/xchem-fragalysis-2/maxwin/BulkDock/OUTPUTS/openbind_d68ev3c_c2_elabs_1LOTQJ3.sdf', '/opt/xchem-fragalysis-2/maxwin/BulkDock/OUTPUTS/openbind_d68ev3c_c2_elabs_1LSYEHW.sdf', '/opt/xchem-fragalysis-2/maxwin/BulkDock/OUTPUTS/openbind_d68ev3c_c2_elabs_1LSYI5W.sdf']

$$$$
P65388
     RDKit          3D

 21 22  0  0  0  0  0  0  0  0999 V2000
    2.0814   -4.2183   33.6901 O   0  0  0  0  0  0  0  0  0  0  0  0
    2.5495   -4.2574   34.8228 C   0  0  0  0  0  0  0  0  0  0  0  0
    1.7261   -3.9856   36.0224 C   0  0  0  0  0  0  0  0  0  0  0  0
    2.3394   -3.2947   37.0719 C   0  0  0  0  0  0  0  0  0  0  0  0
    1.6056   -3.0087   38.2194 C   0  0  0  0  0  0  0  0  0  0  0  0
    2.4509   -2.1412   39.6719 Br  0  0  0  0  0  0  0  0  0  0  0  0
    0.2616   -3.3723   38.2946 C   0  0  0  0  0  0  0  0  0  0  0  0
   -0.4367   -3.1535   39.4171 F   0  0  0  0  0  0  0  0  0  0  0  0
   -0.3757   -4.0048   37.2293 C   0  0  0  0  0  0  0  0  0  0  0  0
    0.3663   -4.3387   36.1015 C   0  0  0  0  0  0  0  0  0  0  0  0
   -0.2071   -5.1703   35.1539 N   0  0  0  0  0  0  0  0  0  0  0  0
    0.1504   -6.6070   34.7387 C   0  0  0  0  0  0  0  0  0  0  0  0
    0.9336   -7.3477   35.1797 O   0  0  0  0  0  0  0  0  0  0  0  0
   -0.5776   -7.0238   33.5282 C   0  0  0  0  0  0  0  0  0  0  0  0
   -0.0970   -6.5766   32.2980 C   0  0  0  0  0  0  0  0  0  0  0  0
   -0.7038   -7.0769   31.1674 C   0  0  0  0  0  0  0  0  0  0  0  0
   -0.3128   -6.4937   29.6087 Cl  0  0  0  0  0  0  0  0  0  0  0  0
   -1.7108   -7.9815   31.1754 N   0  0  0  0  0  0  0  0  0  0  0  0
   -2.1266   -8.4054   32.3876 C   0  0  0  0  0  0  0  0  0  0  0  0
   -1.6191   -7.9375   33.5825 C   0  0  0  0  0  0  0  0  0  0  0  0
   -2.4713   -8.4653   35.1589 Br  0  0  0  0  0  0  0  0  0  0  0  0
  1  2  2  0
  2  3  1  0
  3  4  2  0
  4  5  1  0
  5  6  1  0
  5  7  2  0
  7  8  1  0
  7  9  1  0
  9 10  2  0
 10 11  1  0
 11 12  1  0
 12 13  2  0
 12 14  1  0
 14 15  2  0
 15 16  1  0
 16 17  1  0
 16 18  2  0
 18 19  1  0
 19 20  2  0
 20 21  1  0
 10  3  1  0
 20 14  1  0
M  END
>  <ref_mols>  (364) 
7gov-a

>  <gnina_score>  (364) 
5.271

>  <smina_score_min>  (364) 
-5.862

>  <ref_pdb>  (364) 
7gov-a

>  <inspiration_score>  (364) 
None

>  <inchikey>  (364) 
GFRNRCBKDZLJAR-UHFFFAOYSA-N

>  <tags>  (364) 
BulkDock Fragalysis export,openbind_d68ev3c_c2_elabs_scored,openbind_d68ev3c_c2_elabs_scored_4.5plus,openbind_d68ev3c_c2_elabs,openbind_d68ev3c_c2_elabs_scored_5plus,syndirella_product,openbind_d68ev3c_c2_elabs_scored_top80percent,syndirella_placed

>  <smiles>  (364) 
O=Cc1cc(Br)c(F)cc1NC(=O)c1cc(Cl)ncc1Br

>  <subsites>  (364) 
None

>  <rmsd(smina/fragmenstein)>  (364) 
1.039

>  <alias>  (364) 
None

>  <energy_score>  (364) 
-5.417945

>  <HIPPO Pose ID>  (364) 
65388

>  <distance_score>  (364) 
0.41526

>  <HIPPO Compound ID>  (364) 
102548

>  <gnina_score_min>  (364) 
5.255

>  <name>  (364) 
P65388

>  <exports>  (364) 
['/opt/xchem-fragalysis-2/maxwin/BulkDock/OUTPUTS/openbind_d68ev3c_c2_elabs_1LOTQJ3.sdf', '/opt/xchem-fragalysis-2/maxwin/BulkDock/OUTPUTS/openbind_d68ev3c_c2_elabs_1LSYEHW.sdf', '/opt/xchem-fragalysis-2/maxwin/BulkDock/OUTPUTS/openbind_d68ev3c_c2_elabs_1LSYI5W.sdf']

$$$$
P65389
     RDKit          3D

 21 22  0  0  0  0  0  0  0  0999 V2000
    3.3677   -2.5357   34.1550 O   0  0  0  0  0  0  0  0  0  0  0  0
    2.6953   -3.5033   34.4914 C   0  0  0  0  0  0  0  0  0  0  0  0
    1.9769   -3.5429   35.7813 C   0  0  0  0  0  0  0  0  0  0  0  0
    2.4144   -2.6995   36.8118 C   0  0  0  0  0  0  0  0  0  0  0  0
    1.8351   -2.7962   38.0758 C   0  0  0  0  0  0  0  0  0  0  0  0
    2.3799   -1.7616   39.3396 Cl  0  0  0  0  0  0  0  0  0  0  0  0
    0.8252   -3.7268   38.3067 C   0  0  0  0  0  0  0  0  0  0  0  0
    0.2395   -3.8181   39.5101 F   0  0  0  0  0  0  0  0  0  0  0  0
    0.3900   -4.5705   37.2879 C   0  0  0  0  0  0  0  0  0  0  0  0
    0.9550   -4.4747   36.0127 C   0  0  0  0  0  0  0  0  0  0  0  0
    0.4619   -5.2933   34.9977 N   0  0  0  0  0  0  0  0  0  0  0  0
   -0.2093   -6.6814   35.0667 C   0  0  0  0  0  0  0  0  0  0  0  0
   -0.3850   -7.3901   35.9739 O   0  0  0  0  0  0  0  0  0  0  0  0
   -0.7174   -7.1569   33.7299 C   0  0  0  0  0  0  0  0  0  0  0  0
   -0.1303   -6.7193   32.5354 C   0  0  0  0  0  0  0  0  0  0  0  0
   -0.6754   -7.1457   31.3383 C   0  0  0  0  0  0  0  0  0  0  0  0
   -0.2130   -6.4222   29.8592 Cl  0  0  0  0  0  0  0  0  0  0  0  0
   -1.6847   -8.0297   31.2288 N   0  0  0  0  0  0  0  0  0  0  0  0
   -2.1852   -8.4953   32.3901 C   0  0  0  0  0  0  0  0  0  0  0  0
   -1.7808   -8.0688   33.6450 C   0  0  0  0  0  0  0  0  0  0  0  0
   -2.8656   -8.6771   35.0672 Br  0  0  0  0  0  0  0  0  0  0  0  0
  1  2  2  0
  2  3  1  0
  3  4  2  0
  4  5  1  0
  5  6  1  0
  5  7  2  0
  7  8  1  0
  7  9  1  0
  9 10  2  0
 10 11  1  0
 11 12  1  0
 12 13  2  0
 12 14  1  0
 14 15  2  0
 15 16  1  0
 16 17  1  0
 16 18  2  0
 18 19  1  0
 19 20  2  0
 20 21  1  0
 10  3  1  0
 20 14  1  0
M  END
>  <ref_mols>  (365) 
7gov-a

>  <gnina_score>  (365) 
5.373

>  <smina_score_min>  (365) 
-5.853

>  <ref_pdb>  (365) 
7gov-a

>  <inspiration_score>  (365) 
None

>  <inchikey>  (365) 
MUJCHLVPKNCRDW-UHFFFAOYSA-N

>  <tags>  (365) 
BulkDock Fragalysis export,openbind_d68ev3c_c2_elabs_scored,openbind_d68ev3c_c2_elabs_scored_4.5plus,openbind_d68ev3c_c2_elabs,openbind_d68ev3c_c2_elabs_scored_5plus,syndirella_product,openbind_d68ev3c_c2_elabs_scored_top80percent,syndirella_placed

>  <smiles>  (365) 
O=Cc1cc(Cl)c(F)cc1NC(=O)c1cc(Cl)ncc1Br

>  <subsites>  (365) 
None

>  <rmsd(smina/fragmenstein)>  (365) 
1.109

>  <alias>  (365) 
None

>  <energy_score>  (365) 
-10.388905

>  <HIPPO Pose ID>  (365) 
65389

>  <distance_score>  (365) 
0.5358

>  <HIPPO Compound ID>  (365) 
102550

>  <gnina_score_min>  (365) 
5.31

>  <name>  (365) 
P65389

>  <exports>  (365) 
['/opt/xchem-fragalysis-2/maxwin/BulkDock/OUTPUTS/openbind_d68ev3c_c2_elabs_1LOTQJ3.sdf', '/opt/xchem-fragalysis-2/maxwin/BulkDock/OUTPUTS/openbind_d68ev3c_c2_elabs_1LSYEHW.sdf', '/opt/xchem-fragalysis-2/maxwin/BulkDock/OUTPUTS/openbind_d68ev3c_c2_elabs_1LSYI5W.sdf']

$$$$
P65390
     RDKit          3D

 21 22  0  0  0  0  0  0  0  0999 V2000
   -1.2878   -6.2220   35.8083 O   0  0  0  0  0  0  0  0  0  0  0  0
   -0.4836   -5.8952   35.0285 C   0  0  0  0  0  0  0  0  0  0  0  0
    0.7483   -4.9890   35.1871 N   0  0  0  0  0  0  0  0  0  0  0  0
    1.1856   -4.2428   36.2731 C   0  0  0  0  0  0  0  0  0  0  0  0
    0.3794   -4.1512   37.4115 C   0  0  0  0  0  0  0  0  0  0  0  0
    0.7840   -3.3679   38.4805 C   0  0  0  0  0  0  0  0  0  0  0  0
    0.0207   -3.3094   39.5792 F   0  0  0  0  0  0  0  0  0  0  0  0
    1.9648   -2.6438   38.4269 C   0  0  0  0  0  0  0  0  0  0  0  0
    2.7718   -2.7335   37.2934 C   0  0  0  0  0  0  0  0  0  0  0  0
    2.4049   -3.5530   36.2090 C   0  0  0  0  0  0  0  0  0  0  0  0
    3.4008   -3.7412   35.0937 C   0  0  0  0  0  0  0  0  0  0  0  0
    3.9815   -2.5688   34.7037 F   0  0  0  0  0  0  0  0  0  0  0  0
    2.8794   -4.2784   33.9532 F   0  0  0  0  0  0  0  0  0  0  0  0
   -0.6237   -6.4299   33.6439 C   0  0  0  0  0  0  0  0  0  0  0  0
   -1.2409   -7.6764   33.5879 C   0  0  0  0  0  0  0  0  0  0  0  0
   -1.5414   -8.1761   32.3493 C   0  0  0  0  0  0  0  0  0  0  0  0
   -2.4518   -9.5773   32.2069 Cl  0  0  0  0  0  0  0  0  0  0  0  0
   -1.2385   -7.6121   31.1715 N   0  0  0  0  0  0  0  0  0  0  0  0
   -0.5903   -6.4355   31.2503 C   0  0  0  0  0  0  0  0  0  0  0  0
   -0.3137   -5.7764   32.4447 C   0  0  0  0  0  0  0  0  0  0  0  0
    0.2738   -3.9845   32.2861 Br  0  0  0  0  0  0  0  0  0  0  0  0
  1  2  2  0
  2  3  1  0
  3  4  1  0
  4  5  2  0
  5  6  1  0
  6  7  1  0
  6  8  2  0
  8  9  1  0
  9 10  2  0
 10 11  1  0
 11 12  1  0
 11 13  1  0
  2 14  1  0
 14 15  2  0
 15 16  1  0
 16 17  1  0
 16 18  2  0
 18 19  1  0
 19 20  2  0
 20 21  1  0
 10  4  1  0
 20 14  1  0
M  END
>  <ref_mols>  (366) 
7gov-a

>  <gnina_score>  (366) 
5.152

>  <smina_score_min>  (366) 
-4.777

>  <ref_pdb>  (366) 
7gov-a

>  <inspiration_score>  (366) 
None

>  <inchikey>  (366) 
RUPNKGYDIOLCHA-UHFFFAOYSA-N

>  <tags>  (366) 
BulkDock Fragalysis export,openbind_d68ev3c_c2_elabs_scored,openbind_d68ev3c_c2_elabs_scored_4.5plus,openbind_d68ev3c_c2_elabs,openbind_d68ev3c_c2_elabs_scored_5plus,syndirella_product,openbind_d68ev3c_c2_elabs_scored_top80percent,syndirella_placed

>  <smiles>  (366) 
O=C(Nc1cc(F)ccc1C(F)F)c1cc(Cl)ncc1Br

>  <subsites>  (366) 
None

>  <rmsd(smina/fragmenstein)>  (366) 
1.31

>  <alias>  (366) 
None

>  <energy_score>  (366) 
-24.297408

>  <HIPPO Pose ID>  (366) 
65390

>  <distance_score>  (366) 
0.958082

>  <HIPPO Compound ID>  (366) 
102551

>  <gnina_score_min>  (366) 
5.006

>  <name>  (366) 
P65390

>  <exports>  (366) 
['/opt/xchem-fragalysis-2/maxwin/BulkDock/OUTPUTS/openbind_d68ev3c_c2_elabs_1LOTQJ3.sdf', '/opt/xchem-fragalysis-2/maxwin/BulkDock/OUTPUTS/openbind_d68ev3c_c2_elabs_1LSYEHW.sdf', '/opt/xchem-fragalysis-2/maxwin/BulkDock/OUTPUTS/openbind_d68ev3c_c2_elabs_1LSYI5W.sdf']

$$$$
P65398
     RDKit          3D

 21 22  0  0  0  0  0  0  0  0999 V2000
    2.8905   -3.4421   33.3792 N   0  0  0  0  0  0  0  0  0  0  0  0
    2.4604   -3.4917   34.4563 C   0  0  0  0  0  0  0  0  0  0  0  0
    1.8689   -3.5455   35.7614 C   0  0  0  0  0  0  0  0  0  0  0  0
    2.4063   -2.7514   36.7874 C   0  0  0  0  0  0  0  0  0  0  0  0
    1.8846   -2.8219   38.0812 C   0  0  0  0  0  0  0  0  0  0  0  0
    0.8371   -3.6944   38.3501 C   0  0  0  0  0  0  0  0  0  0  0  0
    0.3189   -3.7363   39.5854 F   0  0  0  0  0  0  0  0  0  0  0  0
    0.3106   -4.4984   37.3466 C   0  0  0  0  0  0  0  0  0  0  0  0
   -0.7349   -5.2876   37.6367 F   0  0  0  0  0  0  0  0  0  0  0  0
    0.8104   -4.4238   36.0399 C   0  0  0  0  0  0  0  0  0  0  0  0
    0.2419   -5.2118   35.0347 N   0  0  0  0  0  0  0  0  0  0  0  0
   -0.2664   -6.6670   35.0704 C   0  0  0  0  0  0  0  0  0  0  0  0
   -0.3618   -7.4112   35.9609 O   0  0  0  0  0  0  0  0  0  0  0  0
   -0.7409   -7.1489   33.7318 C   0  0  0  0  0  0  0  0  0  0  0  0
   -0.1132   -6.7282   32.5551 C   0  0  0  0  0  0  0  0  0  0  0  0
   -0.5637   -7.2420   31.3568 C   0  0  0  0  0  0  0  0  0  0  0  0
    0.0037   -6.8133   30.2003 O   0  0  0  0  0  0  0  0  0  0  0  0
   -1.5320   -8.1594   31.2219 N   0  0  0  0  0  0  0  0  0  0  0  0
   -2.1073   -8.5668   32.3737 C   0  0  0  0  0  0  0  0  0  0  0  0
   -1.7782   -8.0854   33.6313 C   0  0  0  0  0  0  0  0  0  0  0  0
   -2.8899   -8.6765   35.0404 Br  0  0  0  0  0  0  0  0  0  0  0  0
  1  2  3  0
  2  3  1  0
  3  4  2  0
  4  5  1  0
  5  6  2  0
  6  7  1  0
  6  8  1  0
  8  9  1  0
  8 10  2  0
 10 11  1  0
 11 12  1  0
 12 13  2  0
 12 14  1  0
 14 15  2  0
 15 16  1  0
 16 17  1  0
 16 18  2  0
 18 19  1  0
 19 20  2  0
 20 21  1  0
 10  3  1  0
 20 14  1  0
M  END
>  <ref_mols>  (367) 
7gov-a

>  <gnina_score>  (367) 
5.127

>  <smina_score_min>  (367) 
-5.551

>  <ref_pdb>  (367) 
7gov-a

>  <inspiration_score>  (367) 
None

>  <inchikey>  (367) 
QEQIUIFWZWIWMG-UHFFFAOYSA-N

>  <tags>  (367) 
BulkDock Fragalysis export,openbind_d68ev3c_c2_elabs_scored,openbind_d68ev3c_c2_elabs_scored_4.5plus,openbind_d68ev3c_c2_elabs,openbind_d68ev3c_c2_elabs_scored_5plus,syndirella_product,openbind_d68ev3c_c2_elabs_scored_top80percent,syndirella_placed

>  <smiles>  (367) 
N#Cc1ccc(F)c(F)c1NC(=O)c1cc(O)ncc1Br

>  <subsites>  (367) 
None

>  <rmsd(smina/fragmenstein)>  (367) 
0.506

>  <alias>  (367) 
None

>  <energy_score>  (367) 
-8.928208

>  <HIPPO Pose ID>  (367) 
65398

>  <distance_score>  (367) 
0.533662

>  <HIPPO Compound ID>  (367) 
102563

>  <gnina_score_min>  (367) 
5.07

>  <name>  (367) 
P65398

>  <exports>  (367) 
['/opt/xchem-fragalysis-2/maxwin/BulkDock/OUTPUTS/openbind_d68ev3c_c2_elabs_1LOTQJ3.sdf', '/opt/xchem-fragalysis-2/maxwin/BulkDock/OUTPUTS/openbind_d68ev3c_c2_elabs_1LSYEHW.sdf', '/opt/xchem-fragalysis-2/maxwin/BulkDock/OUTPUTS/openbind_d68ev3c_c2_elabs_1LSYI5W.sdf']

$$$$
P65400
     RDKit          3D

 21 22  0  0  0  0  0  0  0  0999 V2000
    1.8313   -2.7504   33.4057 C   0  0  0  0  0  0  0  0  0  0  0  0
    2.6518   -3.3874   34.5295 C   0  0  0  0  0  0  0  0  0  0  0  0
    3.3176   -4.6932   34.0920 C   0  0  0  0  0  0  0  0  0  0  0  0
    1.8725   -3.5042   35.8351 C   0  0  0  0  0  0  0  0  0  0  0  0
    2.2870   -2.6712   36.8975 C   0  0  0  0  0  0  0  0  0  0  0  0
    1.7035   -2.7592   38.1607 C   0  0  0  0  0  0  0  0  0  0  0  0
    0.7009   -3.6872   38.3811 C   0  0  0  0  0  0  0  0  0  0  0  0
    0.1333   -3.7700   39.5918 F   0  0  0  0  0  0  0  0  0  0  0  0
    0.2690   -4.5235   37.3627 C   0  0  0  0  0  0  0  0  0  0  0  0
    0.8392   -4.4298   36.0880 C   0  0  0  0  0  0  0  0  0  0  0  0
    0.3600   -5.2662   35.0844 N   0  0  0  0  0  0  0  0  0  0  0  0
   -0.4404   -6.5855   35.1740 C   0  0  0  0  0  0  0  0  0  0  0  0
   -0.7557   -7.2159   36.1028 O   0  0  0  0  0  0  0  0  0  0  0  0
   -0.8402   -7.1289   33.8157 C   0  0  0  0  0  0  0  0  0  0  0  0
   -0.1890   -6.7223   32.6436 C   0  0  0  0  0  0  0  0  0  0  0  0
   -0.5795   -7.2655   31.4357 C   0  0  0  0  0  0  0  0  0  0  0  0
    0.0214   -6.8290   30.2984 O   0  0  0  0  0  0  0  0  0  0  0  0
   -1.5115   -8.2119   31.2772 N   0  0  0  0  0  0  0  0  0  0  0  0
   -2.1131   -8.6131   32.4180 C   0  0  0  0  0  0  0  0  0  0  0  0
   -1.8442   -8.1020   33.6838 C   0  0  0  0  0  0  0  0  0  0  0  0
   -2.9961   -8.7325   35.0474 Br  0  0  0  0  0  0  0  0  0  0  0  0
  1  2  1  0
  2  3  1  0
  2  4  1  0
  4  5  2  0
  5  6  1  0
  6  7  2  0
  7  8  1  0
  7  9  1  0
  9 10  2  0
 10 11  1  0
 11 12  1  0
 12 13  2  0
 12 14  1  0
 14 15  2  0
 15 16  1  0
 16 17  1  0
 16 18  2  0
 18 19  1  0
 19 20  2  0
 20 21  1  0
 10  4  1  0
 20 14  1  0
M  END
>  <ref_mols>  (368) 
7gov-a

>  <gnina_score>  (368) 
5.115

>  <smina_score_min>  (368) 
-6.095

>  <ref_pdb>  (368) 
7gov-a

>  <inspiration_score>  (368) 
None

>  <inchikey>  (368) 
JHKFXSUCMCUCFQ-UHFFFAOYSA-N

>  <tags>  (368) 
BulkDock Fragalysis export,openbind_d68ev3c_c2_elabs_scored,openbind_d68ev3c_c2_elabs_scored_4.5plus,openbind_d68ev3c_c2_elabs,openbind_d68ev3c_c2_elabs_scored_5plus,syndirella_product,openbind_d68ev3c_c2_elabs_scored_top80percent,syndirella_placed

>  <smiles>  (368) 
CC(C)c1ccc(F)cc1NC(=O)c1cc(O)ncc1Br

>  <subsites>  (368) 
None

>  <rmsd(smina/fragmenstein)>  (368) 
0.87

>  <alias>  (368) 
None

>  <energy_score>  (368) 
-30.534989

>  <HIPPO Pose ID>  (368) 
65400

>  <distance_score>  (368) 
0.638039

>  <HIPPO Compound ID>  (368) 
102565

>  <gnina_score_min>  (368) 
5.124

>  <name>  (368) 
P65400

>  <exports>  (368) 
['/opt/xchem-fragalysis-2/maxwin/BulkDock/OUTPUTS/openbind_d68ev3c_c2_elabs_1LOTQJ3.sdf', '/opt/xchem-fragalysis-2/maxwin/BulkDock/OUTPUTS/openbind_d68ev3c_c2_elabs_1LSYEHW.sdf', '/opt/xchem-fragalysis-2/maxwin/BulkDock/OUTPUTS/openbind_d68ev3c_c2_elabs_1LSYI5W.sdf']

$$$$
P65402
     RDKit          3D

 21 22  0  0  0  0  0  0  0  0999 V2000
    1.8433   -2.5208   33.5314 C   0  0  0  0  0  0  0  0  0  0  0  0
    2.5294   -3.5060   34.4658 C   0  0  0  0  0  0  0  0  0  0  0  0
    1.8606   -3.5594   35.8201 C   0  0  0  0  0  0  0  0  0  0  0  0
    2.3822   -2.7679   36.8600 C   0  0  0  0  0  0  0  0  0  0  0  0
    1.8453   -2.8419   38.1465 C   0  0  0  0  0  0  0  0  0  0  0  0
    2.5776   -1.7722   39.5237 Br  0  0  0  0  0  0  0  0  0  0  0  0
    0.7848   -3.7019   38.4058 C   0  0  0  0  0  0  0  0  0  0  0  0
    0.2393   -3.7730   39.6293 F   0  0  0  0  0  0  0  0  0  0  0  0
    0.2583   -4.4960   37.3955 C   0  0  0  0  0  0  0  0  0  0  0  0
    0.7833   -4.4170   36.1035 C   0  0  0  0  0  0  0  0  0  0  0  0
    0.2195   -5.2014   35.1053 N   0  0  0  0  0  0  0  0  0  0  0  0
   -0.4637   -6.5844   35.1822 C   0  0  0  0  0  0  0  0  0  0  0  0
   -0.7281   -7.2456   36.1048 O   0  0  0  0  0  0  0  0  0  0  0  0
   -0.8428   -7.1299   33.8227 C   0  0  0  0  0  0  0  0  0  0  0  0
   -0.1778   -6.7205   32.6600 C   0  0  0  0  0  0  0  0  0  0  0  0
   -0.5628   -7.2574   31.4478 C   0  0  0  0  0  0  0  0  0  0  0  0
    0.0448   -6.8147   30.3166 O   0  0  0  0  0  0  0  0  0  0  0  0
   -1.4955   -8.2025   31.2789 N   0  0  0  0  0  0  0  0  0  0  0  0
   -2.1043   -8.6102   32.4140 C   0  0  0  0  0  0  0  0  0  0  0  0
   -1.8441   -8.1036   33.6828 C   0  0  0  0  0  0  0  0  0  0  0  0
   -3.0011   -8.7335   35.0421 Br  0  0  0  0  0  0  0  0  0  0  0  0
  1  2  1  0
  2  3  1  0
  3  4  2  0
  4  5  1  0
  5  6  1  0
  5  7  2  0
  7  8  1  0
  7  9  1  0
  9 10  2  0
 10 11  1  0
 11 12  1  0
 12 13  2  0
 12 14  1  0
 14 15  2  0
 15 16  1  0
 16 17  1  0
 16 18  2  0
 18 19  1  0
 19 20  2  0
 20 21  1  0
 10  3  1  0
 20 14  1  0
M  END
>  <ref_mols>  (369) 
7gov-a

>  <gnina_score>  (369) 
5.165

>  <smina_score_min>  (369) 
-5.986

>  <ref_pdb>  (369) 
7gov-a

>  <inspiration_score>  (369) 
None

>  <inchikey>  (369) 
OZAKHJJXZSPYLE-UHFFFAOYSA-N

>  <tags>  (369) 
BulkDock Fragalysis export,openbind_d68ev3c_c2_elabs_scored,openbind_d68ev3c_c2_elabs_scored_4.5plus,openbind_d68ev3c_c2_elabs,openbind_d68ev3c_c2_elabs_scored_5plus,syndirella_product,openbind_d68ev3c_c2_elabs_scored_top80percent,syndirella_placed

>  <smiles>  (369) 
CCc1cc(Br)c(F)cc1NC(=O)c1cc(O)ncc1Br

>  <subsites>  (369) 
None

>  <rmsd(smina/fragmenstein)>  (369) 
0.939

>  <alias>  (369) 
None

>  <energy_score>  (369) 
-20.317979

>  <HIPPO Pose ID>  (369) 
65402

>  <distance_score>  (369) 
0.622647

>  <HIPPO Compound ID>  (369) 
102568

>  <gnina_score_min>  (369) 
5.138

>  <name>  (369) 
P65402

>  <exports>  (369) 
['/opt/xchem-fragalysis-2/maxwin/BulkDock/OUTPUTS/openbind_d68ev3c_c2_elabs_1LOTQJ3.sdf', '/opt/xchem-fragalysis-2/maxwin/BulkDock/OUTPUTS/openbind_d68ev3c_c2_elabs_1LSYEHW.sdf', '/opt/xchem-fragalysis-2/maxwin/BulkDock/OUTPUTS/openbind_d68ev3c_c2_elabs_1LSYI5W.sdf']

$$$$
P65406
     RDKit          3D

 21 22  0  0  0  0  0  0  0  0999 V2000
    3.7012   -3.2600   33.4010 N   0  0  0  0  0  0  0  0  0  0  0  0
    3.1225   -3.3512   34.4038 C   0  0  0  0  0  0  0  0  0  0  0  0
    2.4178   -3.3789   35.6516 C   0  0  0  0  0  0  0  0  0  0  0  0
    2.9039   -2.5825   36.7034 C   0  0  0  0  0  0  0  0  0  0  0  0
    2.2916   -2.6055   37.9554 C   0  0  0  0  0  0  0  0  0  0  0  0
    1.1888   -3.4202   38.1566 C   0  0  0  0  0  0  0  0  0  0  0  0
    0.5832   -3.3977   39.3555 F   0  0  0  0  0  0  0  0  0  0  0  0
    0.6944   -4.2178   37.1228 C   0  0  0  0  0  0  0  0  0  0  0  0
   -0.9145   -5.1372   37.4762 Br  0  0  0  0  0  0  0  0  0  0  0  0
    1.3104   -4.2125   35.8560 C   0  0  0  0  0  0  0  0  0  0  0  0
    0.8323   -5.0105   34.8070 N   0  0  0  0  0  0  0  0  0  0  0  0
    0.4469   -6.5019   34.7794 C   0  0  0  0  0  0  0  0  0  0  0  0
    0.5385   -7.3222   35.6045 O   0  0  0  0  0  0  0  0  0  0  0  0
   -0.2439   -6.9296   33.5230 C   0  0  0  0  0  0  0  0  0  0  0  0
   -1.2612   -7.8714   33.7393 C   0  0  0  0  0  0  0  0  0  0  0  0
   -1.9639   -8.3366   32.6581 C   0  0  0  0  0  0  0  0  0  0  0  0
   -3.0214   -9.1522   32.8643 O   0  0  0  0  0  0  0  0  0  0  0  0
   -1.7497   -7.9938   31.3823 N   0  0  0  0  0  0  0  0  0  0  0  0
   -0.7386   -7.1070   31.1941 C   0  0  0  0  0  0  0  0  0  0  0  0
    0.0146   -6.5225   32.2141 C   0  0  0  0  0  0  0  0  0  0  0  0
    1.3044   -5.2462   31.6920 Br  0  0  0  0  0  0  0  0  0  0  0  0
  1  2  3  0
  2  3  1  0
  3  4  2  0
  4  5  1  0
  5  6  2  0
  6  7  1  0
  6  8  1  0
  8  9  1  0
  8 10  2  0
 10 11  1  0
 11 12  1  0
 12 13  2  0
 12 14  1  0
 14 15  2  0
 15 16  1  0
 16 17  1  0
 16 18  2  0
 18 19  1  0
 19 20  2  0
 20 21  1  0
 10  3  1  0
 20 14  1  0
M  END
>  <ref_mols>  (370) 
7gov-a

>  <gnina_score>  (370) 
4.745

>  <smina_score_min>  (370) 
-6.001

>  <ref_pdb>  (370) 
7gov-a

>  <inspiration_score>  (370) 
None

>  <inchikey>  (370) 
WHPLOQMWRUNTIW-UHFFFAOYSA-N

>  <tags>  (370) 
BulkDock Fragalysis export,openbind_d68ev3c_c2_elabs_scored,openbind_d68ev3c_c2_elabs_scored_4.5plus,openbind_d68ev3c_c2_elabs,openbind_d68ev3c_c2_elabs_scored_5plus,syndirella_product,openbind_d68ev3c_c2_elabs_scored_top80percent,syndirella_placed

>  <smiles>  (370) 
N#Cc1ccc(F)c(Br)c1NC(=O)c1cc(O)ncc1Br

>  <subsites>  (370) 
None

>  <rmsd(smina/fragmenstein)>  (370) 
1.847

>  <alias>  (370) 
None

>  <energy_score>  (370) 
-11.017544

>  <HIPPO Pose ID>  (370) 
65406

>  <distance_score>  (370) 
0.560817

>  <HIPPO Compound ID>  (370) 
102576

>  <gnina_score_min>  (370) 
5.117

>  <name>  (370) 
P65406

>  <exports>  (370) 
['/opt/xchem-fragalysis-2/maxwin/BulkDock/OUTPUTS/openbind_d68ev3c_c2_elabs_1LOTQJ3.sdf', '/opt/xchem-fragalysis-2/maxwin/BulkDock/OUTPUTS/openbind_d68ev3c_c2_elabs_1LSYEHW.sdf', '/opt/xchem-fragalysis-2/maxwin/BulkDock/OUTPUTS/openbind_d68ev3c_c2_elabs_1LSYI5W.sdf']

$$$$
P65407
     RDKit          3D

 21 22  0  0  0  0  0  0  0  0999 V2000
    2.2927   -1.9551   39.3073 C   0  0  0  0  0  0  0  0  0  0  0  0
    1.8060   -2.7985   38.1637 C   0  0  0  0  0  0  0  0  0  0  0  0
    0.7672   -3.7029   38.3867 C   0  0  0  0  0  0  0  0  0  0  0  0
    0.2023   -3.7918   39.6003 F   0  0  0  0  0  0  0  0  0  0  0  0
    0.2719   -4.5083   37.3733 C   0  0  0  0  0  0  0  0  0  0  0  0
    0.8077   -4.4192   36.0901 C   0  0  0  0  0  0  0  0  0  0  0  0
    0.2319   -5.1988   35.0913 N   0  0  0  0  0  0  0  0  0  0  0  0
   -0.4152   -6.5999   35.1601 C   0  0  0  0  0  0  0  0  0  0  0  0
   -0.6356   -7.2857   36.0765 O   0  0  0  0  0  0  0  0  0  0  0  0
   -0.8198   -7.1287   33.8047 C   0  0  0  0  0  0  0  0  0  0  0  0
   -0.1629   -6.7171   32.6390 C   0  0  0  0  0  0  0  0  0  0  0  0
   -0.5611   -7.2497   31.4294 C   0  0  0  0  0  0  0  0  0  0  0  0
    0.0403   -6.8109   30.2933 O   0  0  0  0  0  0  0  0  0  0  0  0
   -1.5006   -8.1896   31.2670 N   0  0  0  0  0  0  0  0  0  0  0  0
   -2.1030   -8.5966   32.4058 C   0  0  0  0  0  0  0  0  0  0  0  0
   -1.8285   -8.0949   33.6726 C   0  0  0  0  0  0  0  0  0  0  0  0
   -2.9748   -8.7178   35.0430 Br  0  0  0  0  0  0  0  0  0  0  0  0
    1.8831   -3.5529   35.8181 C   0  0  0  0  0  0  0  0  0  0  0  0
    2.5436   -3.5396   34.4615 C   0  0  0  0  0  0  0  0  0  0  0  0
    2.3584   -2.7277   36.8684 C   0  0  0  0  0  0  0  0  0  0  0  0
    3.7626   -1.4667   36.5317 Br  0  0  0  0  0  0  0  0  0  0  0  0
  1  2  1  0
  2  3  2  0
  3  4  1  0
  3  5  1  0
  5  6  2  0
  6  7  1  0
  7  8  1  0
  8  9  2  0
  8 10  1  0
 10 11  2  0
 11 12  1  0
 12 13  1  0
 12 14  2  0
 14 15  1  0
 15 16  2  0
 16 17  1  0
  6 18  1  0
 18 19  1  0
 18 20  2  0
 20 21  1  0
 20  2  1  0
 16 10  1  0
M  END
>  <ref_mols>  (371) 
7gov-a

>  <gnina_score>  (371) 
5.162

>  <smina_score_min>  (371) 
-6.249

>  <ref_pdb>  (371) 
7gov-a

>  <inspiration_score>  (371) 
None

>  <inchikey>  (371) 
CCVYGTVCYTUVBZ-UHFFFAOYSA-N

>  <tags>  (371) 
BulkDock Fragalysis export,openbind_d68ev3c_c2_elabs_scored,openbind_d68ev3c_c2_elabs_scored_4.5plus,openbind_d68ev3c_c2_elabs,openbind_d68ev3c_c2_elabs_scored_5plus,syndirella_product,openbind_d68ev3c_c2_elabs_scored_top80percent,syndirella_placed

>  <smiles>  (371) 
Cc1c(F)cc(NC(=O)c2cc(O)ncc2Br)c(C)c1Br

>  <subsites>  (371) 
None

>  <rmsd(smina/fragmenstein)>  (371) 
0.965

>  <alias>  (371) 
None

>  <energy_score>  (371) 
-37.443549

>  <HIPPO Pose ID>  (371) 
65407

>  <distance_score>  (371) 
0.599054

>  <HIPPO Compound ID>  (371) 
102578

>  <gnina_score_min>  (371) 
5.135

>  <name>  (371) 
P65407

>  <exports>  (371) 
['/opt/xchem-fragalysis-2/maxwin/BulkDock/OUTPUTS/openbind_d68ev3c_c2_elabs_1LOTQJ3.sdf', '/opt/xchem-fragalysis-2/maxwin/BulkDock/OUTPUTS/openbind_d68ev3c_c2_elabs_1LSYEHW.sdf', '/opt/xchem-fragalysis-2/maxwin/BulkDock/OUTPUTS/openbind_d68ev3c_c2_elabs_1LSYI5W.sdf']

$$$$
P65408
     RDKit          3D

 21 22  0  0  0  0  0  0  0  0999 V2000
    2.5336   -4.3117   34.7328 C   0  0  0  0  0  0  0  0  0  0  0  0
    1.7258   -3.9434   35.9543 C   0  0  0  0  0  0  0  0  0  0  0  0
    2.3057   -3.1890   36.9979 C   0  0  0  0  0  0  0  0  0  0  0  0
    3.6423   -2.6646   36.9175 C   0  0  0  0  0  0  0  0  0  0  0  0
    4.7005   -2.1874   36.8674 N   0  0  0  0  0  0  0  0  0  0  0  0
    1.5754   -2.9256   38.1617 C   0  0  0  0  0  0  0  0  0  0  0  0
    0.2711   -3.3835   38.2755 C   0  0  0  0  0  0  0  0  0  0  0  0
   -0.3955   -3.1743   39.4169 F   0  0  0  0  0  0  0  0  0  0  0  0
   -0.3458   -4.0733   37.2431 C   0  0  0  0  0  0  0  0  0  0  0  0
    0.3890   -4.3778   36.1023 C   0  0  0  0  0  0  0  0  0  0  0  0
   -0.2000   -5.2036   35.1570 N   0  0  0  0  0  0  0  0  0  0  0  0
    0.1313   -6.6476   34.7477 C   0  0  0  0  0  0  0  0  0  0  0  0
    0.9008   -7.4004   35.1914 O   0  0  0  0  0  0  0  0  0  0  0  0
   -0.6025   -7.0593   33.5388 C   0  0  0  0  0  0  0  0  0  0  0  0
   -0.0785   -6.6632   32.3098 C   0  0  0  0  0  0  0  0  0  0  0  0
   -0.6370   -7.2180   31.1819 C   0  0  0  0  0  0  0  0  0  0  0  0
   -0.1383   -6.9057   29.9585 O   0  0  0  0  0  0  0  0  0  0  0  0
   -1.6430   -8.1085   31.1800 N   0  0  0  0  0  0  0  0  0  0  0  0
   -2.1243   -8.4648   32.3913 C   0  0  0  0  0  0  0  0  0  0  0  0
   -1.6525   -7.9633   33.5886 C   0  0  0  0  0  0  0  0  0  0  0  0
   -2.5302   -8.4709   35.1576 Br  0  0  0  0  0  0  0  0  0  0  0  0
  1  2  1  0
  2  3  2  0
  3  4  1  0
  4  5  3  0
  3  6  1  0
  6  7  2  0
  7  8  1  0
  7  9  1  0
  9 10  2  0
 10 11  1  0
 11 12  1  0
 12 13  2  0
 12 14  1  0
 14 15  2  0
 15 16  1  0
 16 17  1  0
 16 18  2  0
 18 19  1  0
 19 20  2  0
 20 21  1  0
 10  2  1  0
 20 14  1  0
M  END
>  <ref_mols>  (372) 
7gov-a

>  <gnina_score>  (372) 
5.115

>  <smina_score_min>  (372) 
-5.92

>  <ref_pdb>  (372) 
7gov-a

>  <inspiration_score>  (372) 
None

>  <inchikey>  (372) 
SXLIJVLRPWDEMS-UHFFFAOYSA-N

>  <tags>  (372) 
BulkDock Fragalysis export,openbind_d68ev3c_c2_elabs_scored,openbind_d68ev3c_c2_elabs_scored_4.5plus,openbind_d68ev3c_c2_elabs,openbind_d68ev3c_c2_elabs_scored_5plus,syndirella_product,openbind_d68ev3c_c2_elabs_scored_top80percent,syndirella_placed

>  <smiles>  (372) 
Cc1c(C#N)cc(F)cc1NC(=O)c1cc(O)ncc1Br

>  <subsites>  (372) 
None

>  <rmsd(smina/fragmenstein)>  (372) 
0.843

>  <alias>  (372) 
None

>  <energy_score>  (372) 
-0.369053

>  <HIPPO Pose ID>  (372) 
65408

>  <distance_score>  (372) 
0.392418

>  <HIPPO Compound ID>  (372) 
102579

>  <gnina_score_min>  (372) 
5.001

>  <name>  (372) 
P65408

>  <exports>  (372) 
['/opt/xchem-fragalysis-2/maxwin/BulkDock/OUTPUTS/openbind_d68ev3c_c2_elabs_1LOTQJ3.sdf', '/opt/xchem-fragalysis-2/maxwin/BulkDock/OUTPUTS/openbind_d68ev3c_c2_elabs_1LSYEHW.sdf', '/opt/xchem-fragalysis-2/maxwin/BulkDock/OUTPUTS/openbind_d68ev3c_c2_elabs_1LSYI5W.sdf']

$$$$
P65412
     RDKit          3D

 21 22  0  0  0  0  0  0  0  0999 V2000
    0.2749   -3.7456   39.6956 C   0  0  0  0  0  0  0  0  0  0  0  0
    0.8881   -3.6926   38.3255 C   0  0  0  0  0  0  0  0  0  0  0  0
    0.3669   -4.5244   37.3221 C   0  0  0  0  0  0  0  0  0  0  0  0
    0.9013   -4.5090   36.0309 C   0  0  0  0  0  0  0  0  0  0  0  0
    0.4219   -5.3731   35.0556 N   0  0  0  0  0  0  0  0  0  0  0  0
   -0.4713   -6.6272   35.1777 C   0  0  0  0  0  0  0  0  0  0  0  0
   -0.8798   -7.1740   36.1224 O   0  0  0  0  0  0  0  0  0  0  0  0
   -0.8621   -7.2132   33.8346 C   0  0  0  0  0  0  0  0  0  0  0  0
   -0.1686   -6.8992   32.6532 C   0  0  0  0  0  0  0  0  0  0  0  0
   -0.5967   -7.4294   31.4440 C   0  0  0  0  0  0  0  0  0  0  0  0
   -1.6379   -8.2733   31.3257 N   0  0  0  0  0  0  0  0  0  0  0  0
   -2.2507   -8.6207   32.4787 C   0  0  0  0  0  0  0  0  0  0  0  0
   -1.9254   -8.1248   33.7344 C   0  0  0  0  0  0  0  0  0  0  0  0
   -2.9629   -8.6376   35.0147 Cl  0  0  0  0  0  0  0  0  0  0  0  0
    1.9478   -3.6417   35.7207 C   0  0  0  0  0  0  0  0  0  0  0  0
    2.4700   -3.6413   34.4837 F   0  0  0  0  0  0  0  0  0  0  0  0
    2.4990   -2.8176   36.6908 C   0  0  0  0  0  0  0  0  0  0  0  0
    1.9677   -2.8533   37.9869 C   0  0  0  0  0  0  0  0  0  0  0  0
    2.5893   -1.9918   38.9843 N   0  0  0  0  0  0  0  0  0  0  0  0
    1.8459   -1.2574   39.6494 O   0  0  0  0  0  0  0  0  0  0  0  0
    3.8245   -2.0306   39.0814 O   0  0  0  0  0  0  0  0  0  0  0  0
  1  2  1  0
  2  3  2  0
  3  4  1  0
  4  5  1  0
  5  6  1  0
  6  7  2  0
  6  8  1  0
  8  9  2  0
  9 10  1  0
 10 11  2  0
 11 12  1  0
 12 13  2  0
 13 14  1  0
  4 15  2  0
 15 16  1  0
 15 17  1  0
 17 18  2  0
 18 19  1  0
 19 20  2  0
 19 21  1  0
 18  2  1  0
 13  8  1  0
M  CHG  2  19   1  21  -1
M  END
>  <ref_mols>  (373) 
7gov-a

>  <gnina_score>  (373) 
4.959

>  <smina_score_min>  (373) 
-5.845

>  <ref_pdb>  (373) 
7gov-a

>  <inspiration_score>  (373) 
None

>  <inchikey>  (373) 
YOVRJYJKPLMNFD-UHFFFAOYSA-N

>  <tags>  (373) 
BulkDock Fragalysis export,openbind_d68ev3c_c2_elabs_scored,openbind_d68ev3c_c2_elabs_scored_4.5plus,openbind_d68ev3c_c2_elabs,openbind_d68ev3c_c2_elabs_scored_5plus,syndirella_product,openbind_d68ev3c_c2_elabs_scored_top80percent,syndirella_placed

>  <smiles>  (373) 
Cc1cc(NC(=O)c2ccncc2Cl)c(F)cc1[N+](=O)[O-]

>  <subsites>  (373) 
None

>  <rmsd(smina/fragmenstein)>  (373) 
2.094

>  <alias>  (373) 
None

>  <energy_score>  (373) 
-23.64543

>  <HIPPO Pose ID>  (373) 
65412

>  <distance_score>  (373) 
0.650247

>  <HIPPO Compound ID>  (373) 
102585

>  <gnina_score_min>  (373) 
5.016

>  <name>  (373) 
P65412

>  <exports>  (373) 
['/opt/xchem-fragalysis-2/maxwin/BulkDock/OUTPUTS/openbind_d68ev3c_c2_elabs_1LOTQJ3.sdf', '/opt/xchem-fragalysis-2/maxwin/BulkDock/OUTPUTS/openbind_d68ev3c_c2_elabs_1LSYEHW.sdf', '/opt/xchem-fragalysis-2/maxwin/BulkDock/OUTPUTS/openbind_d68ev3c_c2_elabs_1LSYI5W.sdf']

$$$$
P65415
     RDKit          3D

 21 23  0  0  0  0  0  0  0  0999 V2000
   -1.1079   -6.3085   35.8177 O   0  0  0  0  0  0  0  0  0  0  0  0
   -0.3288   -5.9642   35.0201 C   0  0  0  0  0  0  0  0  0  0  0  0
    0.8597   -4.9997   35.1410 N   0  0  0  0  0  0  0  0  0  0  0  0
    1.2755   -4.2059   36.2052 C   0  0  0  0  0  0  0  0  0  0  0  0
    0.5128   -4.1832   37.3783 C   0  0  0  0  0  0  0  0  0  0  0  0
    0.9053   -3.3828   38.4360 C   0  0  0  0  0  0  0  0  0  0  0  0
    0.1821   -3.3788   39.5637 F   0  0  0  0  0  0  0  0  0  0  0  0
    2.0301   -2.5817   38.3371 C   0  0  0  0  0  0  0  0  0  0  0  0
    2.7827   -2.5966   37.1603 C   0  0  0  0  0  0  0  0  0  0  0  0
    2.4410   -3.4218   36.0709 C   0  0  0  0  0  0  0  0  0  0  0  0
    3.3011   -3.4243   34.8198 C   0  0  0  0  0  0  0  0  0  0  0  0
    4.0211   -4.6873   34.3979 C   0  0  0  0  0  0  0  0  0  0  0  0
    4.8073   -3.5289   34.9254 C   0  0  0  0  0  0  0  0  0  0  0  0
   -0.4950   -6.5447   33.6433 C   0  0  0  0  0  0  0  0  0  0  0  0
   -1.3144   -7.6758   33.6328 C   0  0  0  0  0  0  0  0  0  0  0  0
   -1.7032   -8.1857   32.4231 C   0  0  0  0  0  0  0  0  0  0  0  0
   -2.9083   -9.3542   32.3677 Cl  0  0  0  0  0  0  0  0  0  0  0  0
   -1.3027   -7.7545   31.2205 N   0  0  0  0  0  0  0  0  0  0  0  0
   -0.4475   -6.7142   31.2483 C   0  0  0  0  0  0  0  0  0  0  0  0
   -0.0486   -6.0492   32.4102 C   0  0  0  0  0  0  0  0  0  0  0  0
    0.9587   -4.4741   32.1277 Br  0  0  0  0  0  0  0  0  0  0  0  0
  1  2  2  0
  2  3  1  0
  3  4  1  0
  4  5  2  0
  5  6  1  0
  6  7  1  0
  6  8  2  0
  8  9  1  0
  9 10  2  0
 10 11  1  0
 11 12  1  0
 12 13  1  0
  2 14  1  0
 14 15  2  0
 15 16  1  0
 16 17  1  0
 16 18  2  0
 18 19  1  0
 19 20  2  0
 20 21  1  0
 10  4  1  0
 13 11  1  0
 20 14  1  0
M  END
>  <ref_mols>  (374) 
7gov-a

>  <gnina_score>  (374) 
5.196

>  <smina_score_min>  (374) 
-5.211

>  <ref_pdb>  (374) 
7gov-a

>  <inspiration_score>  (374) 
None

>  <inchikey>  (374) 
RMMJRLNGZVYLSZ-UHFFFAOYSA-N

>  <tags>  (374) 
BulkDock Fragalysis export,openbind_d68ev3c_c2_elabs_scored,openbind_d68ev3c_c2_elabs_scored_4.5plus,openbind_d68ev3c_c2_elabs,openbind_d68ev3c_c2_elabs_scored_5plus,syndirella_product,openbind_d68ev3c_c2_elabs_scored_top80percent,syndirella_placed

>  <smiles>  (374) 
O=C(Nc1cc(F)ccc1C1CC1)c1cc(Cl)ncc1Br

>  <subsites>  (374) 
None

>  <rmsd(smina/fragmenstein)>  (374) 
0.881

>  <alias>  (374) 
None

>  <energy_score>  (374) 
-16.437246

>  <HIPPO Pose ID>  (374) 
65415

>  <distance_score>  (374) 
0.882828

>  <HIPPO Compound ID>  (374) 
102595

>  <gnina_score_min>  (374) 
5.213

>  <name>  (374) 
P65415

>  <exports>  (374) 
['/opt/xchem-fragalysis-2/maxwin/BulkDock/OUTPUTS/openbind_d68ev3c_c2_elabs_1LOTQJ3.sdf', '/opt/xchem-fragalysis-2/maxwin/BulkDock/OUTPUTS/openbind_d68ev3c_c2_elabs_1LSYEHW.sdf', '/opt/xchem-fragalysis-2/maxwin/BulkDock/OUTPUTS/openbind_d68ev3c_c2_elabs_1LSYI5W.sdf']

$$$$
P65418
     RDKit          3D

 21 22  0  0  0  0  0  0  0  0999 V2000
    3.3167   -3.2036   33.8019 N   0  0  0  0  0  0  0  0  0  0  0  0
    2.8465   -3.2691   34.8613 C   0  0  0  0  0  0  0  0  0  0  0  0
    2.1896   -3.3448   36.1352 C   0  0  0  0  0  0  0  0  0  0  0  0
    2.6404   -2.5478   37.1955 C   0  0  0  0  0  0  0  0  0  0  0  0
    2.0290   -2.6369   38.4484 C   0  0  0  0  0  0  0  0  0  0  0  0
    0.9754   -3.5243   38.6387 C   0  0  0  0  0  0  0  0  0  0  0  0
    0.3657   -3.5772   39.8303 F   0  0  0  0  0  0  0  0  0  0  0  0
    0.5308   -4.3289   37.6007 C   0  0  0  0  0  0  0  0  0  0  0  0
   -0.5324   -5.1178   37.8130 F   0  0  0  0  0  0  0  0  0  0  0  0
    1.1302   -4.2419   36.3406 C   0  0  0  0  0  0  0  0  0  0  0  0
    0.6595   -4.9995   35.2725 N   0  0  0  0  0  0  0  0  0  0  0  0
    0.0007   -6.3896   35.2465 C   0  0  0  0  0  0  0  0  0  0  0  0
   -0.3226   -7.0889   36.1209 O   0  0  0  0  0  0  0  0  0  0  0  0
   -0.3488   -6.8297   33.8640 C   0  0  0  0  0  0  0  0  0  0  0  0
   -1.3101   -7.8251   33.7749 C   0  0  0  0  0  0  0  0  0  0  0  0
   -1.7716   -8.1391   32.5242 C   0  0  0  0  0  0  0  0  0  0  0  0
   -3.0345   -9.2446   32.3711 Cl  0  0  0  0  0  0  0  0  0  0  0  0
   -1.3879   -7.5694   31.3704 N   0  0  0  0  0  0  0  0  0  0  0  0
   -0.4128   -6.6491   31.4862 C   0  0  0  0  0  0  0  0  0  0  0  0
    0.0883   -5.6651   29.9501 Br  0  0  0  0  0  0  0  0  0  0  0  0
    0.1533   -6.2683   32.6916 C   0  0  0  0  0  0  0  0  0  0  0  0
  1  2  3  0
  2  3  1  0
  3  4  2  0
  4  5  1  0
  5  6  2  0
  6  7  1  0
  6  8  1  0
  8  9  1  0
  8 10  2  0
 10 11  1  0
 11 12  1  0
 12 13  2  0
 12 14  1  0
 14 15  2  0
 15 16  1  0
 16 17  1  0
 16 18  2  0
 18 19  1  0
 19 20  1  0
 19 21  2  0
 10  3  1  0
 21 14  1  0
M  END
>  <ref_mols>  (375) 
7gov-a

>  <gnina_score>  (375) 
5.237

>  <smina_score_min>  (375) 
-5.06

>  <ref_pdb>  (375) 
7gov-a

>  <inspiration_score>  (375) 
None

>  <inchikey>  (375) 
ASLNXRAWEPYFQJ-UHFFFAOYSA-N

>  <tags>  (375) 
BulkDock Fragalysis export,openbind_d68ev3c_c2_elabs_scored,openbind_d68ev3c_c2_elabs_scored_4.5plus,openbind_d68ev3c_c2_elabs,openbind_d68ev3c_c2_elabs_scored_5plus,syndirella_product,openbind_d68ev3c_c2_elabs_scored_top80percent,syndirella_placed

>  <smiles>  (375) 
N#Cc1ccc(F)c(F)c1NC(=O)c1cc(Cl)nc(Br)c1

>  <subsites>  (375) 
None

>  <rmsd(smina/fragmenstein)>  (375) 
0.82

>  <alias>  (375) 
None

>  <energy_score>  (375) 
-2.092502

>  <HIPPO Pose ID>  (375) 
65418

>  <distance_score>  (375) 
0.752969

>  <HIPPO Compound ID>  (375) 
102605

>  <gnina_score_min>  (375) 
5.085

>  <name>  (375) 
P65418

>  <exports>  (375) 
['/opt/xchem-fragalysis-2/maxwin/BulkDock/OUTPUTS/openbind_d68ev3c_c2_elabs_1LOTQJ3.sdf', '/opt/xchem-fragalysis-2/maxwin/BulkDock/OUTPUTS/openbind_d68ev3c_c2_elabs_1LSYEHW.sdf', '/opt/xchem-fragalysis-2/maxwin/BulkDock/OUTPUTS/openbind_d68ev3c_c2_elabs_1LSYI5W.sdf']

$$$$
P65420
     RDKit          3D

 21 22  0  0  0  0  0  0  0  0999 V2000
    0.0540   -7.0774   35.9948 O   0  0  0  0  0  0  0  0  0  0  0  0
    0.2430   -6.2911   35.1567 C   0  0  0  0  0  0  0  0  0  0  0  0
    0.7446   -4.8452   35.2448 N   0  0  0  0  0  0  0  0  0  0  0  0
    1.1929   -4.1158   36.3271 C   0  0  0  0  0  0  0  0  0  0  0  0
    2.2339   -3.1979   36.1257 C   0  0  0  0  0  0  0  0  0  0  0  0
    3.0059   -3.1389   34.8296 C   0  0  0  0  0  0  0  0  0  0  0  0
    2.1333   -3.1276   33.6986 O   0  0  0  0  0  0  0  0  0  0  0  0
    2.6539   -2.4275   37.2218 C   0  0  0  0  0  0  0  0  0  0  0  0
    2.0292   -2.5541   38.4670 C   0  0  0  0  0  0  0  0  0  0  0  0
    0.9926   -3.4651   38.6319 C   0  0  0  0  0  0  0  0  0  0  0  0
    0.3761   -3.5578   39.8182 F   0  0  0  0  0  0  0  0  0  0  0  0
    0.5779   -4.2536   37.5746 C   0  0  0  0  0  0  0  0  0  0  0  0
   -0.4640   -5.0812   37.7506 F   0  0  0  0  0  0  0  0  0  0  0  0
   -0.1413   -6.6747   33.7738 C   0  0  0  0  0  0  0  0  0  0  0  0
    0.3206   -6.0842   32.6029 C   0  0  0  0  0  0  0  0  0  0  0  0
   -0.2680   -6.4742   31.4155 C   0  0  0  0  0  0  0  0  0  0  0  0
    0.1195   -5.6551   29.9624 Cl  0  0  0  0  0  0  0  0  0  0  0  0
   -1.2411   -7.3940   31.3035 N   0  0  0  0  0  0  0  0  0  0  0  0
   -1.6068   -7.9713   32.4585 C   0  0  0  0  0  0  0  0  0  0  0  0
   -2.9760   -9.2150   32.4177 Br  0  0  0  0  0  0  0  0  0  0  0  0
   -1.1073   -7.6643   33.6969 C   0  0  0  0  0  0  0  0  0  0  0  0
  1  2  2  0
  2  3  1  0
  3  4  1  0
  4  5  2  0
  5  6  1  0
  6  7  1  0
  5  8  1  0
  8  9  2  0
  9 10  1  0
 10 11  1  0
 10 12  2  0
 12 13  1  0
  2 14  1  0
 14 15  2  0
 15 16  1  0
 16 17  1  0
 16 18  2  0
 18 19  1  0
 19 20  1  0
 19 21  2  0
 12  4  1  0
 21 14  1  0
M  END
>  <ref_mols>  (376) 
7gov-a

>  <gnina_score>  (376) 
5.012

>  <smina_score_min>  (376) 
-4.973

>  <ref_pdb>  (376) 
7gov-a

>  <inspiration_score>  (376) 
None

>  <inchikey>  (376) 
SSVWVBRAEPYHKT-UHFFFAOYSA-N

>  <tags>  (376) 
BulkDock Fragalysis export,openbind_d68ev3c_c2_elabs_scored,openbind_d68ev3c_c2_elabs_scored_4.5plus,openbind_d68ev3c_c2_elabs,openbind_d68ev3c_c2_elabs_scored_5plus,syndirella_product,openbind_d68ev3c_c2_elabs_scored_top80percent,syndirella_placed

>  <smiles>  (376) 
O=C(Nc1c(CO)ccc(F)c1F)c1cc(Cl)nc(Br)c1

>  <subsites>  (376) 
None

>  <rmsd(smina/fragmenstein)>  (376) 
0.622

>  <alias>  (376) 
None

>  <energy_score>  (376) 
-15.719665

>  <HIPPO Pose ID>  (376) 
65420

>  <distance_score>  (376) 
0.821544

>  <HIPPO Compound ID>  (376) 
102608

>  <gnina_score_min>  (376) 
5.046

>  <name>  (376) 
P65420

>  <exports>  (376) 
['/opt/xchem-fragalysis-2/maxwin/BulkDock/OUTPUTS/openbind_d68ev3c_c2_elabs_1LOTQJ3.sdf', '/opt/xchem-fragalysis-2/maxwin/BulkDock/OUTPUTS/openbind_d68ev3c_c2_elabs_1LSYEHW.sdf', '/opt/xchem-fragalysis-2/maxwin/BulkDock/OUTPUTS/openbind_d68ev3c_c2_elabs_1LSYI5W.sdf']

$$$$
P65421
     RDKit          3D

 21 22  0  0  0  0  0  0  0  0999 V2000
    2.6985   -2.3901   33.9501 C   0  0  0  0  0  0  0  0  0  0  0  0
    3.3093   -3.3220   35.0015 C   0  0  0  0  0  0  0  0  0  0  0  0
    4.7891   -2.9650   35.2052 C   0  0  0  0  0  0  0  0  0  0  0  0
    2.4660   -3.3025   36.2754 C   0  0  0  0  0  0  0  0  0  0  0  0
    2.7831   -2.4404   37.3395 C   0  0  0  0  0  0  0  0  0  0  0  0
    2.0324   -2.4403   38.5182 C   0  0  0  0  0  0  0  0  0  0  0  0
    0.9451   -3.2894   38.6413 C   0  0  0  0  0  0  0  0  0  0  0  0
    0.2245   -3.2943   39.7699 F   0  0  0  0  0  0  0  0  0  0  0  0
    0.5846   -4.1290   37.6061 C   0  0  0  0  0  0  0  0  0  0  0  0
    1.3400   -4.1384   36.4313 C   0  0  0  0  0  0  0  0  0  0  0  0
    0.9486   -4.9632   35.3879 N   0  0  0  0  0  0  0  0  0  0  0  0
   -0.2644   -5.8960   35.2538 C   0  0  0  0  0  0  0  0  0  0  0  0
   -1.0886   -6.1805   36.0278 O   0  0  0  0  0  0  0  0  0  0  0  0
   -0.4108   -6.4126   33.8685 C   0  0  0  0  0  0  0  0  0  0  0  0
    0.0256   -5.7468   32.7234 C   0  0  0  0  0  0  0  0  0  0  0  0
   -0.3235   -6.2771   31.4975 C   0  0  0  0  0  0  0  0  0  0  0  0
    0.1325   -5.4734   30.0556 Cl  0  0  0  0  0  0  0  0  0  0  0  0
   -1.1072   -7.3508   31.3307 N   0  0  0  0  0  0  0  0  0  0  0  0
   -1.4920   -7.9542   32.4664 C   0  0  0  0  0  0  0  0  0  0  0  0
   -2.6848   -9.3553   32.3242 Br  0  0  0  0  0  0  0  0  0  0  0  0
   -1.1635   -7.5633   33.7392 C   0  0  0  0  0  0  0  0  0  0  0  0
  1  2  1  0
  2  3  1  0
  2  4  1  0
  4  5  2  0
  5  6  1  0
  6  7  2  0
  7  8  1  0
  7  9  1  0
  9 10  2  0
 10 11  1  0
 11 12  1  0
 12 13  2  0
 12 14  1  0
 14 15  2  0
 15 16  1  0
 16 17  1  0
 16 18  2  0
 18 19  1  0
 19 20  1  0
 19 21  2  0
 10  4  1  0
 21 14  1  0
M  END
>  <ref_mols>  (377) 
7gov-a

>  <gnina_score>  (377) 
5.042

>  <smina_score_min>  (377) 
-4.611

>  <ref_pdb>  (377) 
7gov-a

>  <inspiration_score>  (377) 
None

>  <inchikey>  (377) 
CTUSNXOMSYQQPA-UHFFFAOYSA-N

>  <tags>  (377) 
BulkDock Fragalysis export,openbind_d68ev3c_c2_elabs_scored,openbind_d68ev3c_c2_elabs_scored_4.5plus,openbind_d68ev3c_c2_elabs,openbind_d68ev3c_c2_elabs_scored_5plus,syndirella_product,openbind_d68ev3c_c2_elabs_scored_top80percent,syndirella_placed

>  <smiles>  (377) 
CC(C)c1ccc(F)cc1NC(=O)c1cc(Cl)nc(Br)c1

>  <subsites>  (377) 
None

>  <rmsd(smina/fragmenstein)>  (377) 
0.556

>  <alias>  (377) 
None

>  <energy_score>  (377) 
-22.104124

>  <HIPPO Pose ID>  (377) 
65421

>  <distance_score>  (377) 
1.076556

>  <HIPPO Compound ID>  (377) 
102611

>  <gnina_score_min>  (377) 
5.088

>  <name>  (377) 
P65421

>  <exports>  (377) 
['/opt/xchem-fragalysis-2/maxwin/BulkDock/OUTPUTS/openbind_d68ev3c_c2_elabs_1LOTQJ3.sdf', '/opt/xchem-fragalysis-2/maxwin/BulkDock/OUTPUTS/openbind_d68ev3c_c2_elabs_1LSYEHW.sdf', '/opt/xchem-fragalysis-2/maxwin/BulkDock/OUTPUTS/openbind_d68ev3c_c2_elabs_1LSYI5W.sdf']

$$$$
P65422
     RDKit          3D

 21 23  0  0  0  0  0  0  0  0999 V2000
   -1.1671   -6.3911   36.0892 O   0  0  0  0  0  0  0  0  0  0  0  0
   -0.3857   -6.0648   35.2872 C   0  0  0  0  0  0  0  0  0  0  0  0
    0.7933   -5.0804   35.3853 N   0  0  0  0  0  0  0  0  0  0  0  0
    1.1891   -4.2491   36.4220 C   0  0  0  0  0  0  0  0  0  0  0  0
    0.4599   -4.2225   37.6109 C   0  0  0  0  0  0  0  0  0  0  0  0
    0.8606   -3.3776   38.6287 C   0  0  0  0  0  0  0  0  0  0  0  0
    0.1717   -3.3627   39.7767 F   0  0  0  0  0  0  0  0  0  0  0  0
    1.9569   -2.5437   38.4723 C   0  0  0  0  0  0  0  0  0  0  0  0
    2.6699   -2.5591   37.2711 C   0  0  0  0  0  0  0  0  0  0  0  0
    2.3149   -3.4190   36.2168 C   0  0  0  0  0  0  0  0  0  0  0  0
    3.0961   -3.4012   34.9117 C   0  0  0  0  0  0  0  0  0  0  0  0
    3.8515   -4.6322   34.4596 C   0  0  0  0  0  0  0  0  0  0  0  0
    4.6082   -3.4258   34.9205 C   0  0  0  0  0  0  0  0  0  0  0  0
   -0.5541   -6.5805   33.9030 C   0  0  0  0  0  0  0  0  0  0  0  0
   -1.2744   -7.7514   33.7536 C   0  0  0  0  0  0  0  0  0  0  0  0
   -1.5648   -8.1306   32.4688 C   0  0  0  0  0  0  0  0  0  0  0  0
   -2.5369   -9.4782   32.2040 Cl  0  0  0  0  0  0  0  0  0  0  0  0
   -1.1966   -7.4953   31.3427 N   0  0  0  0  0  0  0  0  0  0  0  0
   -0.4538   -6.3910   31.5247 C   0  0  0  0  0  0  0  0  0  0  0  0
    0.1214   -5.4065   30.0133 Br  0  0  0  0  0  0  0  0  0  0  0  0
   -0.1396   -5.8788   32.7697 C   0  0  0  0  0  0  0  0  0  0  0  0
  1  2  2  0
  2  3  1  0
  3  4  1  0
  4  5  2  0
  5  6  1  0
  6  7  1  0
  6  8  2  0
  8  9  1  0
  9 10  2  0
 10 11  1  0
 11 12  1  0
 12 13  1  0
  2 14  1  0
 14 15  2  0
 15 16  1  0
 16 17  1  0
 16 18  2  0
 18 19  1  0
 19 20  1  0
 19 21  2  0
 10  4  1  0
 13 11  1  0
 21 14  1  0
M  END
>  <ref_mols>  (378) 
7gov-a

>  <gnina_score>  (378) 
5.08

>  <smina_score_min>  (378) 
-5.061

>  <ref_pdb>  (378) 
7gov-a

>  <inspiration_score>  (378) 
None

>  <inchikey>  (378) 
GGHTWHKPZLLXOW-UHFFFAOYSA-N

>  <tags>  (378) 
BulkDock Fragalysis export,openbind_d68ev3c_c2_elabs_scored,openbind_d68ev3c_c2_elabs_scored_4.5plus,openbind_d68ev3c_c2_elabs,openbind_d68ev3c_c2_elabs_scored_5plus,syndirella_product,openbind_d68ev3c_c2_elabs_scored_top80percent,syndirella_placed

>  <smiles>  (378) 
O=C(Nc1cc(F)ccc1C1CC1)c1cc(Cl)nc(Br)c1

>  <subsites>  (378) 
None

>  <rmsd(smina/fragmenstein)>  (378) 
0.369

>  <alias>  (378) 
None

>  <energy_score>  (378) 
-4.532482

>  <HIPPO Pose ID>  (378) 
65422

>  <distance_score>  (378) 
0.970603

>  <HIPPO Compound ID>  (378) 
102613

>  <gnina_score_min>  (378) 
5.013

>  <name>  (378) 
P65422

>  <exports>  (378) 
['/opt/xchem-fragalysis-2/maxwin/BulkDock/OUTPUTS/openbind_d68ev3c_c2_elabs_1LOTQJ3.sdf', '/opt/xchem-fragalysis-2/maxwin/BulkDock/OUTPUTS/openbind_d68ev3c_c2_elabs_1LSYEHW.sdf', '/opt/xchem-fragalysis-2/maxwin/BulkDock/OUTPUTS/openbind_d68ev3c_c2_elabs_1LSYI5W.sdf']

$$$$
P65423
     RDKit          3D

 21 22  0  0  0  0  0  0  0  0999 V2000
    4.7255   -3.0037   35.1313 C   0  0  0  0  0  0  0  0  0  0  0  0
    3.2746   -3.4065   35.0733 C   0  0  0  0  0  0  0  0  0  0  0  0
    2.7614   -3.7632   34.0112 O   0  0  0  0  0  0  0  0  0  0  0  0
    2.4596   -3.3455   36.3323 C   0  0  0  0  0  0  0  0  0  0  0  0
    2.8762   -2.5749   37.4250 C   0  0  0  0  0  0  0  0  0  0  0  0
    2.1249   -2.5673   38.6045 C   0  0  0  0  0  0  0  0  0  0  0  0
    0.9592   -3.3191   38.6892 C   0  0  0  0  0  0  0  0  0  0  0  0
    0.2450   -3.3143   39.8211 F   0  0  0  0  0  0  0  0  0  0  0  0
    0.5162   -4.0686   37.6152 C   0  0  0  0  0  0  0  0  0  0  0  0
    1.2660   -4.0812   36.4394 C   0  0  0  0  0  0  0  0  0  0  0  0
    0.8164   -4.8035   35.3497 N   0  0  0  0  0  0  0  0  0  0  0  0
   -0.3020   -5.8463   35.2379 C   0  0  0  0  0  0  0  0  0  0  0  0
   -1.0774   -6.2107   36.0281 O   0  0  0  0  0  0  0  0  0  0  0  0
   -0.4276   -6.3705   33.8505 C   0  0  0  0  0  0  0  0  0  0  0  0
    0.0151   -5.7115   32.7034 C   0  0  0  0  0  0  0  0  0  0  0  0
   -0.3200   -6.2537   31.4787 C   0  0  0  0  0  0  0  0  0  0  0  0
    0.1344   -5.4570   30.0321 Cl  0  0  0  0  0  0  0  0  0  0  0  0
   -1.0938   -7.3365   31.3129 N   0  0  0  0  0  0  0  0  0  0  0  0
   -1.4751   -7.9394   32.4490 C   0  0  0  0  0  0  0  0  0  0  0  0
   -2.6347   -9.3696   32.3095 Br  0  0  0  0  0  0  0  0  0  0  0  0
   -1.1623   -7.5340   33.7210 C   0  0  0  0  0  0  0  0  0  0  0  0
  1  2  1  0
  2  3  2  0
  2  4  1  0
  4  5  2  0
  5  6  1  0
  6  7  2  0
  7  8  1  0
  7  9  1  0
  9 10  2  0
 10 11  1  0
 11 12  1  0
 12 13  2  0
 12 14  1  0
 14 15  2  0
 15 16  1  0
 16 17  1  0
 16 18  2  0
 18 19  1  0
 19 20  1  0
 19 21  2  0
 10  4  1  0
 21 14  1  0
M  END
>  <ref_mols>  (379) 
7gov-a

>  <gnina_score>  (379) 
4.956

>  <smina_score_min>  (379) 
-4.797

>  <ref_pdb>  (379) 
7gov-a

>  <inspiration_score>  (379) 
None

>  <inchikey>  (379) 
MAVXHWJOCGCLMT-UHFFFAOYSA-N

>  <tags>  (379) 
BulkDock Fragalysis export,openbind_d68ev3c_c2_elabs_scored,openbind_d68ev3c_c2_elabs_scored_4.5plus,openbind_d68ev3c_c2_elabs,openbind_d68ev3c_c2_elabs_scored_5plus,syndirella_product,openbind_d68ev3c_c2_elabs_scored_top80percent,syndirella_placed

>  <smiles>  (379) 
CC(=O)c1ccc(F)cc1NC(=O)c1cc(Cl)nc(Br)c1

>  <subsites>  (379) 
None

>  <rmsd(smina/fragmenstein)>  (379) 
1.154

>  <alias>  (379) 
None

>  <energy_score>  (379) 
-25.003793

>  <HIPPO Pose ID>  (379) 
65423

>  <distance_score>  (379) 
1.075871

>  <HIPPO Compound ID>  (379) 
102614

>  <gnina_score_min>  (379) 
5.036

>  <name>  (379) 
P65423

>  <exports>  (379) 
['/opt/xchem-fragalysis-2/maxwin/BulkDock/OUTPUTS/openbind_d68ev3c_c2_elabs_1LOTQJ3.sdf', '/opt/xchem-fragalysis-2/maxwin/BulkDock/OUTPUTS/openbind_d68ev3c_c2_elabs_1LSYEHW.sdf', '/opt/xchem-fragalysis-2/maxwin/BulkDock/OUTPUTS/openbind_d68ev3c_c2_elabs_1LSYI5W.sdf']

$$$$
P65426
     RDKit          3D

 21 22  0  0  0  0  0  0  0  0999 V2000
    5.2613   -2.0455   37.6917 C   0  0  0  0  0  0  0  0  0  0  0  0
    3.9452   -1.4198   37.2557 C   0  0  0  0  0  0  0  0  0  0  0  0
    2.7906   -2.3945   37.3212 C   0  0  0  0  0  0  0  0  0  0  0  0
    2.0269   -2.4178   38.5038 C   0  0  0  0  0  0  0  0  0  0  0  0
    0.9395   -3.2697   38.6315 C   0  0  0  0  0  0  0  0  0  0  0  0
    0.2233   -3.2738   39.7630 F   0  0  0  0  0  0  0  0  0  0  0  0
    0.5742   -4.1070   37.5997 C   0  0  0  0  0  0  0  0  0  0  0  0
    1.3339   -4.1194   36.4314 C   0  0  0  0  0  0  0  0  0  0  0  0
    0.9495   -4.9441   35.3853 N   0  0  0  0  0  0  0  0  0  0  0  0
   -0.2193   -5.9342   35.2724 C   0  0  0  0  0  0  0  0  0  0  0  0
   -1.0021   -6.2736   36.0670 O   0  0  0  0  0  0  0  0  0  0  0  0
   -0.3806   -6.4375   33.8828 C   0  0  0  0  0  0  0  0  0  0  0  0
    0.0505   -5.7624   32.7410 C   0  0  0  0  0  0  0  0  0  0  0  0
   -0.3132   -6.2770   31.5123 C   0  0  0  0  0  0  0  0  0  0  0  0
    0.1378   -5.4632   30.0743 Cl  0  0  0  0  0  0  0  0  0  0  0  0
   -1.1062   -7.3436   31.3403 N   0  0  0  0  0  0  0  0  0  0  0  0
   -1.4871   -7.9556   32.4726 C   0  0  0  0  0  0  0  0  0  0  0  0
   -2.6939   -9.3453   32.3267 Br  0  0  0  0  0  0  0  0  0  0  0  0
   -1.1442   -7.5808   33.7466 C   0  0  0  0  0  0  0  0  0  0  0  0
    2.4597   -3.2816   36.2722 C   0  0  0  0  0  0  0  0  0  0  0  0
    3.2674   -3.3604   34.9990 C   0  0  0  0  0  0  0  0  0  0  0  0
  1  2  1  0
  2  3  1  0
  3  4  2  0
  4  5  1  0
  5  6  1  0
  5  7  2  0
  7  8  1  0
  8  9  1  0
  9 10  1  0
 10 11  2  0
 10 12  1  0
 12 13  2  0
 13 14  1  0
 14 15  1  0
 14 16  2  0
 16 17  1  0
 17 18  1  0
 17 19  2  0
  8 20  2  0
 20 21  1  0
 20  3  1  0
 19 12  1  0
M  END
>  <ref_mols>  (380) 
7gov-a

>  <gnina_score>  (380) 
5.002

>  <smina_score_min>  (380) 
-4.553

>  <ref_pdb>  (380) 
7gov-a

>  <inspiration_score>  (380) 
None

>  <inchikey>  (380) 
KUZMAICFOQJYLV-UHFFFAOYSA-N

>  <tags>  (380) 
BulkDock Fragalysis export,openbind_d68ev3c_c2_elabs_scored,openbind_d68ev3c_c2_elabs_scored_4.5plus,openbind_d68ev3c_c2_elabs,openbind_d68ev3c_c2_elabs_scored_5plus,syndirella_product,openbind_d68ev3c_c2_elabs_scored_top80percent,syndirella_placed

>  <smiles>  (380) 
CCc1cc(F)cc(NC(=O)c2cc(Cl)nc(Br)c2)c1C

>  <subsites>  (380) 
None

>  <rmsd(smina/fragmenstein)>  (380) 
0.649

>  <alias>  (380) 
None

>  <energy_score>  (380) 
-15.170469

>  <HIPPO Pose ID>  (380) 
65426

>  <distance_score>  (380) 
1.061086

>  <HIPPO Compound ID>  (380) 
102619

>  <gnina_score_min>  (380) 
5.046

>  <name>  (380) 
P65426

>  <exports>  (380) 
['/opt/xchem-fragalysis-2/maxwin/BulkDock/OUTPUTS/openbind_d68ev3c_c2_elabs_1LOTQJ3.sdf', '/opt/xchem-fragalysis-2/maxwin/BulkDock/OUTPUTS/openbind_d68ev3c_c2_elabs_1LSYEHW.sdf', '/opt/xchem-fragalysis-2/maxwin/BulkDock/OUTPUTS/openbind_d68ev3c_c2_elabs_1LSYI5W.sdf']

$$$$
P65429
     RDKit          3D

 21 22  0  0  0  0  0  0  0  0999 V2000
    2.7486   -4.6254   33.8042 O   0  0  0  0  0  0  0  0  0  0  0  0
    3.0517   -3.9600   34.7867 C   0  0  0  0  0  0  0  0  0  0  0  0
    2.1745   -3.8368   35.9728 C   0  0  0  0  0  0  0  0  0  0  0  0
    2.6023   -2.9822   36.9963 C   0  0  0  0  0  0  0  0  0  0  0  0
    1.8450   -2.8767   38.1561 C   0  0  0  0  0  0  0  0  0  0  0  0
    2.2669   -2.0726   39.1420 F   0  0  0  0  0  0  0  0  0  0  0  0
    0.6653   -3.5952   38.2963 C   0  0  0  0  0  0  0  0  0  0  0  0
   -0.0535   -3.4929   39.4226 F   0  0  0  0  0  0  0  0  0  0  0  0
    0.2176   -4.4260   37.2743 C   0  0  0  0  0  0  0  0  0  0  0  0
    0.9734   -4.5598   36.1043 C   0  0  0  0  0  0  0  0  0  0  0  0
    0.5296   -5.3942   35.0786 N   0  0  0  0  0  0  0  0  0  0  0  0
   -0.7101   -6.3104   34.9964 C   0  0  0  0  0  0  0  0  0  0  0  0
   -1.5143   -6.5707   35.8033 O   0  0  0  0  0  0  0  0  0  0  0  0
   -0.8764   -6.9856   33.6710 C   0  0  0  0  0  0  0  0  0  0  0  0
   -1.5153   -8.2372   33.7353 C   0  0  0  0  0  0  0  0  0  0  0  0
   -1.8406   -8.8827   32.5642 C   0  0  0  0  0  0  0  0  0  0  0  0
   -1.5363   -8.4046   31.3476 N   0  0  0  0  0  0  0  0  0  0  0  0
   -0.8700   -7.2226   31.3073 C   0  0  0  0  0  0  0  0  0  0  0  0
   -0.5300   -6.7567   29.6840 Cl  0  0  0  0  0  0  0  0  0  0  0  0
   -0.5667   -6.4409   32.4196 C   0  0  0  0  0  0  0  0  0  0  0  0
   -0.0099   -4.8215   32.2029 Cl  0  0  0  0  0  0  0  0  0  0  0  0
  1  2  2  0
  2  3  1  0
  3  4  2  0
  4  5  1  0
  5  6  1  0
  5  7  2  0
  7  8  1  0
  7  9  1  0
  9 10  2  0
 10 11  1  0
 11 12  1  0
 12 13  2  0
 12 14  1  0
 14 15  2  0
 15 16  1  0
 16 17  2  0
 17 18  1  0
 18 19  1  0
 18 20  2  0
 20 21  1  0
 10  3  1  0
 20 14  1  0
M  END
>  <ref_mols>  (381) 
7gov-a

>  <gnina_score>  (381) 
5.093

>  <smina_score_min>  (381) 
-6.265

>  <ref_pdb>  (381) 
7gov-a

>  <inspiration_score>  (381) 
None

>  <inchikey>  (381) 
HZMCZNZLAKBQTR-UHFFFAOYSA-N

>  <tags>  (381) 
BulkDock Fragalysis export,openbind_d68ev3c_c2_elabs_scored,openbind_d68ev3c_c2_elabs_scored_4.5plus,openbind_d68ev3c_c2_elabs,openbind_d68ev3c_c2_elabs_scored_5plus,syndirella_product,openbind_d68ev3c_c2_elabs_scored_top80percent,syndirella_placed

>  <smiles>  (381) 
O=Cc1cc(F)c(F)cc1NC(=O)c1ccnc(Cl)c1Cl

>  <subsites>  (381) 
None

>  <rmsd(smina/fragmenstein)>  (381) 
1.195

>  <alias>  (381) 
None

>  <energy_score>  (381) 
-30.283751

>  <HIPPO Pose ID>  (381) 
65429

>  <distance_score>  (381) 
0.752769

>  <HIPPO Compound ID>  (381) 
102624

>  <gnina_score_min>  (381) 
5.138

>  <name>  (381) 
P65429

>  <exports>  (381) 
['/opt/xchem-fragalysis-2/maxwin/BulkDock/OUTPUTS/openbind_d68ev3c_c2_elabs_1LOTQJ3.sdf', '/opt/xchem-fragalysis-2/maxwin/BulkDock/OUTPUTS/openbind_d68ev3c_c2_elabs_1LSYEHW.sdf', '/opt/xchem-fragalysis-2/maxwin/BulkDock/OUTPUTS/openbind_d68ev3c_c2_elabs_1LSYI5W.sdf']

$$$$
P65430
     RDKit          3D

 21 22  0  0  0  0  0  0  0  0999 V2000
   -1.4427   -6.6226   35.8378 O   0  0  0  0  0  0  0  0  0  0  0  0
   -0.6645   -6.3422   35.0125 C   0  0  0  0  0  0  0  0  0  0  0  0
    0.5482   -5.3875   35.0636 N   0  0  0  0  0  0  0  0  0  0  0  0
    0.9890   -4.5318   36.0784 C   0  0  0  0  0  0  0  0  0  0  0  0
    0.2464   -4.4344   37.2630 C   0  0  0  0  0  0  0  0  0  0  0  0
    0.6732   -3.5991   38.2883 C   0  0  0  0  0  0  0  0  0  0  0  0
   -0.0374   -3.5348   39.4233 F   0  0  0  0  0  0  0  0  0  0  0  0
    1.8221   -2.8414   38.1417 C   0  0  0  0  0  0  0  0  0  0  0  0
    2.2323   -2.0357   39.1319 F   0  0  0  0  0  0  0  0  0  0  0  0
    2.5587   -2.9111   36.9656 C   0  0  0  0  0  0  0  0  0  0  0  0
    2.1595   -3.7581   35.9124 C   0  0  0  0  0  0  0  0  0  0  0  0
    3.0205   -3.8709   34.6769 C   0  0  0  0  0  0  0  0  0  0  0  0
    4.0208   -2.8587   34.6143 O   0  0  0  0  0  0  0  0  0  0  0  0
   -0.8515   -7.0163   33.6823 C   0  0  0  0  0  0  0  0  0  0  0  0
   -1.5570   -8.2326   33.7486 C   0  0  0  0  0  0  0  0  0  0  0  0
   -1.9129   -8.8693   32.5810 C   0  0  0  0  0  0  0  0  0  0  0  0
   -1.5917   -8.4103   31.3622 N   0  0  0  0  0  0  0  0  0  0  0  0
   -0.8660   -7.2664   31.3152 C   0  0  0  0  0  0  0  0  0  0  0  0
   -0.5359   -6.8098   29.6867 Cl  0  0  0  0  0  0  0  0  0  0  0  0
   -0.4963   -6.5083   32.4252 C   0  0  0  0  0  0  0  0  0  0  0  0
    0.2577   -4.9733   32.1890 Cl  0  0  0  0  0  0  0  0  0  0  0  0
  1  2  2  0
  2  3  1  0
  3  4  1  0
  4  5  2  0
  5  6  1  0
  6  7  1  0
  6  8  2  0
  8  9  1  0
  8 10  1  0
 10 11  2  0
 11 12  1  0
 12 13  1  0
  2 14  1  0
 14 15  2  0
 15 16  1  0
 16 17  2  0
 17 18  1  0
 18 19  1  0
 18 20  2  0
 20 21  1  0
 11  4  1  0
 20 14  1  0
M  END
>  <ref_mols>  (382) 
7gov-a

>  <gnina_score>  (382) 
5.025

>  <smina_score_min>  (382) 
-6.07

>  <ref_pdb>  (382) 
7gov-a

>  <inspiration_score>  (382) 
None

>  <inchikey>  (382) 
JZAWVDGAKXJJRH-UHFFFAOYSA-N

>  <tags>  (382) 
BulkDock Fragalysis export,openbind_d68ev3c_c2_elabs_scored,openbind_d68ev3c_c2_elabs_scored_4.5plus,openbind_d68ev3c_c2_elabs,openbind_d68ev3c_c2_elabs_scored_5plus,syndirella_product,openbind_d68ev3c_c2_elabs_scored_top80percent,syndirella_placed

>  <smiles>  (382) 
O=C(Nc1cc(F)c(F)cc1CO)c1ccnc(Cl)c1Cl

>  <subsites>  (382) 
None

>  <rmsd(smina/fragmenstein)>  (382) 
1.145

>  <alias>  (382) 
None

>  <energy_score>  (382) 
-18.324138

>  <HIPPO Pose ID>  (382) 
65430

>  <distance_score>  (382) 
0.727436

>  <HIPPO Compound ID>  (382) 
102627

>  <gnina_score_min>  (382) 
5.007

>  <name>  (382) 
P65430

>  <exports>  (382) 
['/opt/xchem-fragalysis-2/maxwin/BulkDock/OUTPUTS/openbind_d68ev3c_c2_elabs_1LOTQJ3.sdf', '/opt/xchem-fragalysis-2/maxwin/BulkDock/OUTPUTS/openbind_d68ev3c_c2_elabs_1LSYEHW.sdf', '/opt/xchem-fragalysis-2/maxwin/BulkDock/OUTPUTS/openbind_d68ev3c_c2_elabs_1LSYI5W.sdf']

$$$$
P65432
     RDKit          3D

 21 22  0  0  0  0  0  0  0  0999 V2000
    2.1658   -1.8829   39.2642 C   0  0  0  0  0  0  0  0  0  0  0  0
    1.7944   -2.8050   38.1379 C   0  0  0  0  0  0  0  0  0  0  0  0
    0.6614   -3.6066   38.2695 C   0  0  0  0  0  0  0  0  0  0  0  0
   -0.0738   -3.5494   39.3905 F   0  0  0  0  0  0  0  0  0  0  0  0
    0.2507   -4.4639   37.2593 C   0  0  0  0  0  0  0  0  0  0  0  0
    0.9967   -4.5727   36.0863 C   0  0  0  0  0  0  0  0  0  0  0  0
    0.5462   -5.4167   35.0670 N   0  0  0  0  0  0  0  0  0  0  0  0
   -0.6707   -6.3633   35.0140 C   0  0  0  0  0  0  0  0  0  0  0  0
   -1.4461   -6.6467   35.8404 O   0  0  0  0  0  0  0  0  0  0  0  0
   -0.8581   -7.0253   33.6783 C   0  0  0  0  0  0  0  0  0  0  0  0
   -1.5705   -8.2379   33.7341 C   0  0  0  0  0  0  0  0  0  0  0  0
   -1.9228   -8.8653   32.5610 C   0  0  0  0  0  0  0  0  0  0  0  0
   -1.5935   -8.3991   31.3469 N   0  0  0  0  0  0  0  0  0  0  0  0
   -0.8601   -7.2589   31.3105 C   0  0  0  0  0  0  0  0  0  0  0  0
   -0.5240   -6.7916   29.6863 Cl  0  0  0  0  0  0  0  0  0  0  0  0
   -0.4902   -6.5109   32.4269 C   0  0  0  0  0  0  0  0  0  0  0  0
    0.2835   -4.9816   32.2057 Cl  0  0  0  0  0  0  0  0  0  0  0  0
    2.1752   -3.8118   35.9200 C   0  0  0  0  0  0  0  0  0  0  0  0
    3.0035   -3.9524   34.6653 C   0  0  0  0  0  0  0  0  0  0  0  0
    2.5386   -2.8994   36.9445 C   0  0  0  0  0  0  0  0  0  0  0  0
    4.0495   -1.7398   36.7183 Br  0  0  0  0  0  0  0  0  0  0  0  0
  1  2  1  0
  2  3  2  0
  3  4  1  0
  3  5  1  0
  5  6  2  0
  6  7  1  0
  7  8  1  0
  8  9  2  0
  8 10  1  0
 10 11  2  0
 11 12  1  0
 12 13  2  0
 13 14  1  0
 14 15  1  0
 14 16  2  0
 16 17  1  0
  6 18  1  0
 18 19  1  0
 18 20  2  0
 20 21  1  0
 20  2  1  0
 16 10  1  0
M  END
>  <ref_mols>  (383) 
7gov-a

>  <gnina_score>  (383) 
5.29

>  <smina_score_min>  (383) 
-6.167

>  <ref_pdb>  (383) 
7gov-a

>  <inspiration_score>  (383) 
None

>  <inchikey>  (383) 
XUEJUODKWIJUCY-UHFFFAOYSA-N

>  <tags>  (383) 
BulkDock Fragalysis export,openbind_d68ev3c_c2_elabs_scored,openbind_d68ev3c_c2_elabs_scored_4.5plus,openbind_d68ev3c_c2_elabs,openbind_d68ev3c_c2_elabs_scored_5plus,syndirella_product,openbind_d68ev3c_c2_elabs_scored_top80percent,syndirella_placed

>  <smiles>  (383) 
Cc1c(F)cc(NC(=O)c2ccnc(Cl)c2Cl)c(C)c1Br

>  <subsites>  (383) 
None

>  <rmsd(smina/fragmenstein)>  (383) 
1.138

>  <alias>  (383) 
None

>  <energy_score>  (383) 
-3.55928

>  <HIPPO Pose ID>  (383) 
65432

>  <distance_score>  (383) 
0.727811

>  <HIPPO Compound ID>  (383) 
102630

>  <gnina_score_min>  (383) 
5.259

>  <name>  (383) 
P65432

>  <exports>  (383) 
['/opt/xchem-fragalysis-2/maxwin/BulkDock/OUTPUTS/openbind_d68ev3c_c2_elabs_1LOTQJ3.sdf', '/opt/xchem-fragalysis-2/maxwin/BulkDock/OUTPUTS/openbind_d68ev3c_c2_elabs_1LSYEHW.sdf', '/opt/xchem-fragalysis-2/maxwin/BulkDock/OUTPUTS/openbind_d68ev3c_c2_elabs_1LSYI5W.sdf']

$$$$
P65433
     RDKit          3D

 21 22  0  0  0  0  0  0  0  0999 V2000
    3.0237   -3.3047   34.7734 C   0  0  0  0  0  0  0  0  0  0  0  0
    2.1275   -3.4487   35.9722 C   0  0  0  0  0  0  0  0  0  0  0  0
    2.5574   -2.8944   37.2101 C   0  0  0  0  0  0  0  0  0  0  0  0
    3.8361   -2.2531   37.3662 C   0  0  0  0  0  0  0  0  0  0  0  0
    4.8535   -1.7158   37.5273 N   0  0  0  0  0  0  0  0  0  0  0  0
    1.7537   -2.9655   38.3523 C   0  0  0  0  0  0  0  0  0  0  0  0
    0.5280   -3.5916   38.2796 C   0  0  0  0  0  0  0  0  0  0  0  0
   -0.2383   -3.6709   39.3744 F   0  0  0  0  0  0  0  0  0  0  0  0
    0.0913   -4.1583   37.0929 C   0  0  0  0  0  0  0  0  0  0  0  0
    0.8895   -4.1235   35.9338 C   0  0  0  0  0  0  0  0  0  0  0  0
    0.3303   -4.8437   34.8633 N   0  0  0  0  0  0  0  0  0  0  0  0
    0.9591   -5.3107   33.5272 C   0  0  0  0  0  0  0  0  0  0  0  0
    2.0160   -5.1035   33.0745 O   0  0  0  0  0  0  0  0  0  0  0  0
    0.0526   -6.2025   32.7435 C   0  0  0  0  0  0  0  0  0  0  0  0
    0.1602   -6.0887   31.3507 C   0  0  0  0  0  0  0  0  0  0  0  0
   -0.5935   -6.9160   30.5434 C   0  0  0  0  0  0  0  0  0  0  0  0
   -1.4713   -7.8117   31.0229 N   0  0  0  0  0  0  0  0  0  0  0  0
   -1.5228   -7.9270   32.3706 C   0  0  0  0  0  0  0  0  0  0  0  0
   -2.6441   -9.1225   32.8380 Cl  0  0  0  0  0  0  0  0  0  0  0  0
   -0.7887   -7.1768   33.2829 C   0  0  0  0  0  0  0  0  0  0  0  0
   -0.9055   -7.5024   34.9774 Cl  0  0  0  0  0  0  0  0  0  0  0  0
  1  2  1  0
  2  3  2  0
  3  4  1  0
  4  5  3  0
  3  6  1  0
  6  7  2  0
  7  8  1  0
  7  9  1  0
  9 10  2  0
 10 11  1  0
 11 12  1  0
 12 13  2  0
 12 14  1  0
 14 15  2  0
 15 16  1  0
 16 17  2  0
 17 18  1  0
 18 19  1  0
 18 20  2  0
 20 21  1  0
 10  2  1  0
 20 14  1  0
M  END
>  <ref_mols>  (384) 
7gov-a

>  <gnina_score>  (384) 
5.183

>  <smina_score_min>  (384) 
-5.147

>  <ref_pdb>  (384) 
7gov-a

>  <inspiration_score>  (384) 
None

>  <inchikey>  (384) 
RHNFKMAZPBRBAK-UHFFFAOYSA-N

>  <tags>  (384) 
BulkDock Fragalysis export,openbind_d68ev3c_c2_elabs_scored,openbind_d68ev3c_c2_elabs_scored_4.5plus,openbind_d68ev3c_c2_elabs,openbind_d68ev3c_c2_elabs_scored_5plus,syndirella_product,openbind_d68ev3c_c2_elabs_scored_top80percent,syndirella_placed

>  <smiles>  (384) 
Cc1c(C#N)cc(F)cc1NC(=O)c1ccnc(Cl)c1Cl

>  <subsites>  (384) 
None

>  <rmsd(smina/fragmenstein)>  (384) 
1.913

>  <alias>  (384) 
None

>  <energy_score>  (384) 
-13.783756

>  <HIPPO Pose ID>  (384) 
65433

>  <distance_score>  (384) 
1.177413

>  <HIPPO Compound ID>  (384) 
102631

>  <gnina_score_min>  (384) 
5.121

>  <name>  (384) 
P65433

>  <exports>  (384) 
['/opt/xchem-fragalysis-2/maxwin/BulkDock/OUTPUTS/openbind_d68ev3c_c2_elabs_1LOTQJ3.sdf', '/opt/xchem-fragalysis-2/maxwin/BulkDock/OUTPUTS/openbind_d68ev3c_c2_elabs_1LSYEHW.sdf', '/opt/xchem-fragalysis-2/maxwin/BulkDock/OUTPUTS/openbind_d68ev3c_c2_elabs_1LSYI5W.sdf']

$$$$
P65434
     RDKit          3D

 21 22  0  0  0  0  0  0  0  0999 V2000
    0.5433   -7.3050   35.7101 O   0  0  0  0  0  0  0  0  0  0  0  0
    0.4040   -6.4705   34.9125 C   0  0  0  0  0  0  0  0  0  0  0  0
    0.6972   -4.9698   34.9844 N   0  0  0  0  0  0  0  0  0  0  0  0
    1.1194   -4.1868   36.0421 C   0  0  0  0  0  0  0  0  0  0  0  0
    2.0735   -3.1894   35.8102 C   0  0  0  0  0  0  0  0  0  0  0  0
    2.7797   -3.0712   34.4847 C   0  0  0  0  0  0  0  0  0  0  0  0
    1.8460   -3.0290   33.4042 O   0  0  0  0  0  0  0  0  0  0  0  0
    2.4775   -2.3952   36.8970 C   0  0  0  0  0  0  0  0  0  0  0  0
    1.9145   -2.5740   38.1656 C   0  0  0  0  0  0  0  0  0  0  0  0
    0.9581   -3.5623   38.3639 C   0  0  0  0  0  0  0  0  0  0  0  0
    0.3954   -3.7020   39.5729 F   0  0  0  0  0  0  0  0  0  0  0  0
    0.5698   -4.3786   37.3152 C   0  0  0  0  0  0  0  0  0  0  0  0
   -0.3899   -5.2954   37.5192 F   0  0  0  0  0  0  0  0  0  0  0  0
   -0.2467   -6.8464   33.6374 C   0  0  0  0  0  0  0  0  0  0  0  0
    0.2779   -6.4437   32.4051 C   0  0  0  0  0  0  0  0  0  0  0  0
   -0.3185   -6.9192   31.2491 C   0  0  0  0  0  0  0  0  0  0  0  0
   -1.3770   -7.7509   31.2460 N   0  0  0  0  0  0  0  0  0  0  0  0
   -1.8407   -8.1146   32.4644 C   0  0  0  0  0  0  0  0  0  0  0  0
   -3.1498   -9.1894   32.3594 Cl  0  0  0  0  0  0  0  0  0  0  0  0
   -1.3569   -7.6820   33.6817 C   0  0  0  0  0  0  0  0  0  0  0  0
   -2.1770   -8.1000   35.1423 Cl  0  0  0  0  0  0  0  0  0  0  0  0
  1  2  2  0
  2  3  1  0
  3  4  1  0
  4  5  2  0
  5  6  1  0
  6  7  1  0
  5  8  1  0
  8  9  2  0
  9 10  1  0
 10 11  1  0
 10 12  2  0
 12 13  1  0
  2 14  1  0
 14 15  2  0
 15 16  1  0
 16 17  2  0
 17 18  1  0
 18 19  1  0
 18 20  2  0
 20 21  1  0
 12  4  1  0
 20 14  1  0
M  END
>  <ref_mols>  (385) 
7gov-a

>  <gnina_score>  (385) 
5.143

>  <smina_score_min>  (385) 
-5.188

>  <ref_pdb>  (385) 
7gov-a

>  <inspiration_score>  (385) 
None

>  <inchikey>  (385) 
JBHVEMMCQVYCGG-UHFFFAOYSA-N

>  <tags>  (385) 
BulkDock Fragalysis export,openbind_d68ev3c_c2_elabs_scored,openbind_d68ev3c_c2_elabs_scored_4.5plus,openbind_d68ev3c_c2_elabs,openbind_d68ev3c_c2_elabs_scored_5plus,syndirella_product,openbind_d68ev3c_c2_elabs_scored_top80percent,syndirella_placed

>  <smiles>  (385) 
O=C(Nc1c(CO)ccc(F)c1F)c1ccnc(Cl)c1Cl

>  <subsites>  (385) 
None

>  <rmsd(smina/fragmenstein)>  (385) 
0.604

>  <alias>  (385) 
None

>  <energy_score>  (385) 
-6.957914

>  <HIPPO Pose ID>  (385) 
65434

>  <distance_score>  (385) 
0.615842

>  <HIPPO Compound ID>  (385) 
102633

>  <gnina_score_min>  (385) 
5.112

>  <name>  (385) 
P65434

>  <exports>  (385) 
['/opt/xchem-fragalysis-2/maxwin/BulkDock/OUTPUTS/openbind_d68ev3c_c2_elabs_1LOTQJ3.sdf', '/opt/xchem-fragalysis-2/maxwin/BulkDock/OUTPUTS/openbind_d68ev3c_c2_elabs_1LSYEHW.sdf', '/opt/xchem-fragalysis-2/maxwin/BulkDock/OUTPUTS/openbind_d68ev3c_c2_elabs_1LSYI5W.sdf']

$$$$
P65435
     RDKit          3D

 21 22  0  0  0  0  0  0  0  0999 V2000
    2.0558   -2.3933   33.3467 C   0  0  0  0  0  0  0  0  0  0  0  0
    2.9015   -2.9722   34.4829 C   0  0  0  0  0  0  0  0  0  0  0  0
    3.6652   -4.2247   34.0431 C   0  0  0  0  0  0  0  0  0  0  0  0
    2.1164   -3.1614   35.7726 C   0  0  0  0  0  0  0  0  0  0  0  0
    2.4621   -2.3607   36.8802 C   0  0  0  0  0  0  0  0  0  0  0  0
    1.8669   -2.5507   38.1302 C   0  0  0  0  0  0  0  0  0  0  0  0
    0.9293   -3.5566   38.2945 C   0  0  0  0  0  0  0  0  0  0  0  0
    0.3433   -3.7313   39.4869 F   0  0  0  0  0  0  0  0  0  0  0  0
    0.5777   -4.3706   37.2315 C   0  0  0  0  0  0  0  0  0  0  0  0
    1.1527   -4.1581   35.9728 C   0  0  0  0  0  0  0  0  0  0  0  0
    0.7182   -4.9616   34.9350 N   0  0  0  0  0  0  0  0  0  0  0  0
    0.3945   -6.4596   34.9035 C   0  0  0  0  0  0  0  0  0  0  0  0
    0.5142   -7.2744   35.7248 O   0  0  0  0  0  0  0  0  0  0  0  0
   -0.2597   -6.8543   33.6337 C   0  0  0  0  0  0  0  0  0  0  0  0
    0.2649   -6.4643   32.3964 C   0  0  0  0  0  0  0  0  0  0  0  0
   -0.3325   -6.9466   31.2439 C   0  0  0  0  0  0  0  0  0  0  0  0
   -1.3946   -7.7725   31.2491 N   0  0  0  0  0  0  0  0  0  0  0  0
   -1.8565   -8.1284   32.4702 C   0  0  0  0  0  0  0  0  0  0  0  0
   -3.1751   -9.1912   32.3720 Cl  0  0  0  0  0  0  0  0  0  0  0  0
   -1.3693   -7.6898   33.6845 C   0  0  0  0  0  0  0  0  0  0  0  0
   -2.1877   -8.0960   35.1490 Cl  0  0  0  0  0  0  0  0  0  0  0  0
  1  2  1  0
  2  3  1  0
  2  4  1  0
  4  5  2  0
  5  6  1  0
  6  7  2  0
  7  8  1  0
  7  9  1  0
  9 10  2  0
 10 11  1  0
 11 12  1  0
 12 13  2  0
 12 14  1  0
 14 15  2  0
 15 16  1  0
 16 17  2  0
 17 18  1  0
 18 19  1  0
 18 20  2  0
 20 21  1  0
 10  4  1  0
 20 14  1  0
M  END
>  <ref_mols>  (386) 
7gov-a

>  <gnina_score>  (386) 
5.256

>  <smina_score_min>  (386) 
-5.279

>  <ref_pdb>  (386) 
7gov-a

>  <inspiration_score>  (386) 
None

>  <inchikey>  (386) 
PKBDCDSBYVYICJ-UHFFFAOYSA-N

>  <tags>  (386) 
BulkDock Fragalysis export,openbind_d68ev3c_c2_elabs_scored,openbind_d68ev3c_c2_elabs_scored_4.5plus,openbind_d68ev3c_c2_elabs,openbind_d68ev3c_c2_elabs_scored_5plus,syndirella_product,openbind_d68ev3c_c2_elabs_scored_top80percent,syndirella_placed

>  <smiles>  (386) 
CC(C)c1ccc(F)cc1NC(=O)c1ccnc(Cl)c1Cl

>  <subsites>  (386) 
None

>  <rmsd(smina/fragmenstein)>  (386) 
1.324

>  <alias>  (386) 
None

>  <energy_score>  (386) 
-11.61008

>  <HIPPO Pose ID>  (386) 
65435

>  <distance_score>  (386) 
0.62559

>  <HIPPO Compound ID>  (386) 
102636

>  <gnina_score_min>  (386) 
5.236

>  <name>  (386) 
P65435

>  <exports>  (386) 
['/opt/xchem-fragalysis-2/maxwin/BulkDock/OUTPUTS/openbind_d68ev3c_c2_elabs_1LOTQJ3.sdf', '/opt/xchem-fragalysis-2/maxwin/BulkDock/OUTPUTS/openbind_d68ev3c_c2_elabs_1LSYEHW.sdf', '/opt/xchem-fragalysis-2/maxwin/BulkDock/OUTPUTS/openbind_d68ev3c_c2_elabs_1LSYI5W.sdf']

$$$$
P65437
     RDKit          3D

 21 23  0  0  0  0  0  0  0  0999 V2000
   -1.4901   -6.5892   35.8052 O   0  0  0  0  0  0  0  0  0  0  0  0
   -0.7039   -6.3088   34.9866 C   0  0  0  0  0  0  0  0  0  0  0  0
    0.5132   -5.3584   35.0505 N   0  0  0  0  0  0  0  0  0  0  0  0
    0.9493   -4.5086   36.0713 C   0  0  0  0  0  0  0  0  0  0  0  0
    0.1828   -4.3891   37.2373 C   0  0  0  0  0  0  0  0  0  0  0  0
    0.6133   -3.5679   38.2683 C   0  0  0  0  0  0  0  0  0  0  0  0
   -0.1096   -3.4823   39.3929 F   0  0  0  0  0  0  0  0  0  0  0  0
    1.7867   -2.8446   38.1565 C   0  0  0  0  0  0  0  0  0  0  0  0
    2.5476   -2.9560   36.9926 C   0  0  0  0  0  0  0  0  0  0  0  0
    2.1563   -3.7844   35.9186 C   0  0  0  0  0  0  0  0  0  0  0  0
    3.0604   -3.9389   34.7068 C   0  0  0  0  0  0  0  0  0  0  0  0
    3.9179   -2.7919   34.2120 C   0  0  0  0  0  0  0  0  0  0  0  0
    2.7294   -3.2264   33.4168 C   0  0  0  0  0  0  0  0  0  0  0  0
   -0.8758   -6.9979   33.6662 C   0  0  0  0  0  0  0  0  0  0  0  0
   -1.5335   -8.2396   33.7439 C   0  0  0  0  0  0  0  0  0  0  0  0
   -1.8706   -8.8949   32.5814 C   0  0  0  0  0  0  0  0  0  0  0  0
   -1.5652   -8.4351   31.3586 N   0  0  0  0  0  0  0  0  0  0  0  0
   -0.8832   -7.2650   31.3032 C   0  0  0  0  0  0  0  0  0  0  0  0
   -0.5533   -6.8167   29.6723 Cl  0  0  0  0  0  0  0  0  0  0  0  0
   -0.5548   -6.4801   32.4066 C   0  0  0  0  0  0  0  0  0  0  0  0
    0.0735   -4.8946   32.1635 Cl  0  0  0  0  0  0  0  0  0  0  0  0
  1  2  2  0
  2  3  1  0
  3  4  1  0
  4  5  2  0
  5  6  1  0
  6  7  1  0
  6  8  2  0
  8  9  1  0
  9 10  2  0
 10 11  1  0
 11 12  1  0
 12 13  1  0
  2 14  1  0
 14 15  2  0
 15 16  1  0
 16 17  2  0
 17 18  1  0
 18 19  1  0
 18 20  2  0
 20 21  1  0
 10  4  1  0
 13 11  1  0
 20 14  1  0
M  END
>  <ref_mols>  (387) 
7gov-a

>  <gnina_score>  (387) 
5.262

>  <smina_score_min>  (387) 
-5.949

>  <ref_pdb>  (387) 
7gov-a

>  <inspiration_score>  (387) 
None

>  <inchikey>  (387) 
IVNMKAKQRQSMFL-UHFFFAOYSA-N

>  <tags>  (387) 
BulkDock Fragalysis export,openbind_d68ev3c_c2_elabs_scored,openbind_d68ev3c_c2_elabs_scored_4.5plus,openbind_d68ev3c_c2_elabs,openbind_d68ev3c_c2_elabs_scored_5plus,syndirella_product,openbind_d68ev3c_c2_elabs_scored_top80percent,syndirella_placed

>  <smiles>  (387) 
O=C(Nc1cc(F)ccc1C1CC1)c1ccnc(Cl)c1Cl

>  <subsites>  (387) 
None

>  <rmsd(smina/fragmenstein)>  (387) 
1.071

>  <alias>  (387) 
None

>  <energy_score>  (387) 
-4.006993

>  <HIPPO Pose ID>  (387) 
65437

>  <distance_score>  (387) 
0.741832

>  <HIPPO Compound ID>  (387) 
102638

>  <gnina_score_min>  (387) 
5.225

>  <name>  (387) 
P65437

>  <exports>  (387) 
['/opt/xchem-fragalysis-2/maxwin/BulkDock/OUTPUTS/openbind_d68ev3c_c2_elabs_1LOTQJ3.sdf', '/opt/xchem-fragalysis-2/maxwin/BulkDock/OUTPUTS/openbind_d68ev3c_c2_elabs_1LSYEHW.sdf', '/opt/xchem-fragalysis-2/maxwin/BulkDock/OUTPUTS/openbind_d68ev3c_c2_elabs_1LSYI5W.sdf']

$$$$
P65438
     RDKit          3D

 21 23  0  0  0  0  0  0  0  0999 V2000
    1.0994   -7.2071   35.3040 O   0  0  0  0  0  0  0  0  0  0  0  0
    0.7441   -6.3849   34.5557 C   0  0  0  0  0  0  0  0  0  0  0  0
    1.1028   -4.8859   34.4716 N   0  0  0  0  0  0  0  0  0  0  0  0
    1.8534   -4.1111   35.2966 N   0  0  0  0  0  0  0  0  0  0  0  0
    2.3267   -2.8153   34.8195 C   0  0  0  0  0  0  0  0  0  0  0  0
    2.7356   -2.0017   36.0577 C   0  0  0  0  0  0  0  0  0  0  0  0
    1.8225   -2.6076   37.0663 C   0  0  0  0  0  0  0  0  0  0  0  0
    1.5011   -2.1455   38.3362 C   0  0  0  0  0  0  0  0  0  0  0  0
    0.6554   -2.9181   39.1224 C   0  0  0  0  0  0  0  0  0  0  0  0
    0.1591   -4.1186   38.6238 C   0  0  0  0  0  0  0  0  0  0  0  0
   -0.6436   -4.8623   39.3988 F   0  0  0  0  0  0  0  0  0  0  0  0
    0.4749   -4.5699   37.3477 C   0  0  0  0  0  0  0  0  0  0  0  0
    1.3247   -3.8154   36.5706 C   0  0  0  0  0  0  0  0  0  0  0  0
   -0.1167   -6.7830   33.4163 C   0  0  0  0  0  0  0  0  0  0  0  0
    0.2921   -6.4599   32.1148 C   0  0  0  0  0  0  0  0  0  0  0  0
   -0.4161   -6.9810   31.0489 C   0  0  0  0  0  0  0  0  0  0  0  0
   -1.4805   -7.7873   31.1974 N   0  0  0  0  0  0  0  0  0  0  0  0
   -1.8268   -8.0852   32.4742 C   0  0  0  0  0  0  0  0  0  0  0  0
   -3.1488   -9.1525   32.5199 Cl  0  0  0  0  0  0  0  0  0  0  0  0
   -1.2177   -7.6009   33.6183 C   0  0  0  0  0  0  0  0  0  0  0  0
   -1.8443   -7.9363   35.1855 Cl  0  0  0  0  0  0  0  0  0  0  0  0
  1  2  2  0
  2  3  1  0
  3  4  1  0
  4  5  1  0
  5  6  1  0
  6  7  1  0
  7  8  2  0
  8  9  1  0
  9 10  2  0
 10 11  1  0
 10 12  1  0
 12 13  2  0
  2 14  1  0
 14 15  2  0
 15 16  1  0
 16 17  2  0
 17 18  1  0
 18 19  1  0
 18 20  2  0
 20 21  1  0
 13  4  1  0
 20 14  1  0
 13  7  1  0
M  END
>  <ref_mols>  (388) 
7gov-a

>  <gnina_score>  (388) 
5.253

>  <smina_score_min>  (388) 
-5.321

>  <ref_pdb>  (388) 
7gov-a

>  <inspiration_score>  (388) 
None

>  <inchikey>  (388) 
BQBPSXAGKISZFP-UHFFFAOYSA-N

>  <tags>  (388) 
BulkDock Fragalysis export,openbind_d68ev3c_c2_elabs_scored,openbind_d68ev3c_c2_elabs_scored_4.5plus,openbind_d68ev3c_c2_elabs,openbind_d68ev3c_c2_elabs_scored_5plus,syndirella_product,openbind_d68ev3c_c2_elabs_scored_top80percent,syndirella_placed

>  <smiles>  (388) 
O=C(NN1CCc2ccc(F)cc21)c1ccnc(Cl)c1Cl

>  <subsites>  (388) 
None

>  <rmsd(smina/fragmenstein)>  (388) 
0.981

>  <alias>  (388) 
None

>  <energy_score>  (388) 
-5.360842

>  <HIPPO Pose ID>  (388) 
65438

>  <distance_score>  (388) 
1.667929

>  <HIPPO Compound ID>  (388) 
102641

>  <gnina_score_min>  (388) 
5.179

>  <name>  (388) 
P65438

>  <exports>  (388) 
['/opt/xchem-fragalysis-2/maxwin/BulkDock/OUTPUTS/openbind_d68ev3c_c2_elabs_1LOTQJ3.sdf', '/opt/xchem-fragalysis-2/maxwin/BulkDock/OUTPUTS/openbind_d68ev3c_c2_elabs_1LSYEHW.sdf', '/opt/xchem-fragalysis-2/maxwin/BulkDock/OUTPUTS/openbind_d68ev3c_c2_elabs_1LSYI5W.sdf']

$$$$
P65439
     RDKit          3D

 21 22  0  0  0  0  0  0  0  0999 V2000
    3.9020   -4.9883   34.5249 C   0  0  0  0  0  0  0  0  0  0  0  0
    2.9754   -3.7844   34.5905 C   0  0  0  0  0  0  0  0  0  0  0  0
    2.1487   -3.7488   35.8560 C   0  0  0  0  0  0  0  0  0  0  0  0
    2.5875   -2.9191   36.9065 C   0  0  0  0  0  0  0  0  0  0  0  0
    1.8872   -2.8633   38.1109 C   0  0  0  0  0  0  0  0  0  0  0  0
    2.5240   -1.7622   39.5100 Br  0  0  0  0  0  0  0  0  0  0  0  0
    0.7343   -3.6194   38.2723 C   0  0  0  0  0  0  0  0  0  0  0  0
    0.0411   -3.5774   39.4204 F   0  0  0  0  0  0  0  0  0  0  0  0
    0.2774   -4.4395   37.2464 C   0  0  0  0  0  0  0  0  0  0  0  0
    0.9866   -4.5241   36.0434 C   0  0  0  0  0  0  0  0  0  0  0  0
    0.5325   -5.3710   35.0313 N   0  0  0  0  0  0  0  0  0  0  0  0
   -0.6807   -6.3243   34.9905 C   0  0  0  0  0  0  0  0  0  0  0  0
   -1.4480   -6.6097   35.8242 O   0  0  0  0  0  0  0  0  0  0  0  0
   -0.8699   -7.0043   33.6646 C   0  0  0  0  0  0  0  0  0  0  0  0
   -1.5567   -8.2304   33.7405 C   0  0  0  0  0  0  0  0  0  0  0  0
   -1.9035   -8.8797   32.5775 C   0  0  0  0  0  0  0  0  0  0  0  0
   -1.5876   -8.4254   31.3555 N   0  0  0  0  0  0  0  0  0  0  0  0
   -0.8788   -7.2715   31.3002 C   0  0  0  0  0  0  0  0  0  0  0  0
   -0.5498   -6.8257   29.6683 Cl  0  0  0  0  0  0  0  0  0  0  0  0
   -0.5258   -6.4978   32.4042 C   0  0  0  0  0  0  0  0  0  0  0  0
    0.1841   -4.9443   32.1564 Cl  0  0  0  0  0  0  0  0  0  0  0  0
  1  2  1  0
  2  3  1  0
  3  4  2  0
  4  5  1  0
  5  6  1  0
  5  7  2  0
  7  8  1  0
  7  9  1  0
  9 10  2  0
 10 11  1  0
 11 12  1  0
 12 13  2  0
 12 14  1  0
 14 15  2  0
 15 16  1  0
 16 17  2  0
 17 18  1  0
 18 19  1  0
 18 20  2  0
 20 21  1  0
 10  3  1  0
 20 14  1  0
M  END
>  <ref_mols>  (389) 
7gov-a

>  <gnina_score>  (389) 
5.266

>  <smina_score_min>  (389) 
-5.753

>  <ref_pdb>  (389) 
7gov-a

>  <inspiration_score>  (389) 
None

>  <inchikey>  (389) 
HZULVFXVELPXDN-UHFFFAOYSA-N

>  <tags>  (389) 
BulkDock Fragalysis export,openbind_d68ev3c_c2_elabs_scored,openbind_d68ev3c_c2_elabs_scored_4.5plus,openbind_d68ev3c_c2_elabs,openbind_d68ev3c_c2_elabs_scored_5plus,syndirella_product,openbind_d68ev3c_c2_elabs_scored_top80percent,syndirella_placed

>  <smiles>  (389) 
CCc1cc(Br)c(F)cc1NC(=O)c1ccnc(Cl)c1Cl

>  <subsites>  (389) 
None

>  <rmsd(smina/fragmenstein)>  (389) 
1.28

>  <alias>  (389) 
None

>  <energy_score>  (389) 
-47.353637

>  <HIPPO Pose ID>  (389) 
65439

>  <distance_score>  (389) 
0.728406

>  <HIPPO Compound ID>  (389) 
102642

>  <gnina_score_min>  (389) 
5.244

>  <name>  (389) 
P65439

>  <exports>  (389) 
['/opt/xchem-fragalysis-2/maxwin/BulkDock/OUTPUTS/openbind_d68ev3c_c2_elabs_1LOTQJ3.sdf', '/opt/xchem-fragalysis-2/maxwin/BulkDock/OUTPUTS/openbind_d68ev3c_c2_elabs_1LSYEHW.sdf', '/opt/xchem-fragalysis-2/maxwin/BulkDock/OUTPUTS/openbind_d68ev3c_c2_elabs_1LSYI5W.sdf']

$$$$
P65441
     RDKit          3D

 21 22  0  0  0  0  0  0  0  0999 V2000
    3.1758   -3.6281   35.0023 C   0  0  0  0  0  0  0  0  0  0  0  0
    2.3562   -3.5239   36.2672 C   0  0  0  0  0  0  0  0  0  0  0  0
    2.7557   -2.7079   37.3457 C   0  0  0  0  0  0  0  0  0  0  0  0
    3.9626   -1.9310   37.3105 C   0  0  0  0  0  0  0  0  0  0  0  0
    4.9330   -1.2935   37.2966 N   0  0  0  0  0  0  0  0  0  0  0  0
    1.9851   -2.6517   38.5147 C   0  0  0  0  0  0  0  0  0  0  0  0
    0.8266   -3.4048   38.6159 C   0  0  0  0  0  0  0  0  0  0  0  0
    0.0998   -3.3548   39.7385 F   0  0  0  0  0  0  0  0  0  0  0  0
    0.4122   -4.2159   37.5771 C   0  0  0  0  0  0  0  0  0  0  0  0
    1.1812   -4.2891   36.4161 C   0  0  0  0  0  0  0  0  0  0  0  0
    0.7781   -5.1193   35.3806 N   0  0  0  0  0  0  0  0  0  0  0  0
   -0.4320   -6.0640   35.2694 C   0  0  0  0  0  0  0  0  0  0  0  0
   -1.2402   -6.3534   36.0585 O   0  0  0  0  0  0  0  0  0  0  0  0
   -0.5859   -6.5860   33.8891 C   0  0  0  0  0  0  0  0  0  0  0  0
   -1.2939   -7.7625   33.7386 C   0  0  0  0  0  0  0  0  0  0  0  0
   -1.5684   -8.1450   32.4520 C   0  0  0  0  0  0  0  0  0  0  0  0
   -2.5193   -9.5049   32.1818 Cl  0  0  0  0  0  0  0  0  0  0  0  0
   -1.1966   -7.5074   31.3281 N   0  0  0  0  0  0  0  0  0  0  0  0
   -0.4652   -6.3964   31.5134 C   0  0  0  0  0  0  0  0  0  0  0  0
    0.1171   -5.4104   30.0062 Br  0  0  0  0  0  0  0  0  0  0  0  0
   -0.1670   -5.8802   32.7602 C   0  0  0  0  0  0  0  0  0  0  0  0
  1  2  1  0
  2  3  2  0
  3  4  1  0
  4  5  3  0
  3  6  1  0
  6  7  2  0
  7  8  1  0
  7  9  1  0
  9 10  2  0
 10 11  1  0
 11 12  1  0
 12 13  2  0
 12 14  1  0
 14 15  2  0
 15 16  1  0
 16 17  1  0
 16 18  2  0
 18 19  1  0
 19 20  1  0
 19 21  2  0
 10  2  1  0
 21 14  1  0
M  END
>  <ref_mols>  (390) 
7gov-a

>  <gnina_score>  (390) 
5.002

>  <smina_score_min>  (390) 
-5.079

>  <ref_pdb>  (390) 
7gov-a

>  <inspiration_score>  (390) 
None

>  <inchikey>  (390) 
FNTHEBBWYUBPCH-UHFFFAOYSA-N

>  <tags>  (390) 
BulkDock Fragalysis export,openbind_d68ev3c_c2_elabs_scored,openbind_d68ev3c_c2_elabs_scored_4.5plus,openbind_d68ev3c_c2_elabs,openbind_d68ev3c_c2_elabs_scored_5plus,syndirella_product,openbind_d68ev3c_c2_elabs_scored_top80percent,syndirella_placed

>  <smiles>  (390) 
Cc1c(C#N)cc(F)cc1NC(=O)c1cc(Cl)nc(Br)c1

>  <subsites>  (390) 
None

>  <rmsd(smina/fragmenstein)>  (390) 
1.222

>  <alias>  (390) 
None

>  <energy_score>  (390) 
-14.307535

>  <HIPPO Pose ID>  (390) 
65441

>  <distance_score>  (390) 
0.964454

>  <HIPPO Compound ID>  (390) 
102647

>  <gnina_score_min>  (390) 
5.021

>  <name>  (390) 
P65441

>  <exports>  (390) 
['/opt/xchem-fragalysis-2/maxwin/BulkDock/OUTPUTS/openbind_d68ev3c_c2_elabs_1LOTQJ3.sdf', '/opt/xchem-fragalysis-2/maxwin/BulkDock/OUTPUTS/openbind_d68ev3c_c2_elabs_1LSYEHW.sdf', '/opt/xchem-fragalysis-2/maxwin/BulkDock/OUTPUTS/openbind_d68ev3c_c2_elabs_1LSYI5W.sdf']

$$$$
P65442
     RDKit          3D

 21 22  0  0  0  0  0  0  0  0999 V2000
    2.7007   -4.5667   33.7833 O   0  0  0  0  0  0  0  0  0  0  0  0
    3.0190   -3.9200   34.7736 C   0  0  0  0  0  0  0  0  0  0  0  0
    2.1559   -3.8130   35.9720 C   0  0  0  0  0  0  0  0  0  0  0  0
    2.6149   -3.0036   37.0205 C   0  0  0  0  0  0  0  0  0  0  0  0
    1.8756   -2.9188   38.1992 C   0  0  0  0  0  0  0  0  0  0  0  0
    2.5232   -1.8611   39.6269 Br  0  0  0  0  0  0  0  0  0  0  0  0
    0.6792   -3.6190   38.3220 C   0  0  0  0  0  0  0  0  0  0  0  0
   -0.0409   -3.5498   39.4512 F   0  0  0  0  0  0  0  0  0  0  0  0
    0.2044   -4.4034   37.2747 C   0  0  0  0  0  0  0  0  0  0  0  0
    0.9415   -4.5116   36.0917 C   0  0  0  0  0  0  0  0  0  0  0  0
    0.4525   -5.2808   35.0358 N   0  0  0  0  0  0  0  0  0  0  0  0
   -0.7303   -6.2702   34.9798 C   0  0  0  0  0  0  0  0  0  0  0  0
   -1.5304   -6.5407   35.7874 O   0  0  0  0  0  0  0  0  0  0  0  0
   -0.8807   -6.9648   33.6603 C   0  0  0  0  0  0  0  0  0  0  0  0
   -1.5063   -8.2227   33.7407 C   0  0  0  0  0  0  0  0  0  0  0  0
   -1.8292   -8.8863   32.5789 C   0  0  0  0  0  0  0  0  0  0  0  0
   -1.5331   -8.4215   31.3556 N   0  0  0  0  0  0  0  0  0  0  0  0
   -0.8765   -7.2351   31.2987 C   0  0  0  0  0  0  0  0  0  0  0  0
   -0.5471   -6.7883   29.6672 Cl  0  0  0  0  0  0  0  0  0  0  0  0
   -0.5776   -6.4354   32.4000 C   0  0  0  0  0  0  0  0  0  0  0  0
   -0.0364   -4.8147   32.1529 Cl  0  0  0  0  0  0  0  0  0  0  0  0
  1  2  2  0
  2  3  1  0
  3  4  2  0
  4  5  1  0
  5  6  1  0
  5  7  2  0
  7  8  1  0
  7  9  1  0
  9 10  2  0
 10 11  1  0
 11 12  1  0
 12 13  2  0
 12 14  1  0
 14 15  2  0
 15 16  1  0
 16 17  2  0
 17 18  1  0
 18 19  1  0
 18 20  2  0
 20 21  1  0
 10  3  1  0
 20 14  1  0
M  END
>  <ref_mols>  (391) 
7gov-a

>  <gnina_score>  (391) 
5.178

>  <smina_score_min>  (391) 
-6.196

>  <ref_pdb>  (391) 
7gov-a

>  <inspiration_score>  (391) 
None

>  <inchikey>  (391) 
MCGWYTIMIWAQTH-UHFFFAOYSA-N

>  <tags>  (391) 
BulkDock Fragalysis export,openbind_d68ev3c_c2_elabs_scored,openbind_d68ev3c_c2_elabs_scored_4.5plus,openbind_d68ev3c_c2_elabs,openbind_d68ev3c_c2_elabs_scored_5plus,syndirella_product,openbind_d68ev3c_c2_elabs_scored_top80percent,syndirella_placed

>  <smiles>  (391) 
O=Cc1cc(Br)c(F)cc1NC(=O)c1ccnc(Cl)c1Cl

>  <subsites>  (391) 
None

>  <rmsd(smina/fragmenstein)>  (391) 
1.195

>  <alias>  (391) 
None

>  <energy_score>  (391) 
-28.669091

>  <HIPPO Pose ID>  (391) 
65442

>  <distance_score>  (391) 
0.753088

>  <HIPPO Compound ID>  (391) 
102648

>  <gnina_score_min>  (391) 
5.18

>  <name>  (391) 
P65442

>  <exports>  (391) 
['/opt/xchem-fragalysis-2/maxwin/BulkDock/OUTPUTS/openbind_d68ev3c_c2_elabs_1LOTQJ3.sdf', '/opt/xchem-fragalysis-2/maxwin/BulkDock/OUTPUTS/openbind_d68ev3c_c2_elabs_1LSYEHW.sdf', '/opt/xchem-fragalysis-2/maxwin/BulkDock/OUTPUTS/openbind_d68ev3c_c2_elabs_1LSYI5W.sdf']

$$$$
P65443
     RDKit          3D

 21 22  0  0  0  0  0  0  0  0999 V2000
   -1.5518   -6.6049   35.8220 O   0  0  0  0  0  0  0  0  0  0  0  0
   -0.7017   -6.3794   35.0529 C   0  0  0  0  0  0  0  0  0  0  0  0
    0.5396   -5.4699   35.1719 N   0  0  0  0  0  0  0  0  0  0  0  0
    0.9336   -4.6014   36.1921 C   0  0  0  0  0  0  0  0  0  0  0  0
    0.1221   -4.4432   37.3199 C   0  0  0  0  0  0  0  0  0  0  0  0
    0.5119   -3.5925   38.3490 C   0  0  0  0  0  0  0  0  0  0  0  0
   -0.2657   -3.5007   39.4376 F   0  0  0  0  0  0  0  0  0  0  0  0
    1.6885   -2.8621   38.2572 C   0  0  0  0  0  0  0  0  0  0  0  0
    2.2268   -1.7142   39.6594 Br  0  0  0  0  0  0  0  0  0  0  0  0
    2.4935   -2.9921   37.1288 C   0  0  0  0  0  0  0  0  0  0  0  0
    2.1358   -3.8751   36.0903 C   0  0  0  0  0  0  0  0  0  0  0  0
    3.1270   -4.0885   34.9783 C   0  0  0  0  0  0  0  0  0  0  0  0
    3.8333   -5.3004   35.2040 O   0  0  0  0  0  0  0  0  0  0  0  0
   -0.8407   -7.0479   33.7186 C   0  0  0  0  0  0  0  0  0  0  0  0
   -1.5487   -8.2632   33.7535 C   0  0  0  0  0  0  0  0  0  0  0  0
   -1.8957   -8.8714   32.5681 C   0  0  0  0  0  0  0  0  0  0  0  0
   -1.5645   -8.3838   31.3622 N   0  0  0  0  0  0  0  0  0  0  0  0
   -0.8322   -7.2414   31.3487 C   0  0  0  0  0  0  0  0  0  0  0  0
   -0.4943   -6.7403   29.7353 Cl  0  0  0  0  0  0  0  0  0  0  0  0
   -0.4695   -6.5106   32.4791 C   0  0  0  0  0  0  0  0  0  0  0  0
    0.2816   -4.9662   32.2940 Cl  0  0  0  0  0  0  0  0  0  0  0  0
  1  2  2  0
  2  3  1  0
  3  4  1  0
  4  5  2  0
  5  6  1  0
  6  7  1  0
  6  8  2  0
  8  9  1  0
  8 10  1  0
 10 11  2  0
 11 12  1  0
 12 13  1  0
  2 14  1  0
 14 15  2  0
 15 16  1  0
 16 17  2  0
 17 18  1  0
 18 19  1  0
 18 20  2  0
 20 21  1  0
 11  4  1  0
 20 14  1  0
M  END
>  <ref_mols>  (392) 
7gov-a

>  <gnina_score>  (392) 
5.11

>  <smina_score_min>  (392) 
-6.3

>  <ref_pdb>  (392) 
7gov-a

>  <inspiration_score>  (392) 
None

>  <inchikey>  (392) 
LEKALZKOZMKVJF-UHFFFAOYSA-N

>  <tags>  (392) 
BulkDock Fragalysis export,openbind_d68ev3c_c2_elabs_scored,openbind_d68ev3c_c2_elabs_scored_4.5plus,openbind_d68ev3c_c2_elabs,openbind_d68ev3c_c2_elabs_scored_5plus,syndirella_product,openbind_d68ev3c_c2_elabs_scored_top80percent,syndirella_placed

>  <smiles>  (392) 
O=C(Nc1cc(F)c(Br)cc1CO)c1ccnc(Cl)c1Cl

>  <subsites>  (392) 
None

>  <rmsd(smina/fragmenstein)>  (392) 
1.056

>  <alias>  (392) 
None

>  <energy_score>  (392) 
-7.99908

>  <HIPPO Pose ID>  (392) 
65443

>  <distance_score>  (392) 
0.773566

>  <HIPPO Compound ID>  (392) 
102649

>  <gnina_score_min>  (392) 
5.175

>  <name>  (392) 
P65443

>  <exports>  (392) 
['/opt/xchem-fragalysis-2/maxwin/BulkDock/OUTPUTS/openbind_d68ev3c_c2_elabs_1LOTQJ3.sdf', '/opt/xchem-fragalysis-2/maxwin/BulkDock/OUTPUTS/openbind_d68ev3c_c2_elabs_1LSYEHW.sdf', '/opt/xchem-fragalysis-2/maxwin/BulkDock/OUTPUTS/openbind_d68ev3c_c2_elabs_1LSYI5W.sdf']

$$$$
P65444
     RDKit          3D

 21 22  0  0  0  0  0  0  0  0999 V2000
    2.2787   -3.4448   33.4513 O   0  0  0  0  0  0  0  0  0  0  0  0
    2.7773   -3.0110   34.4854 C   0  0  0  0  0  0  0  0  0  0  0  0
    2.1563   -3.1960   35.8169 C   0  0  0  0  0  0  0  0  0  0  0  0
    2.6110   -2.4227   36.8894 C   0  0  0  0  0  0  0  0  0  0  0  0
    2.0560   -2.6103   38.1592 C   0  0  0  0  0  0  0  0  0  0  0  0
    2.6058   -1.6333   39.4672 Cl  0  0  0  0  0  0  0  0  0  0  0  0
    1.0640   -3.5683   38.3583 C   0  0  0  0  0  0  0  0  0  0  0  0
    0.4892   -3.7282   39.5598 F   0  0  0  0  0  0  0  0  0  0  0  0
    0.6421   -4.3679   37.3056 C   0  0  0  0  0  0  0  0  0  0  0  0
    1.1866   -4.1768   36.0332 C   0  0  0  0  0  0  0  0  0  0  0  0
    0.7609   -4.9859   34.9978 N   0  0  0  0  0  0  0  0  0  0  0  0
    0.2959   -6.4447   35.0015 C   0  0  0  0  0  0  0  0  0  0  0  0
    0.2685   -7.2247   35.8631 O   0  0  0  0  0  0  0  0  0  0  0  0
   -0.2946   -6.8531   33.6987 C   0  0  0  0  0  0  0  0  0  0  0  0
    0.2677   -6.4645   32.4759 C   0  0  0  0  0  0  0  0  0  0  0  0
   -0.2957   -6.9397   31.3021 C   0  0  0  0  0  0  0  0  0  0  0  0
   -1.3551   -7.7681   31.2683 N   0  0  0  0  0  0  0  0  0  0  0  0
   -1.8503   -8.1301   32.4726 C   0  0  0  0  0  0  0  0  0  0  0  0
   -3.1566   -9.2033   32.3347 Cl  0  0  0  0  0  0  0  0  0  0  0  0
   -1.4045   -7.6947   33.7045 C   0  0  0  0  0  0  0  0  0  0  0  0
   -2.2840   -8.1270   35.1299 Cl  0  0  0  0  0  0  0  0  0  0  0  0
  1  2  2  0
  2  3  1  0
  3  4  2  0
  4  5  1  0
  5  6  1  0
  5  7  2  0
  7  8  1  0
  7  9  1  0
  9 10  2  0
 10 11  1  0
 11 12  1  0
 12 13  2  0
 12 14  1  0
 14 15  2  0
 15 16  1  0
 16 17  2  0
 17 18  1  0
 18 19  1  0
 18 20  2  0
 20 21  1  0
 10  3  1  0
 20 14  1  0
M  END
>  <ref_mols>  (393) 
7gov-a

>  <gnina_score>  (393) 
5.231

>  <smina_score_min>  (393) 
-5.368

>  <ref_pdb>  (393) 
7gov-a

>  <inspiration_score>  (393) 
None

>  <inchikey>  (393) 
RSXIHDMOUNCFIL-UHFFFAOYSA-N

>  <tags>  (393) 
BulkDock Fragalysis export,openbind_d68ev3c_c2_elabs_scored,openbind_d68ev3c_c2_elabs_scored_4.5plus,openbind_d68ev3c_c2_elabs,openbind_d68ev3c_c2_elabs_scored_5plus,syndirella_product,openbind_d68ev3c_c2_elabs_scored_top80percent,syndirella_placed

>  <smiles>  (393) 
O=Cc1cc(Cl)c(F)cc1NC(=O)c1ccnc(Cl)c1Cl

>  <subsites>  (393) 
None

>  <rmsd(smina/fragmenstein)>  (393) 
2.178

>  <alias>  (393) 
None

>  <energy_score>  (393) 
-18.080261

>  <HIPPO Pose ID>  (393) 
65444

>  <distance_score>  (393) 
0.656082

>  <HIPPO Compound ID>  (393) 
102650

>  <gnina_score_min>  (393) 
5.157

>  <name>  (393) 
P65444

>  <exports>  (393) 
['/opt/xchem-fragalysis-2/maxwin/BulkDock/OUTPUTS/openbind_d68ev3c_c2_elabs_1LOTQJ3.sdf', '/opt/xchem-fragalysis-2/maxwin/BulkDock/OUTPUTS/openbind_d68ev3c_c2_elabs_1LSYEHW.sdf', '/opt/xchem-fragalysis-2/maxwin/BulkDock/OUTPUTS/openbind_d68ev3c_c2_elabs_1LSYI5W.sdf']

$$$$
P65445
     RDKit          3D

 21 22  0  0  0  0  0  0  0  0999 V2000
   -1.5076   -6.6079   35.8091 O   0  0  0  0  0  0  0  0  0  0  0  0
   -0.7136   -6.3343   34.9962 C   0  0  0  0  0  0  0  0  0  0  0  0
    0.5148   -5.4004   35.0707 N   0  0  0  0  0  0  0  0  0  0  0  0
    0.9557   -4.5620   36.0960 C   0  0  0  0  0  0  0  0  0  0  0  0
    0.1723   -4.4078   37.2452 C   0  0  0  0  0  0  0  0  0  0  0  0
    0.5846   -3.5543   38.2610 C   0  0  0  0  0  0  0  0  0  0  0  0
   -0.1560   -3.4428   39.3715 F   0  0  0  0  0  0  0  0  0  0  0  0
    1.7527   -2.8185   38.1462 C   0  0  0  0  0  0  0  0  0  0  0  0
    2.5371   -2.9628   37.0044 C   0  0  0  0  0  0  0  0  0  0  0  0
    2.1613   -3.8490   35.9736 C   0  0  0  0  0  0  0  0  0  0  0  0
    3.1412   -4.0654   34.8492 C   0  0  0  0  0  0  0  0  0  0  0  0
    2.5912   -4.6140   33.7291 F   0  0  0  0  0  0  0  0  0  0  0  0
    3.7320   -2.9086   34.4307 F   0  0  0  0  0  0  0  0  0  0  0  0
   -0.8854   -7.0043   33.6678 C   0  0  0  0  0  0  0  0  0  0  0  0
   -1.5324   -8.2517   33.7300 C   0  0  0  0  0  0  0  0  0  0  0  0
   -1.8598   -8.8947   32.5584 C   0  0  0  0  0  0  0  0  0  0  0  0
   -1.5509   -8.4180   31.3427 N   0  0  0  0  0  0  0  0  0  0  0  0
   -0.8800   -7.2397   31.3031 C   0  0  0  0  0  0  0  0  0  0  0  0
   -0.5368   -6.7752   29.6800 Cl  0  0  0  0  0  0  0  0  0  0  0  0
   -0.5698   -6.4621   32.4163 C   0  0  0  0  0  0  0  0  0  0  0  0
    0.0184   -4.8546   32.1976 Cl  0  0  0  0  0  0  0  0  0  0  0  0
  1  2  2  0
  2  3  1  0
  3  4  1  0
  4  5  2  0
  5  6  1  0
  6  7  1  0
  6  8  2  0
  8  9  1  0
  9 10  2  0
 10 11  1  0
 11 12  1  0
 11 13  1  0
  2 14  1  0
 14 15  2  0
 15 16  1  0
 16 17  2  0
 17 18  1  0
 18 19  1  0
 18 20  2  0
 20 21  1  0
 10  4  1  0
 20 14  1  0
M  END
>  <ref_mols>  (394) 
7gov-a

>  <gnina_score>  (394) 
5.074

>  <smina_score_min>  (394) 
-5.894

>  <ref_pdb>  (394) 
7gov-a

>  <inspiration_score>  (394) 
None

>  <inchikey>  (394) 
JXAWJRCIFCYZFW-UHFFFAOYSA-N

>  <tags>  (394) 
BulkDock Fragalysis export,openbind_d68ev3c_c2_elabs_scored,openbind_d68ev3c_c2_elabs_scored_4.5plus,openbind_d68ev3c_c2_elabs,openbind_d68ev3c_c2_elabs_scored_5plus,syndirella_product,openbind_d68ev3c_c2_elabs_scored_top80percent,syndirella_placed

>  <smiles>  (394) 
O=C(Nc1cc(F)ccc1C(F)F)c1ccnc(Cl)c1Cl

>  <subsites>  (394) 
None

>  <rmsd(smina/fragmenstein)>  (394) 
1.115

>  <alias>  (394) 
None

>  <energy_score>  (394) 
-18.91294

>  <HIPPO Pose ID>  (394) 
65445

>  <distance_score>  (394) 
0.755063

>  <HIPPO Compound ID>  (394) 
102651

>  <gnina_score_min>  (394) 
5.054

>  <name>  (394) 
P65445

>  <exports>  (394) 
['/opt/xchem-fragalysis-2/maxwin/BulkDock/OUTPUTS/openbind_d68ev3c_c2_elabs_1LOTQJ3.sdf', '/opt/xchem-fragalysis-2/maxwin/BulkDock/OUTPUTS/openbind_d68ev3c_c2_elabs_1LSYEHW.sdf', '/opt/xchem-fragalysis-2/maxwin/BulkDock/OUTPUTS/openbind_d68ev3c_c2_elabs_1LSYI5W.sdf']

$$$$
P65446
     RDKit          3D

 21 22  0  0  0  0  0  0  0  0999 V2000
    3.5637   -3.9061   33.6637 C   0  0  0  0  0  0  0  0  0  0  0  0
    2.9194   -3.8488   34.6755 C   0  0  0  0  0  0  0  0  0  0  0  0
    2.1536   -3.7808   35.8878 C   0  0  0  0  0  0  0  0  0  0  0  0
    2.5922   -2.9221   36.9016 C   0  0  0  0  0  0  0  0  0  0  0  0
    1.8843   -2.8489   38.0955 C   0  0  0  0  0  0  0  0  0  0  0  0
    2.3167   -2.0320   39.0668 F   0  0  0  0  0  0  0  0  0  0  0  0
    0.7362   -3.6074   38.2807 C   0  0  0  0  0  0  0  0  0  0  0  0
    0.0568   -3.5292   39.4338 F   0  0  0  0  0  0  0  0  0  0  0  0
    0.2771   -4.4524   37.2761 C   0  0  0  0  0  0  0  0  0  0  0  0
    0.9905   -4.5542   36.0774 C   0  0  0  0  0  0  0  0  0  0  0  0
    0.5434   -5.4028   35.0625 N   0  0  0  0  0  0  0  0  0  0  0  0
   -0.6729   -6.3483   35.0107 C   0  0  0  0  0  0  0  0  0  0  0  0
   -1.4511   -6.6265   35.8359 O   0  0  0  0  0  0  0  0  0  0  0  0
   -0.8584   -7.0167   33.6783 C   0  0  0  0  0  0  0  0  0  0  0  0
   -1.5606   -8.2349   33.7393 C   0  0  0  0  0  0  0  0  0  0  0  0
   -1.9107   -8.8682   32.5684 C   0  0  0  0  0  0  0  0  0  0  0  0
   -1.5867   -8.4037   31.3522 N   0  0  0  0  0  0  0  0  0  0  0  0
   -0.8627   -7.2576   31.3113 C   0  0  0  0  0  0  0  0  0  0  0  0
   -0.5288   -6.7949   29.6853 Cl  0  0  0  0  0  0  0  0  0  0  0  0
   -0.5000   -6.5017   32.4246 C   0  0  0  0  0  0  0  0  0  0  0  0
    0.2449   -4.9597   32.1977 Cl  0  0  0  0  0  0  0  0  0  0  0  0
  1  2  3  0
  2  3  1  0
  3  4  2  0
  4  5  1  0
  5  6  1  0
  5  7  2  0
  7  8  1  0
  7  9  1  0
  9 10  2  0
 10 11  1  0
 11 12  1  0
 12 13  2  0
 12 14  1  0
 14 15  2  0
 15 16  1  0
 16 17  2  0
 17 18  1  0
 18 19  1  0
 18 20  2  0
 20 21  1  0
 10  3  1  0
 20 14  1  0
M  END
>  <ref_mols>  (395) 
7gov-a

>  <gnina_score>  (395) 
5.252

>  <smina_score_min>  (395) 
-5.949

>  <ref_pdb>  (395) 
7gov-a

>  <inspiration_score>  (395) 
None

>  <inchikey>  (395) 
RLEPFANBXLXVGA-UHFFFAOYSA-N

>  <tags>  (395) 
BulkDock Fragalysis export,openbind_d68ev3c_c2_elabs_scored,openbind_d68ev3c_c2_elabs_scored_4.5plus,openbind_d68ev3c_c2_elabs,openbind_d68ev3c_c2_elabs_scored_5plus,syndirella_product,openbind_d68ev3c_c2_elabs_scored_top80percent,syndirella_placed

>  <smiles>  (395) 
C#Cc1cc(F)c(F)cc1NC(=O)c1ccnc(Cl)c1Cl

>  <subsites>  (395) 
None

>  <rmsd(smina/fragmenstein)>  (395) 
1.146

>  <alias>  (395) 
None

>  <energy_score>  (395) 
-14.966246

>  <HIPPO Pose ID>  (395) 
65446

>  <distance_score>  (395) 
0.728502

>  <HIPPO Compound ID>  (395) 
102652

>  <gnina_score_min>  (395) 
5.212

>  <name>  (395) 
P65446

>  <exports>  (395) 
['/opt/xchem-fragalysis-2/maxwin/BulkDock/OUTPUTS/openbind_d68ev3c_c2_elabs_1LOTQJ3.sdf', '/opt/xchem-fragalysis-2/maxwin/BulkDock/OUTPUTS/openbind_d68ev3c_c2_elabs_1LSYEHW.sdf', '/opt/xchem-fragalysis-2/maxwin/BulkDock/OUTPUTS/openbind_d68ev3c_c2_elabs_1LSYI5W.sdf']

$$$$
P65448
     RDKit          3D

 21 22  0  0  0  0  0  0  0  0999 V2000
    3.9754   -3.1552   34.3638 C   0  0  0  0  0  0  0  0  0  0  0  0
    2.5255   -3.5460   34.4813 C   0  0  0  0  0  0  0  0  0  0  0  0
    1.8572   -3.8351   33.4874 O   0  0  0  0  0  0  0  0  0  0  0  0
    1.8948   -3.5630   35.8352 C   0  0  0  0  0  0  0  0  0  0  0  0
    2.3933   -2.7503   36.8638 C   0  0  0  0  0  0  0  0  0  0  0  0
    1.8308   -2.8158   38.1409 C   0  0  0  0  0  0  0  0  0  0  0  0
    0.7862   -3.6982   38.3898 C   0  0  0  0  0  0  0  0  0  0  0  0
    0.2430   -3.7466   39.6130 F   0  0  0  0  0  0  0  0  0  0  0  0
    0.2871   -4.5187   37.3878 C   0  0  0  0  0  0  0  0  0  0  0  0
    0.8298   -4.4419   36.1039 C   0  0  0  0  0  0  0  0  0  0  0  0
    0.2946   -5.2340   35.0954 N   0  0  0  0  0  0  0  0  0  0  0  0
   -0.3677   -6.6254   35.1592 C   0  0  0  0  0  0  0  0  0  0  0  0
   -0.6374   -7.2916   36.0762 O   0  0  0  0  0  0  0  0  0  0  0  0
   -0.7857   -7.1467   33.7998 C   0  0  0  0  0  0  0  0  0  0  0  0
   -0.1756   -6.7035   32.6171 C   0  0  0  0  0  0  0  0  0  0  0  0
   -0.6759   -7.1445   31.4044 C   0  0  0  0  0  0  0  0  0  0  0  0
   -0.1936   -6.4066   29.9375 Cl  0  0  0  0  0  0  0  0  0  0  0  0
   -1.6576   -8.0562   31.2647 N   0  0  0  0  0  0  0  0  0  0  0  0
   -2.1760   -8.5309   32.4136 C   0  0  0  0  0  0  0  0  0  0  0  0
   -1.8210   -8.0897   33.6807 C   0  0  0  0  0  0  0  0  0  0  0  0
   -2.9457   -8.7275   35.0633 Br  0  0  0  0  0  0  0  0  0  0  0  0
  1  2  1  0
  2  3  2  0
  2  4  1  0
  4  5  2  0
  5  6  1  0
  6  7  2  0
  7  8  1  0
  7  9  1  0
  9 10  2  0
 10 11  1  0
 11 12  1  0
 12 13  2  0
 12 14  1  0
 14 15  2  0
 15 16  1  0
 16 17  1  0
 16 18  2  0
 18 19  1  0
 19 20  2  0
 20 21  1  0
 10  4  1  0
 20 14  1  0
M  END
>  <ref_mols>  (396) 
7gov-a

>  <gnina_score>  (396) 
5.256

>  <smina_score_min>  (396) 
-5.745

>  <ref_pdb>  (396) 
7gov-a

>  <inspiration_score>  (396) 
None

>  <inchikey>  (396) 
VUBXHMHMLJCLFK-UHFFFAOYSA-N

>  <tags>  (396) 
BulkDock Fragalysis export,openbind_d68ev3c_c2_elabs_scored,openbind_d68ev3c_c2_elabs_scored_4.5plus,openbind_d68ev3c_c2_elabs,openbind_d68ev3c_c2_elabs_scored_5plus,syndirella_product,openbind_d68ev3c_c2_elabs_scored_top80percent,syndirella_placed

>  <smiles>  (396) 
CC(=O)c1ccc(F)cc1NC(=O)c1cc(Cl)ncc1Br

>  <subsites>  (396) 
None

>  <rmsd(smina/fragmenstein)>  (396) 
0.927

>  <alias>  (396) 
None

>  <energy_score>  (396) 
-8.275804

>  <HIPPO Pose ID>  (396) 
65448

>  <distance_score>  (396) 
0.592868

>  <HIPPO Compound ID>  (396) 
102654

>  <gnina_score_min>  (396) 
5.204

>  <name>  (396) 
P65448

>  <exports>  (396) 
['/opt/xchem-fragalysis-2/maxwin/BulkDock/OUTPUTS/openbind_d68ev3c_c2_elabs_1LOTQJ3.sdf', '/opt/xchem-fragalysis-2/maxwin/BulkDock/OUTPUTS/openbind_d68ev3c_c2_elabs_1LSYEHW.sdf', '/opt/xchem-fragalysis-2/maxwin/BulkDock/OUTPUTS/openbind_d68ev3c_c2_elabs_1LSYI5W.sdf']

$$$$
P65449
     RDKit          3D

 21 22  0  0  0  0  0  0  0  0999 V2000
    2.3484   -1.7103   39.6799 C   0  0  0  0  0  0  0  0  0  0  0  0
    1.9809   -2.5845   38.5134 C   0  0  0  0  0  0  0  0  0  0  0  0
    0.8454   -3.3899   38.6126 C   0  0  0  0  0  0  0  0  0  0  0  0
    0.1025   -3.3761   39.7288 F   0  0  0  0  0  0  0  0  0  0  0  0
    0.4477   -4.2179   37.5801 C   0  0  0  0  0  0  0  0  0  0  0  0
    1.2075   -4.2771   36.4169 C   0  0  0  0  0  0  0  0  0  0  0  0
    0.8040   -5.1127   35.3830 N   0  0  0  0  0  0  0  0  0  0  0  0
   -0.3985   -6.0692   35.2811 C   0  0  0  0  0  0  0  0  0  0  0  0
   -1.1982   -6.3660   36.0765 O   0  0  0  0  0  0  0  0  0  0  0  0
   -0.5637   -6.5887   33.8997 C   0  0  0  0  0  0  0  0  0  0  0  0
   -1.2827   -7.7595   33.7508 C   0  0  0  0  0  0  0  0  0  0  0  0
   -1.5696   -8.1381   32.4654 C   0  0  0  0  0  0  0  0  0  0  0  0
   -2.5392   -9.4863   32.1986 Cl  0  0  0  0  0  0  0  0  0  0  0  0
   -1.1994   -7.5025   31.3398 N   0  0  0  0  0  0  0  0  0  0  0  0
   -0.4586   -6.3972   31.5225 C   0  0  0  0  0  0  0  0  0  0  0  0
    0.1184   -5.4121   30.0125 Br  0  0  0  0  0  0  0  0  0  0  0  0
   -0.1478   -5.8851   32.7682 C   0  0  0  0  0  0  0  0  0  0  0  0
    2.3642   -3.4841   36.2561 C   0  0  0  0  0  0  0  0  0  0  0  0
    3.1575   -3.5989   34.9751 C   0  0  0  0  0  0  0  0  0  0  0  0
    2.7364   -2.6320   37.3213 C   0  0  0  0  0  0  0  0  0  0  0  0
    4.2842   -1.5116   37.1823 Br  0  0  0  0  0  0  0  0  0  0  0  0
  1  2  1  0
  2  3  2  0
  3  4  1  0
  3  5  1  0
  5  6  2  0
  6  7  1  0
  7  8  1  0
  8  9  2  0
  8 10  1  0
 10 11  2  0
 11 12  1  0
 12 13  1  0
 12 14  2  0
 14 15  1  0
 15 16  1  0
 15 17  2  0
  6 18  1  0
 18 19  1  0
 18 20  2  0
 20 21  1  0
 20  2  1  0
 17 10  1  0
M  END
>  <ref_mols>  (397) 
7gov-a

>  <gnina_score>  (397) 
5.163

>  <smina_score_min>  (397) 
-5.342

>  <ref_pdb>  (397) 
7gov-a

>  <inspiration_score>  (397) 
None

>  <inchikey>  (397) 
BYBJNOMTXXOMQC-UHFFFAOYSA-N

>  <tags>  (397) 
BulkDock Fragalysis export,openbind_d68ev3c_c2_elabs_scored,openbind_d68ev3c_c2_elabs_scored_4.5plus,openbind_d68ev3c_c2_elabs,openbind_d68ev3c_c2_elabs_scored_5plus,syndirella_product,openbind_d68ev3c_c2_elabs_scored_top80percent,syndirella_placed

>  <smiles>  (397) 
Cc1c(F)cc(NC(=O)c2cc(Cl)nc(Br)c2)c(C)c1Br

>  <subsites>  (397) 
None

>  <rmsd(smina/fragmenstein)>  (397) 
1.247

>  <alias>  (397) 
None

>  <energy_score>  (397) 
-20.910454

>  <HIPPO Pose ID>  (397) 
65449

>  <distance_score>  (397) 
0.964969

>  <HIPPO Compound ID>  (397) 
102655

>  <gnina_score_min>  (397) 
5.138

>  <name>  (397) 
P65449

>  <exports>  (397) 
['/opt/xchem-fragalysis-2/maxwin/BulkDock/OUTPUTS/openbind_d68ev3c_c2_elabs_1LOTQJ3.sdf', '/opt/xchem-fragalysis-2/maxwin/BulkDock/OUTPUTS/openbind_d68ev3c_c2_elabs_1LSYEHW.sdf', '/opt/xchem-fragalysis-2/maxwin/BulkDock/OUTPUTS/openbind_d68ev3c_c2_elabs_1LSYI5W.sdf']

$$$$
P65452
     RDKit          3D

 21 22  0  0  0  0  0  0  0  0999 V2000
    5.0159   -1.8847   37.4992 C   0  0  0  0  0  0  0  0  0  0  0  0
    3.6667   -1.3487   37.0428 C   0  0  0  0  0  0  0  0  0  0  0  0
    2.5909   -2.4115   37.0699 C   0  0  0  0  0  0  0  0  0  0  0  0
    1.8668   -2.5696   38.2656 C   0  0  0  0  0  0  0  0  0  0  0  0
    0.8733   -3.5306   38.3678 C   0  0  0  0  0  0  0  0  0  0  0  0
    0.1897   -3.6565   39.5135 F   0  0  0  0  0  0  0  0  0  0  0  0
    0.5667   -4.3456   37.2947 C   0  0  0  0  0  0  0  0  0  0  0  0
    1.2725   -4.2060   36.0967 C   0  0  0  0  0  0  0  0  0  0  0  0
    0.9055   -5.0047   35.0176 N   0  0  0  0  0  0  0  0  0  0  0  0
    0.1441   -6.3366   34.9758 C   0  0  0  0  0  0  0  0  0  0  0  0
   -0.2322   -7.0202   35.8431 O   0  0  0  0  0  0  0  0  0  0  0  0
   -0.2628   -6.7700   33.5880 C   0  0  0  0  0  0  0  0  0  0  0  0
   -1.2705   -7.7439   33.6126 C   0  0  0  0  0  0  0  0  0  0  0  0
   -1.8040   -8.1812   32.4288 C   0  0  0  0  0  0  0  0  0  0  0  0
   -3.1239   -9.2281   32.4462 Cl  0  0  0  0  0  0  0  0  0  0  0  0
   -1.4248   -7.7839   31.2081 N   0  0  0  0  0  0  0  0  0  0  0  0
   -0.4234   -6.8802   31.1934 C   0  0  0  0  0  0  0  0  0  0  0  0
    0.1710   -6.3256   32.3319 C   0  0  0  0  0  0  0  0  0  0  0  0
    1.5057   -5.0314   31.9830 Br  0  0  0  0  0  0  0  0  0  0  0  0
    2.3099   -3.2603   35.9726 C   0  0  0  0  0  0  0  0  0  0  0  0
    3.1165   -3.2053   34.7022 C   0  0  0  0  0  0  0  0  0  0  0  0
  1  2  1  0
  2  3  1  0
  3  4  2  0
  4  5  1  0
  5  6  1  0
  5  7  2  0
  7  8  1  0
  8  9  1  0
  9 10  1  0
 10 11  2  0
 10 12  1  0
 12 13  2  0
 13 14  1  0
 14 15  1  0
 14 16  2  0
 16 17  1  0
 17 18  2  0
 18 19  1  0
  8 20  2  0
 20 21  1  0
 20  3  1  0
 18 12  1  0
M  END
>  <ref_mols>  (398) 
7gov-a

>  <gnina_score>  (398) 
5.123

>  <smina_score_min>  (398) 
-5.556

>  <ref_pdb>  (398) 
7gov-a

>  <inspiration_score>  (398) 
None

>  <inchikey>  (398) 
ZICFWHXYKMFBDO-UHFFFAOYSA-N

>  <tags>  (398) 
BulkDock Fragalysis export,openbind_d68ev3c_c2_elabs_scored,openbind_d68ev3c_c2_elabs_scored_4.5plus,openbind_d68ev3c_c2_elabs,openbind_d68ev3c_c2_elabs_scored_5plus,syndirella_product,openbind_d68ev3c_c2_elabs_scored_top80percent,syndirella_placed

>  <smiles>  (398) 
CCc1cc(F)cc(NC(=O)c2cc(Cl)ncc2Br)c1C

>  <subsites>  (398) 
None

>  <rmsd(smina/fragmenstein)>  (398) 
1.394

>  <alias>  (398) 
None

>  <energy_score>  (398) 
-19.054023

>  <HIPPO Pose ID>  (398) 
65452

>  <distance_score>  (398) 
0.68584

>  <HIPPO Compound ID>  (398) 
102660

>  <gnina_score_min>  (398) 
5.066

>  <name>  (398) 
P65452

>  <exports>  (398) 
['/opt/xchem-fragalysis-2/maxwin/BulkDock/OUTPUTS/openbind_d68ev3c_c2_elabs_1LOTQJ3.sdf', '/opt/xchem-fragalysis-2/maxwin/BulkDock/OUTPUTS/openbind_d68ev3c_c2_elabs_1LSYEHW.sdf', '/opt/xchem-fragalysis-2/maxwin/BulkDock/OUTPUTS/openbind_d68ev3c_c2_elabs_1LSYI5W.sdf']

$$$$
P65453
     RDKit          3D

 21 22  0  0  0  0  0  0  0  0999 V2000
    3.2713   -1.1701   39.0270 C   0  0  0  0  0  0  0  0  0  0  0  0
    2.1286   -1.9978   39.1894 O   0  0  0  0  0  0  0  0  0  0  0  0
    1.7685   -2.7749   38.1206 C   0  0  0  0  0  0  0  0  0  0  0  0
    2.3159   -2.6944   36.8364 C   0  0  0  0  0  0  0  0  0  0  0  0
    1.8594   -3.5326   35.8011 C   0  0  0  0  0  0  0  0  0  0  0  0
    2.5362   -3.4816   34.4584 C   0  0  0  0  0  0  0  0  0  0  0  0
    0.8489   -4.4665   36.0778 C   0  0  0  0  0  0  0  0  0  0  0  0
    0.3830   -5.3000   35.0678 N   0  0  0  0  0  0  0  0  0  0  0  0
   -0.3267   -6.6687   35.1449 C   0  0  0  0  0  0  0  0  0  0  0  0
   -0.5623   -7.3460   36.0631 O   0  0  0  0  0  0  0  0  0  0  0  0
   -0.7805   -7.1706   33.7945 C   0  0  0  0  0  0  0  0  0  0  0  0
   -0.1663   -6.7326   32.6126 C   0  0  0  0  0  0  0  0  0  0  0  0
   -0.6810   -7.1577   31.4015 C   0  0  0  0  0  0  0  0  0  0  0  0
   -0.1963   -6.4139   29.9387 Cl  0  0  0  0  0  0  0  0  0  0  0  0
   -1.6794   -8.0500   31.2643 N   0  0  0  0  0  0  0  0  0  0  0  0
   -2.1989   -8.5241   32.4142 C   0  0  0  0  0  0  0  0  0  0  0  0
   -1.8298   -8.0957   33.6810 C   0  0  0  0  0  0  0  0  0  0  0  0
   -2.9454   -8.7217   35.0732 Br  0  0  0  0  0  0  0  0  0  0  0  0
    0.3089   -4.5622   37.3585 C   0  0  0  0  0  0  0  0  0  0  0  0
    0.7602   -3.7103   38.3602 C   0  0  0  0  0  0  0  0  0  0  0  0
    0.1980   -3.7983   39.5761 F   0  0  0  0  0  0  0  0  0  0  0  0
  1  2  1  0
  2  3  1  0
  3  4  2  0
  4  5  1  0
  5  6  1  0
  5  7  2  0
  7  8  1  0
  8  9  1  0
  9 10  2  0
  9 11  1  0
 11 12  2  0
 12 13  1  0
 13 14  1  0
 13 15  2  0
 15 16  1  0
 16 17  2  0
 17 18  1  0
  7 19  1  0
 19 20  2  0
 20 21  1  0
 20  3  1  0
 17 11  1  0
M  END
>  <ref_mols>  (399) 
7gov-a

>  <gnina_score>  (399) 
5.203

>  <smina_score_min>  (399) 
-5.607

>  <ref_pdb>  (399) 
7gov-a

>  <inspiration_score>  (399) 
None

>  <inchikey>  (399) 
QPDCFAKDSWMBAN-UHFFFAOYSA-N

>  <tags>  (399) 
BulkDock Fragalysis export,openbind_d68ev3c_c2_elabs_scored,openbind_d68ev3c_c2_elabs_scored_4.5plus,openbind_d68ev3c_c2_elabs,openbind_d68ev3c_c2_elabs_scored_5plus,syndirella_product,openbind_d68ev3c_c2_elabs_scored_top80percent,syndirella_placed

>  <smiles>  (399) 
COc1cc(C)c(NC(=O)c2cc(Cl)ncc2Br)cc1F

>  <subsites>  (399) 
None

>  <rmsd(smina/fragmenstein)>  (399) 
1.037

>  <alias>  (399) 
None

>  <energy_score>  (399) 
-10.248117

>  <HIPPO Pose ID>  (399) 
65453

>  <distance_score>  (399) 
0.588315

>  <HIPPO Compound ID>  (399) 
102662

>  <gnina_score_min>  (399) 
5.251

>  <name>  (399) 
P65453

>  <exports>  (399) 
['/opt/xchem-fragalysis-2/maxwin/BulkDock/OUTPUTS/openbind_d68ev3c_c2_elabs_1LOTQJ3.sdf', '/opt/xchem-fragalysis-2/maxwin/BulkDock/OUTPUTS/openbind_d68ev3c_c2_elabs_1LSYEHW.sdf', '/opt/xchem-fragalysis-2/maxwin/BulkDock/OUTPUTS/openbind_d68ev3c_c2_elabs_1LSYI5W.sdf']

$$$$
P65454
     RDKit          3D

 21 22  0  0  0  0  0  0  0  0999 V2000
    3.0066   -3.3141   33.3734 N   0  0  0  0  0  0  0  0  0  0  0  0
    2.5571   -3.4031   34.4401 C   0  0  0  0  0  0  0  0  0  0  0  0
    1.9357   -3.5037   35.7283 C   0  0  0  0  0  0  0  0  0  0  0  0
    2.3987   -2.6963   36.7793 C   0  0  0  0  0  0  0  0  0  0  0  0
    1.8406   -2.8108   38.0547 C   0  0  0  0  0  0  0  0  0  0  0  0
    0.8303   -3.7384   38.2797 C   0  0  0  0  0  0  0  0  0  0  0  0
    0.2753   -3.8193   39.4971 F   0  0  0  0  0  0  0  0  0  0  0  0
    0.3792   -4.5570   37.2504 C   0  0  0  0  0  0  0  0  0  0  0  0
   -0.6335   -5.4029   37.4944 F   0  0  0  0  0  0  0  0  0  0  0  0
    0.9192   -4.4411   35.9629 C   0  0  0  0  0  0  0  0  0  0  0  0
    0.4407   -5.2449   34.9252 N   0  0  0  0  0  0  0  0  0  0  0  0
   -0.0452   -6.7064   34.9345 C   0  0  0  0  0  0  0  0  0  0  0  0
   -0.0513   -7.4937   35.7917 O   0  0  0  0  0  0  0  0  0  0  0  0
   -0.6192   -7.1380   33.6230 C   0  0  0  0  0  0  0  0  0  0  0  0
   -0.0685   -6.6924   32.4169 C   0  0  0  0  0  0  0  0  0  0  0  0
   -0.6574   -7.1166   31.2417 C   0  0  0  0  0  0  0  0  0  0  0  0
   -0.2304   -6.4196   29.7397 Cl  0  0  0  0  0  0  0  0  0  0  0  0
   -1.6834   -7.9890   31.1687 N   0  0  0  0  0  0  0  0  0  0  0  0
   -2.1561   -8.4457   32.3453 C   0  0  0  0  0  0  0  0  0  0  0  0
   -1.7002   -8.0282   33.5817 C   0  0  0  0  0  0  0  0  0  0  0  0
   -2.7307   -8.6055   35.0526 Br  0  0  0  0  0  0  0  0  0  0  0  0
  1  2  3  0
  2  3  1  0
  3  4  2  0
  4  5  1  0
  5  6  2  0
  6  7  1  0
  6  8  1  0
  8  9  1  0
  8 10  2  0
 10 11  1  0
 11 12  1  0
 12 13  2  0
 12 14  1  0
 14 15  2  0
 15 16  1  0
 16 17  1  0
 16 18  2  0
 18 19  1  0
 19 20  2  0
 20 21  1  0
 10  3  1  0
 20 14  1  0
M  END
>  <ref_mols>  (400) 
7gov-a

>  <gnina_score>  (400) 
5.391

>  <smina_score_min>  (400) 
-5.228

>  <ref_pdb>  (400) 
7gov-a

>  <inspiration_score>  (400) 
None

>  <inchikey>  (400) 
ANKRHNZZPXVMIR-UHFFFAOYSA-N

>  <tags>  (400) 
BulkDock Fragalysis export,openbind_d68ev3c_c2_elabs_scored,openbind_d68ev3c_c2_elabs_scored_4.5plus,openbind_d68ev3c_c2_elabs,openbind_d68ev3c_c2_elabs_scored_5plus,syndirella_product,openbind_d68ev3c_c2_elabs_scored_top80percent,syndirella_placed

>  <smiles>  (400) 
N#Cc1ccc(F)c(F)c1NC(=O)c1cc(Cl)ncc1Br

>  <subsites>  (400) 
None

>  <rmsd(smina/fragmenstein)>  (400) 
0.565

>  <alias>  (400) 
None

>  <energy_score>  (400) 
-7.694575

>  <HIPPO Pose ID>  (400) 
65454

>  <distance_score>  (400) 
0.47712

>  <HIPPO Compound ID>  (400) 
102664

>  <gnina_score_min>  (400) 
5.279

>  <name>  (400) 
P65454

>  <exports>  (400) 
['/opt/xchem-fragalysis-2/maxwin/BulkDock/OUTPUTS/openbind_d68ev3c_c2_elabs_1LOTQJ3.sdf', '/opt/xchem-fragalysis-2/maxwin/BulkDock/OUTPUTS/openbind_d68ev3c_c2_elabs_1LSYEHW.sdf', '/opt/xchem-fragalysis-2/maxwin/BulkDock/OUTPUTS/openbind_d68ev3c_c2_elabs_1LSYI5W.sdf']

$$$$
P65455
     RDKit          3D

 21 22  0  0  0  0  0  0  0  0999 V2000
    2.6995   -4.0059   34.0017 O   0  0  0  0  0  0  0  0  0  0  0  0
    3.1188   -3.5141   35.0450 C   0  0  0  0  0  0  0  0  0  0  0  0
    2.3214   -3.4945   36.2974 C   0  0  0  0  0  0  0  0  0  0  0  0
    2.7906   -2.7325   37.3700 C   0  0  0  0  0  0  0  0  0  0  0  0
    2.0722   -2.7263   38.5668 C   0  0  0  0  0  0  0  0  0  0  0  0
    2.7254   -1.7208   40.0303 Br  0  0  0  0  0  0  0  0  0  0  0  0
    0.8906   -3.4574   38.6838 C   0  0  0  0  0  0  0  0  0  0  0  0
    0.1876   -3.4528   39.8247 F   0  0  0  0  0  0  0  0  0  0  0  0
    0.4123   -4.2060   37.6188 C   0  0  0  0  0  0  0  0  0  0  0  0
    1.1343   -4.2335   36.4280 C   0  0  0  0  0  0  0  0  0  0  0  0
    0.6772   -4.9672   35.3483 N   0  0  0  0  0  0  0  0  0  0  0  0
   -0.4572   -5.9998   35.2506 C   0  0  0  0  0  0  0  0  0  0  0  0
   -1.2388   -6.3419   36.0454 O   0  0  0  0  0  0  0  0  0  0  0  0
   -0.5864   -6.5435   33.8710 C   0  0  0  0  0  0  0  0  0  0  0  0
   -1.2891   -7.7266   33.7313 C   0  0  0  0  0  0  0  0  0  0  0  0
   -1.5609   -8.1294   32.4497 C   0  0  0  0  0  0  0  0  0  0  0  0
   -2.5147   -9.4924   32.1970 Cl  0  0  0  0  0  0  0  0  0  0  0  0
   -1.1918   -7.5063   31.3179 N   0  0  0  0  0  0  0  0  0  0  0  0
   -0.4568   -6.3946   31.4905 C   0  0  0  0  0  0  0  0  0  0  0  0
    0.1132   -5.4227   29.9692 Br  0  0  0  0  0  0  0  0  0  0  0  0
   -0.1594   -5.8606   32.7305 C   0  0  0  0  0  0  0  0  0  0  0  0
  1  2  2  0
  2  3  1  0
  3  4  2  0
  4  5  1  0
  5  6  1  0
  5  7  2  0
  7  8  1  0
  7  9  1  0
  9 10  2  0
 10 11  1  0
 11 12  1  0
 12 13  2  0
 12 14  1  0
 14 15  2  0
 15 16  1  0
 16 17  1  0
 16 18  2  0
 18 19  1  0
 19 20  1  0
 19 21  2  0
 10  3  1  0
 21 14  1  0
M  END
>  <ref_mols>  (401) 
7gov-a

>  <gnina_score>  (401) 
5.09

>  <smina_score_min>  (401) 
-5.198

>  <ref_pdb>  (401) 
7gov-a

>  <inspiration_score>  (401) 
None

>  <inchikey>  (401) 
WELMOXUGAUWQPI-UHFFFAOYSA-N

>  <tags>  (401) 
BulkDock Fragalysis export,openbind_d68ev3c_c2_elabs_scored,openbind_d68ev3c_c2_elabs_scored_4.5plus,openbind_d68ev3c_c2_elabs,openbind_d68ev3c_c2_elabs_scored_5plus,syndirella_product,openbind_d68ev3c_c2_elabs_scored_top80percent,syndirella_placed

>  <smiles>  (401) 
O=Cc1cc(Br)c(F)cc1NC(=O)c1cc(Cl)nc(Br)c1

>  <subsites>  (401) 
None

>  <rmsd(smina/fragmenstein)>  (401) 
1.217

>  <alias>  (401) 
None

>  <energy_score>  (401) 
-22.603953

>  <HIPPO Pose ID>  (401) 
65455

>  <distance_score>  (401) 
0.976398

>  <HIPPO Compound ID>  (401) 
102670

>  <gnina_score_min>  (401) 
5.032

>  <name>  (401) 
P65455

>  <exports>  (401) 
['/opt/xchem-fragalysis-2/maxwin/BulkDock/OUTPUTS/openbind_d68ev3c_c2_elabs_1LOTQJ3.sdf', '/opt/xchem-fragalysis-2/maxwin/BulkDock/OUTPUTS/openbind_d68ev3c_c2_elabs_1LSYEHW.sdf', '/opt/xchem-fragalysis-2/maxwin/BulkDock/OUTPUTS/openbind_d68ev3c_c2_elabs_1LSYI5W.sdf']

$$$$
P65458
     RDKit          3D

 21 22  0  0  0  0  0  0  0  0999 V2000
    3.6814   -3.4398   33.9752 C   0  0  0  0  0  0  0  0  0  0  0  0
    3.0639   -3.4457   35.0053 C   0  0  0  0  0  0  0  0  0  0  0  0
    2.3277   -3.4514   36.2403 C   0  0  0  0  0  0  0  0  0  0  0  0
    2.7828   -2.6725   37.3048 C   0  0  0  0  0  0  0  0  0  0  0  0
    2.0824   -2.6803   38.5073 C   0  0  0  0  0  0  0  0  0  0  0  0
    2.5297   -1.9363   39.5292 F   0  0  0  0  0  0  0  0  0  0  0  0
    0.9273   -3.4400   38.6520 C   0  0  0  0  0  0  0  0  0  0  0  0
    0.2494   -3.4317   39.8073 F   0  0  0  0  0  0  0  0  0  0  0  0
    0.4546   -4.2093   37.6010 C   0  0  0  0  0  0  0  0  0  0  0  0
    1.1625   -4.2245   36.3992 C   0  0  0  0  0  0  0  0  0  0  0  0
    0.6964   -4.9678   35.3254 N   0  0  0  0  0  0  0  0  0  0  0  0
   -0.4505   -5.9896   35.2396 C   0  0  0  0  0  0  0  0  0  0  0  0
   -1.2360   -6.3134   36.0383 O   0  0  0  0  0  0  0  0  0  0  0  0
   -0.5831   -6.5462   33.8667 C   0  0  0  0  0  0  0  0  0  0  0  0
   -1.2821   -7.7317   33.7331 C   0  0  0  0  0  0  0  0  0  0  0  0
   -1.5577   -8.1362   32.4526 C   0  0  0  0  0  0  0  0  0  0  0  0
   -2.5145   -9.4968   32.2016 Cl  0  0  0  0  0  0  0  0  0  0  0  0
   -1.1911   -7.5148   31.3181 N   0  0  0  0  0  0  0  0  0  0  0  0
   -0.4641   -6.3986   31.4856 C   0  0  0  0  0  0  0  0  0  0  0  0
    0.1061   -5.4291   29.9633 Br  0  0  0  0  0  0  0  0  0  0  0  0
   -0.1689   -5.8598   32.7236 C   0  0  0  0  0  0  0  0  0  0  0  0
  1  2  3  0
  2  3  1  0
  3  4  2  0
  4  5  1  0
  5  6  1  0
  5  7  2  0
  7  8  1  0
  7  9  1  0
  9 10  2  0
 10 11  1  0
 11 12  1  0
 12 13  2  0
 12 14  1  0
 14 15  2  0
 15 16  1  0
 16 17  1  0
 16 18  2  0
 18 19  1  0
 19 20  1  0
 19 21  2  0
 10  3  1  0
 21 14  1  0
M  END
>  <ref_mols>  (402) 
7gov-a

>  <gnina_score>  (402) 
5.11

>  <smina_score_min>  (402) 
-5.205

>  <ref_pdb>  (402) 
7gov-a

>  <inspiration_score>  (402) 
None

>  <inchikey>  (402) 
MBEAITGVRNJAMQ-UHFFFAOYSA-N

>  <tags>  (402) 
BulkDock Fragalysis export,openbind_d68ev3c_c2_elabs_scored,openbind_d68ev3c_c2_elabs_scored_4.5plus,openbind_d68ev3c_c2_elabs,openbind_d68ev3c_c2_elabs_scored_5plus,syndirella_product,openbind_d68ev3c_c2_elabs_scored_top80percent,syndirella_placed

>  <smiles>  (402) 
C#Cc1cc(F)c(F)cc1NC(=O)c1cc(Cl)nc(Br)c1

>  <subsites>  (402) 
None

>  <rmsd(smina/fragmenstein)>  (402) 
1.263

>  <alias>  (402) 
None

>  <energy_score>  (402) 
-15.369196

>  <HIPPO Pose ID>  (402) 
65458

>  <distance_score>  (402) 
0.976237

>  <HIPPO Compound ID>  (402) 
102674

>  <gnina_score_min>  (402) 
5.093

>  <name>  (402) 
P65458

>  <exports>  (402) 
['/opt/xchem-fragalysis-2/maxwin/BulkDock/OUTPUTS/openbind_d68ev3c_c2_elabs_1LOTQJ3.sdf', '/opt/xchem-fragalysis-2/maxwin/BulkDock/OUTPUTS/openbind_d68ev3c_c2_elabs_1LSYEHW.sdf', '/opt/xchem-fragalysis-2/maxwin/BulkDock/OUTPUTS/openbind_d68ev3c_c2_elabs_1LSYI5W.sdf']

$$$$
P65465
     RDKit          3D

 21 22  0  0  0  0  0  0  0  0999 V2000
    2.4825   -4.4473   33.6714 O   0  0  0  0  0  0  0  0  0  0  0  0
    2.9145   -3.8840   34.6737 C   0  0  0  0  0  0  0  0  0  0  0  0
    2.1395   -3.8268   35.9279 C   0  0  0  0  0  0  0  0  0  0  0  0
    2.5695   -2.9465   36.9210 C   0  0  0  0  0  0  0  0  0  0  0  0
    3.6541   -2.1800   36.7292 F   0  0  0  0  0  0  0  0  0  0  0  0
    1.8765   -2.8293   38.1196 C   0  0  0  0  0  0  0  0  0  0  0  0
    0.7395   -3.6000   38.3153 C   0  0  0  0  0  0  0  0  0  0  0  0
    0.0676   -3.4974   39.4692 F   0  0  0  0  0  0  0  0  0  0  0  0
    0.2847   -4.4787   37.3363 C   0  0  0  0  0  0  0  0  0  0  0  0
    0.9921   -4.6083   36.1380 C   0  0  0  0  0  0  0  0  0  0  0  0
    0.5651   -5.5053   35.1589 N   0  0  0  0  0  0  0  0  0  0  0  0
   -0.7093   -6.3749   35.0817 C   0  0  0  0  0  0  0  0  0  0  0  0
   -1.5637   -6.5350   35.8602 O   0  0  0  0  0  0  0  0  0  0  0  0
   -0.8822   -7.0392   33.7558 C   0  0  0  0  0  0  0  0  0  0  0  0
   -0.4205   -6.4892   32.5568 C   0  0  0  0  0  0  0  0  0  0  0  0
   -0.7717   -7.1254   31.3792 C   0  0  0  0  0  0  0  0  0  0  0  0
   -0.3237   -6.4693   29.8634 Cl  0  0  0  0  0  0  0  0  0  0  0  0
   -1.5579   -8.2235   31.2999 N   0  0  0  0  0  0  0  0  0  0  0  0
   -1.9684   -8.7403   32.4780 C   0  0  0  0  0  0  0  0  0  0  0  0
   -1.6636   -8.1929   33.7066 C   0  0  0  0  0  0  0  0  0  0  0  0
   -2.1644   -8.7685   34.8048 F   0  0  0  0  0  0  0  0  0  0  0  0
  1  2  2  0
  2  3  1  0
  3  4  2  0
  4  5  1  0
  4  6  1  0
  6  7  2  0
  7  8  1  0
  7  9  1  0
  9 10  2  0
 10 11  1  0
 11 12  1  0
 12 13  2  0
 12 14  1  0
 14 15  2  0
 15 16  1  0
 16 17  1  0
 16 18  2  0
 18 19  1  0
 19 20  2  0
 20 21  1  0
 10  3  1  0
 20 14  1  0
M  END
>  <ref_mols>  (403) 
7gov-a

>  <gnina_score>  (403) 
5.059

>  <smina_score_min>  (403) 
-5.843

>  <ref_pdb>  (403) 
7gov-a

>  <inspiration_score>  (403) 
None

>  <inchikey>  (403) 
DREQESJBWJCKNF-UHFFFAOYSA-N

>  <tags>  (403) 
BulkDock Fragalysis export,openbind_d68ev3c_c2_elabs_scored,openbind_d68ev3c_c2_elabs_scored_4.5plus,openbind_d68ev3c_c2_elabs,openbind_d68ev3c_c2_elabs_scored_5plus,syndirella_product,openbind_d68ev3c_c2_elabs_scored_top80percent,syndirella_placed

>  <smiles>  (403) 
O=Cc1c(F)cc(F)cc1NC(=O)c1cc(Cl)ncc1F

>  <subsites>  (403) 
None

>  <rmsd(smina/fragmenstein)>  (403) 
1.143

>  <alias>  (403) 
None

>  <energy_score>  (403) 
-17.480841

>  <HIPPO Pose ID>  (403) 
65465

>  <distance_score>  (403) 
0.775732

>  <HIPPO Compound ID>  (403) 
102691

>  <gnina_score_min>  (403) 
5.022

>  <name>  (403) 
P65465

>  <exports>  (403) 
['/opt/xchem-fragalysis-2/maxwin/BulkDock/OUTPUTS/openbind_d68ev3c_c2_elabs_1LOTQJ3.sdf', '/opt/xchem-fragalysis-2/maxwin/BulkDock/OUTPUTS/openbind_d68ev3c_c2_elabs_1LSYEHW.sdf', '/opt/xchem-fragalysis-2/maxwin/BulkDock/OUTPUTS/openbind_d68ev3c_c2_elabs_1LSYI5W.sdf']

$$$$
P65467
     RDKit          3D

 21 22  0  0  0  0  0  0  0  0999 V2000
    3.5245   -0.2886   36.2920 C   0  0  0  0  0  0  0  0  0  0  0  0
    3.8830   -1.5773   37.0175 C   0  0  0  0  0  0  0  0  0  0  0  0
    2.7105   -2.5287   37.1009 C   0  0  0  0  0  0  0  0  0  0  0  0
    1.9756   -2.5485   38.3014 C   0  0  0  0  0  0  0  0  0  0  0  0
    0.8930   -3.4012   38.4558 C   0  0  0  0  0  0  0  0  0  0  0  0
    0.2095   -3.4063   39.6081 F   0  0  0  0  0  0  0  0  0  0  0  0
    0.5058   -4.2433   37.4333 C   0  0  0  0  0  0  0  0  0  0  0  0
    1.2192   -4.2406   36.2340 C   0  0  0  0  0  0  0  0  0  0  0  0
    0.8176   -5.0901   35.2097 N   0  0  0  0  0  0  0  0  0  0  0  0
   -0.2133   -6.2303   35.2039 C   0  0  0  0  0  0  0  0  0  0  0  0
   -0.8360   -6.6915   36.0762 O   0  0  0  0  0  0  0  0  0  0  0  0
   -0.4689   -6.7706   33.8371 C   0  0  0  0  0  0  0  0  0  0  0  0
   -1.4087   -7.7914   33.7630 C   0  0  0  0  0  0  0  0  0  0  0  0
   -1.7949   -8.2082   32.5154 C   0  0  0  0  0  0  0  0  0  0  0  0
   -3.0859   -9.2768   32.3772 Cl  0  0  0  0  0  0  0  0  0  0  0  0
   -1.3103   -7.7615   31.3427 N   0  0  0  0  0  0  0  0  0  0  0  0
   -0.3477   -6.8208   31.4445 C   0  0  0  0  0  0  0  0  0  0  0  0
    0.0802   -6.2860   32.6513 C   0  0  0  0  0  0  0  0  0  0  0  0
    0.9915   -5.3030   32.6404 F   0  0  0  0  0  0  0  0  0  0  0  0
    2.3255   -3.3843   36.0416 C   0  0  0  0  0  0  0  0  0  0  0  0
    3.0855   -3.4460   34.7392 C   0  0  0  0  0  0  0  0  0  0  0  0
  1  2  1  0
  2  3  1  0
  3  4  2  0
  4  5  1  0
  5  6  1  0
  5  7  2  0
  7  8  1  0
  8  9  1  0
  9 10  1  0
 10 11  2  0
 10 12  1  0
 12 13  2  0
 13 14  1  0
 14 15  1  0
 14 16  2  0
 16 17  1  0
 17 18  2  0
 18 19  1  0
  8 20  2  0
 20 21  1  0
 20  3  1  0
 18 12  1  0
M  END
>  <ref_mols>  (404) 
7gov-a

>  <gnina_score>  (404) 
5.05

>  <smina_score_min>  (404) 
-5.209

>  <ref_pdb>  (404) 
7gov-a

>  <inspiration_score>  (404) 
None

>  <inchikey>  (404) 
GRTBZIRIRNZLFU-UHFFFAOYSA-N

>  <tags>  (404) 
BulkDock Fragalysis export,openbind_d68ev3c_c2_elabs_scored,openbind_d68ev3c_c2_elabs_scored_4.5plus,openbind_d68ev3c_c2_elabs,openbind_d68ev3c_c2_elabs_scored_5plus,syndirella_product,openbind_d68ev3c_c2_elabs_scored_top80percent,syndirella_placed

>  <smiles>  (404) 
CCc1cc(F)cc(NC(=O)c2cc(Cl)ncc2F)c1C

>  <subsites>  (404) 
None

>  <rmsd(smina/fragmenstein)>  (404) 
1.268

>  <alias>  (404) 
None

>  <energy_score>  (404) 
-23.881937

>  <HIPPO Pose ID>  (404) 
65467

>  <distance_score>  (404) 
0.793839

>  <HIPPO Compound ID>  (404) 
102693

>  <gnina_score_min>  (404) 
5.041

>  <name>  (404) 
P65467

>  <exports>  (404) 
['/opt/xchem-fragalysis-2/maxwin/BulkDock/OUTPUTS/openbind_d68ev3c_c2_elabs_1LOTQJ3.sdf', '/opt/xchem-fragalysis-2/maxwin/BulkDock/OUTPUTS/openbind_d68ev3c_c2_elabs_1LSYEHW.sdf', '/opt/xchem-fragalysis-2/maxwin/BulkDock/OUTPUTS/openbind_d68ev3c_c2_elabs_1LSYI5W.sdf']

$$$$
P65468
     RDKit          3D

 21 23  0  0  0  0  0  0  0  0999 V2000
   -0.9513   -6.5605   36.0462 O   0  0  0  0  0  0  0  0  0  0  0  0
   -0.2555   -6.1552   35.2011 C   0  0  0  0  0  0  0  0  0  0  0  0
    0.8317   -5.0667   35.2401 N   0  0  0  0  0  0  0  0  0  0  0  0
    1.2161   -4.2095   36.2659 C   0  0  0  0  0  0  0  0  0  0  0  0
    0.5174   -4.2362   37.4770 C   0  0  0  0  0  0  0  0  0  0  0  0
    0.9081   -3.4045   38.5103 C   0  0  0  0  0  0  0  0  0  0  0  0
    0.2387   -3.4367   39.6700 F   0  0  0  0  0  0  0  0  0  0  0  0
    1.9832   -2.5451   38.3590 C   0  0  0  0  0  0  0  0  0  0  0  0
    2.6740   -2.5153   37.1452 C   0  0  0  0  0  0  0  0  0  0  0  0
    2.3026   -3.3328   36.0605 C   0  0  0  0  0  0  0  0  0  0  0  0
    3.1013   -3.3116   34.7699 C   0  0  0  0  0  0  0  0  0  0  0  0
    2.4853   -2.7441   33.5102 C   0  0  0  0  0  0  0  0  0  0  0  0
    3.5980   -2.0066   34.1853 C   0  0  0  0  0  0  0  0  0  0  0  0
   -0.4773   -6.7185   33.8378 C   0  0  0  0  0  0  0  0  0  0  0  0
   -1.3999   -7.7561   33.7608 C   0  0  0  0  0  0  0  0  0  0  0  0
   -1.7649   -8.1909   32.5127 C   0  0  0  0  0  0  0  0  0  0  0  0
   -3.0317   -9.2874   32.3673 Cl  0  0  0  0  0  0  0  0  0  0  0  0
   -1.2743   -7.7461   31.3425 N   0  0  0  0  0  0  0  0  0  0  0  0
   -0.3258   -6.7916   31.4480 C   0  0  0  0  0  0  0  0  0  0  0  0
    0.0802   -6.2399   32.6551 C   0  0  0  0  0  0  0  0  0  0  0  0
    0.9721   -5.2412   32.6453 F   0  0  0  0  0  0  0  0  0  0  0  0
  1  2  2  0
  2  3  1  0
  3  4  1  0
  4  5  2  0
  5  6  1  0
  6  7  1  0
  6  8  2  0
  8  9  1  0
  9 10  2  0
 10 11  1  0
 11 12  1  0
 12 13  1  0
  2 14  1  0
 14 15  2  0
 15 16  1  0
 16 17  1  0
 16 18  2  0
 18 19  1  0
 19 20  2  0
 20 21  1  0
 10  4  1  0
 13 11  1  0
 20 14  1  0
M  END
>  <ref_mols>  (405) 
7gov-a

>  <gnina_score>  (405) 
5.12

>  <smina_score_min>  (405) 
-5.674

>  <ref_pdb>  (405) 
7gov-a

>  <inspiration_score>  (405) 
None

>  <inchikey>  (405) 
FIUQWTPUJYVMAZ-UHFFFAOYSA-N

>  <tags>  (405) 
BulkDock Fragalysis export,openbind_d68ev3c_c2_elabs_scored,openbind_d68ev3c_c2_elabs_scored_4.5plus,openbind_d68ev3c_c2_elabs,openbind_d68ev3c_c2_elabs_scored_5plus,syndirella_product,openbind_d68ev3c_c2_elabs_scored_top80percent,syndirella_placed

>  <smiles>  (405) 
O=C(Nc1cc(F)ccc1C1CC1)c1cc(Cl)ncc1F

>  <subsites>  (405) 
None

>  <rmsd(smina/fragmenstein)>  (405) 
1.187

>  <alias>  (405) 
None

>  <energy_score>  (405) 
-20.777849

>  <HIPPO Pose ID>  (405) 
65468

>  <distance_score>  (405) 
0.845212

>  <HIPPO Compound ID>  (405) 
102694

>  <gnina_score_min>  (405) 
5.087

>  <name>  (405) 
P65468

>  <exports>  (405) 
['/opt/xchem-fragalysis-2/maxwin/BulkDock/OUTPUTS/openbind_d68ev3c_c2_elabs_1LOTQJ3.sdf', '/opt/xchem-fragalysis-2/maxwin/BulkDock/OUTPUTS/openbind_d68ev3c_c2_elabs_1LSYEHW.sdf', '/opt/xchem-fragalysis-2/maxwin/BulkDock/OUTPUTS/openbind_d68ev3c_c2_elabs_1LSYI5W.sdf']

$$$$
P65470
     RDKit          3D

 21 22  0  0  0  0  0  0  0  0999 V2000
    3.6755   -4.9911   34.3389 C   0  0  0  0  0  0  0  0  0  0  0  0
    2.9672   -3.6682   34.6264 C   0  0  0  0  0  0  0  0  0  0  0  0
    2.2283   -3.1200   33.4033 C   0  0  0  0  0  0  0  0  0  0  0  0
    2.1005   -3.7059   35.8803 C   0  0  0  0  0  0  0  0  0  0  0  0
    2.5130   -2.8760   36.9485 C   0  0  0  0  0  0  0  0  0  0  0  0
    1.8065   -2.8238   38.1484 C   0  0  0  0  0  0  0  0  0  0  0  0
    0.6688   -3.5949   38.2947 C   0  0  0  0  0  0  0  0  0  0  0  0
   -0.0144   -3.5504   39.4464 F   0  0  0  0  0  0  0  0  0  0  0  0
    0.2257   -4.4128   37.2648 C   0  0  0  0  0  0  0  0  0  0  0  0
    0.9385   -4.4883   36.0600 C   0  0  0  0  0  0  0  0  0  0  0  0
    0.4557   -5.3233   35.0490 N   0  0  0  0  0  0  0  0  0  0  0  0
   -0.7323   -6.3165   35.0468 C   0  0  0  0  0  0  0  0  0  0  0  0
   -1.5380   -6.5344   35.8637 O   0  0  0  0  0  0  0  0  0  0  0  0
   -0.9015   -7.0211   33.7387 C   0  0  0  0  0  0  0  0  0  0  0  0
   -0.4644   -6.4893   32.5224 C   0  0  0  0  0  0  0  0  0  0  0  0
   -0.8033   -7.1610   31.3612 C   0  0  0  0  0  0  0  0  0  0  0  0
   -0.3654   -6.5360   29.8296 Cl  0  0  0  0  0  0  0  0  0  0  0  0
   -1.5634   -8.2758   31.3111 N   0  0  0  0  0  0  0  0  0  0  0  0
   -1.9593   -8.7720   32.5030 C   0  0  0  0  0  0  0  0  0  0  0  0
   -1.6582   -8.1924   33.7185 C   0  0  0  0  0  0  0  0  0  0  0  0
   -2.1436   -8.7549   34.8300 F   0  0  0  0  0  0  0  0  0  0  0  0
  1  2  1  0
  2  3  1  0
  2  4  1  0
  4  5  2  0
  5  6  1  0
  6  7  2  0
  7  8  1  0
  7  9  1  0
  9 10  2  0
 10 11  1  0
 11 12  1  0
 12 13  2  0
 12 14  1  0
 14 15  2  0
 15 16  1  0
 16 17  1  0
 16 18  2  0
 18 19  1  0
 19 20  2  0
 20 21  1  0
 10  4  1  0
 20 14  1  0
M  END
>  <ref_mols>  (406) 
7gov-a

>  <gnina_score>  (406) 
5.138

>  <smina_score_min>  (406) 
-5.846

>  <ref_pdb>  (406) 
7gov-a

>  <inspiration_score>  (406) 
None

>  <inchikey>  (406) 
WBOMYRPBBFNPBC-UHFFFAOYSA-N

>  <tags>  (406) 
BulkDock Fragalysis export,openbind_d68ev3c_c2_elabs_scored,openbind_d68ev3c_c2_elabs_scored_4.5plus,openbind_d68ev3c_c2_elabs,openbind_d68ev3c_c2_elabs_scored_5plus,syndirella_product,openbind_d68ev3c_c2_elabs_scored_top80percent,syndirella_placed

>  <smiles>  (406) 
CC(C)c1ccc(F)cc1NC(=O)c1cc(Cl)ncc1F

>  <subsites>  (406) 
None

>  <rmsd(smina/fragmenstein)>  (406) 
1.054

>  <alias>  (406) 
None

>  <energy_score>  (406) 
-6.212532

>  <HIPPO Pose ID>  (406) 
65470

>  <distance_score>  (406) 
0.766824

>  <HIPPO Compound ID>  (406) 
102701

>  <gnina_score_min>  (406) 
5.152

>  <name>  (406) 
P65470

>  <exports>  (406) 
['/opt/xchem-fragalysis-2/maxwin/BulkDock/OUTPUTS/openbind_d68ev3c_c2_elabs_1LOTQJ3.sdf', '/opt/xchem-fragalysis-2/maxwin/BulkDock/OUTPUTS/openbind_d68ev3c_c2_elabs_1LSYEHW.sdf', '/opt/xchem-fragalysis-2/maxwin/BulkDock/OUTPUTS/openbind_d68ev3c_c2_elabs_1LSYI5W.sdf']

$$$$
P65471
     RDKit          3D

 21 22  0  0  0  0  0  0  0  0999 V2000
    4.0042   -4.5508   34.5319 C   0  0  0  0  0  0  0  0  0  0  0  0
    3.0803   -3.3540   34.7047 C   0  0  0  0  0  0  0  0  0  0  0  0
    2.3136   -3.3871   36.0079 C   0  0  0  0  0  0  0  0  0  0  0  0
    2.7714   -2.6098   37.0859 C   0  0  0  0  0  0  0  0  0  0  0  0
    2.1178   -2.6491   38.3202 C   0  0  0  0  0  0  0  0  0  0  0  0
    2.7745   -1.6030   39.7528 Br  0  0  0  0  0  0  0  0  0  0  0  0
    0.9986   -3.4545   38.4882 C   0  0  0  0  0  0  0  0  0  0  0  0
    0.3422   -3.4965   39.6575 F   0  0  0  0  0  0  0  0  0  0  0  0
    0.5335   -4.2334   37.4407 C   0  0  0  0  0  0  0  0  0  0  0  0
    1.1924   -4.2090   36.2086 C   0  0  0  0  0  0  0  0  0  0  0  0
    0.7228   -4.9997   35.1713 N   0  0  0  0  0  0  0  0  0  0  0  0
   -0.3304   -6.1192   35.1666 C   0  0  0  0  0  0  0  0  0  0  0  0
   -1.0282   -6.5049   36.0184 O   0  0  0  0  0  0  0  0  0  0  0  0
   -0.5284   -6.7165   33.8143 C   0  0  0  0  0  0  0  0  0  0  0  0
   -1.4435   -7.7590   33.7503 C   0  0  0  0  0  0  0  0  0  0  0  0
   -1.7971   -8.2135   32.5068 C   0  0  0  0  0  0  0  0  0  0  0  0
   -3.0772   -9.2938   32.3714 Cl  0  0  0  0  0  0  0  0  0  0  0  0
   -1.2964   -7.7895   31.3325 N   0  0  0  0  0  0  0  0  0  0  0  0
   -0.3486   -6.8339   31.4279 C   0  0  0  0  0  0  0  0  0  0  0  0
    0.0434   -6.2594   32.6281 C   0  0  0  0  0  0  0  0  0  0  0  0
    0.9337   -5.2575   32.6092 F   0  0  0  0  0  0  0  0  0  0  0  0
  1  2  1  0
  2  3  1  0
  3  4  2  0
  4  5  1  0
  5  6  1  0
  5  7  2  0
  7  8  1  0
  7  9  1  0
  9 10  2  0
 10 11  1  0
 11 12  1  0
 12 13  2  0
 12 14  1  0
 14 15  2  0
 15 16  1  0
 16 17  1  0
 16 18  2  0
 18 19  1  0
 19 20  2  0
 20 21  1  0
 10  3  1  0
 20 14  1  0
M  END
>  <ref_mols>  (407) 
7gov-a

>  <gnina_score>  (407) 
5.137

>  <smina_score_min>  (407) 
-5.31

>  <ref_pdb>  (407) 
7gov-a

>  <inspiration_score>  (407) 
None

>  <inchikey>  (407) 
COUABPUPPQRKIP-UHFFFAOYSA-N

>  <tags>  (407) 
BulkDock Fragalysis export,openbind_d68ev3c_c2_elabs_scored,openbind_d68ev3c_c2_elabs_scored_4.5plus,openbind_d68ev3c_c2_elabs,openbind_d68ev3c_c2_elabs_scored_5plus,syndirella_product,openbind_d68ev3c_c2_elabs_scored_top80percent,syndirella_placed

>  <smiles>  (407) 
CCc1cc(Br)c(F)cc1NC(=O)c1cc(Cl)ncc1F

>  <subsites>  (407) 
None

>  <rmsd(smina/fragmenstein)>  (407) 
1.293

>  <alias>  (407) 
None

>  <energy_score>  (407) 
-23.318902

>  <HIPPO Pose ID>  (407) 
65471

>  <distance_score>  (407) 
0.832478

>  <HIPPO Compound ID>  (407) 
102703

>  <gnina_score_min>  (407) 
5.026

>  <name>  (407) 
P65471

>  <exports>  (407) 
['/opt/xchem-fragalysis-2/maxwin/BulkDock/OUTPUTS/openbind_d68ev3c_c2_elabs_1LOTQJ3.sdf', '/opt/xchem-fragalysis-2/maxwin/BulkDock/OUTPUTS/openbind_d68ev3c_c2_elabs_1LSYEHW.sdf', '/opt/xchem-fragalysis-2/maxwin/BulkDock/OUTPUTS/openbind_d68ev3c_c2_elabs_1LSYI5W.sdf']

$$$$
P65473
     RDKit          3D

 21 22  0  0  0  0  0  0  0  0999 V2000
    2.4697   -1.7572   39.5368 C   0  0  0  0  0  0  0  0  0  0  0  0
    2.0625   -2.5993   38.3605 C   0  0  0  0  0  0  0  0  0  0  0  0
    0.9468   -3.4277   38.4837 C   0  0  0  0  0  0  0  0  0  0  0  0
    0.2499   -3.4602   39.6295 F   0  0  0  0  0  0  0  0  0  0  0  0
    0.5143   -4.2198   37.4366 C   0  0  0  0  0  0  0  0  0  0  0  0
    1.2106   -4.2135   36.2298 C   0  0  0  0  0  0  0  0  0  0  0  0
    0.7288   -4.9925   35.1841 N   0  0  0  0  0  0  0  0  0  0  0  0
   -0.2587   -6.1709   35.1888 C   0  0  0  0  0  0  0  0  0  0  0  0
   -0.8859   -6.6289   36.0596 O   0  0  0  0  0  0  0  0  0  0  0  0
   -0.4888   -6.7353   33.8271 C   0  0  0  0  0  0  0  0  0  0  0  0
   -1.4157   -7.7680   33.7560 C   0  0  0  0  0  0  0  0  0  0  0  0
   -1.7858   -8.2025   32.5097 C   0  0  0  0  0  0  0  0  0  0  0  0
   -3.0649   -9.2849   32.3714 Cl  0  0  0  0  0  0  0  0  0  0  0  0
   -1.2951   -7.7633   31.3370 N   0  0  0  0  0  0  0  0  0  0  0  0
   -0.3407   -6.8141   31.4369 C   0  0  0  0  0  0  0  0  0  0  0  0
    0.0705   -6.2618   32.6415 C   0  0  0  0  0  0  0  0  0  0  0  0
    0.9744   -5.2719   32.6292 F   0  0  0  0  0  0  0  0  0  0  0  0
    2.3576   -3.4167   36.0552 C   0  0  0  0  0  0  0  0  0  0  0  0
    3.1072   -3.4826   34.7468 C   0  0  0  0  0  0  0  0  0  0  0  0
    2.7605   -2.5923   37.1321 C   0  0  0  0  0  0  0  0  0  0  0  0
    4.2648   -1.4198   36.9461 Br  0  0  0  0  0  0  0  0  0  0  0  0
  1  2  1  0
  2  3  2  0
  3  4  1  0
  3  5  1  0
  5  6  2  0
  6  7  1  0
  7  8  1  0
  8  9  2  0
  8 10  1  0
 10 11  2  0
 11 12  1  0
 12 13  1  0
 12 14  2  0
 14 15  1  0
 15 16  2  0
 16 17  1  0
  6 18  1  0
 18 19  1  0
 18 20  2  0
 20 21  1  0
 20  2  1  0
 16 10  1  0
M  END
>  <ref_mols>  (408) 
7gov-a

>  <gnina_score>  (408) 
5.146

>  <smina_score_min>  (408) 
-5.565

>  <ref_pdb>  (408) 
7gov-a

>  <inspiration_score>  (408) 
None

>  <inchikey>  (408) 
OEYZWOWSIYYLOU-UHFFFAOYSA-N

>  <tags>  (408) 
BulkDock Fragalysis export,openbind_d68ev3c_c2_elabs_scored,openbind_d68ev3c_c2_elabs_scored_4.5plus,openbind_d68ev3c_c2_elabs,openbind_d68ev3c_c2_elabs_scored_5plus,syndirella_product,openbind_d68ev3c_c2_elabs_scored_top80percent,syndirella_placed

>  <smiles>  (408) 
Cc1c(F)cc(NC(=O)c2cc(Cl)ncc2F)c(C)c1Br

>  <subsites>  (408) 
None

>  <rmsd(smina/fragmenstein)>  (408) 
1.274

>  <alias>  (408) 
None

>  <energy_score>  (408) 
-18.076632

>  <HIPPO Pose ID>  (408) 
65473

>  <distance_score>  (408) 
0.804113

>  <HIPPO Compound ID>  (408) 
102713

>  <gnina_score_min>  (408) 
5.063

>  <name>  (408) 
P65473

>  <exports>  (408) 
['/opt/xchem-fragalysis-2/maxwin/BulkDock/OUTPUTS/openbind_d68ev3c_c2_elabs_1LOTQJ3.sdf', '/opt/xchem-fragalysis-2/maxwin/BulkDock/OUTPUTS/openbind_d68ev3c_c2_elabs_1LSYEHW.sdf', '/opt/xchem-fragalysis-2/maxwin/BulkDock/OUTPUTS/openbind_d68ev3c_c2_elabs_1LSYI5W.sdf']

$$$$
P65474
     RDKit          3D

 21 22  0  0  0  0  0  0  0  0999 V2000
    2.9962   -4.1099   34.6329 C   0  0  0  0  0  0  0  0  0  0  0  0
    2.1770   -3.9063   35.8842 C   0  0  0  0  0  0  0  0  0  0  0  0
    2.6036   -3.0240   36.9048 C   0  0  0  0  0  0  0  0  0  0  0  0
    3.8281   -2.2790   36.8095 C   0  0  0  0  0  0  0  0  0  0  0  0
    4.8077   -1.6587   36.7425 N   0  0  0  0  0  0  0  0  0  0  0  0
    1.8447   -2.8671   38.0712 C   0  0  0  0  0  0  0  0  0  0  0  0
    0.6702   -3.5832   38.2273 C   0  0  0  0  0  0  0  0  0  0  0  0
   -0.0406   -3.4431   39.3537 F   0  0  0  0  0  0  0  0  0  0  0  0
    0.2269   -4.4515   37.2422 C   0  0  0  0  0  0  0  0  0  0  0  0
    0.9816   -4.6323   36.0793 C   0  0  0  0  0  0  0  0  0  0  0  0
    0.5419   -5.5368   35.1101 N   0  0  0  0  0  0  0  0  0  0  0  0
   -0.7297   -6.4153   35.0595 C   0  0  0  0  0  0  0  0  0  0  0  0
   -1.5686   -6.5777   35.8542 O   0  0  0  0  0  0  0  0  0  0  0  0
   -0.9106   -7.0828   33.7399 C   0  0  0  0  0  0  0  0  0  0  0  0
   -0.4563   -6.5211   32.5436 C   0  0  0  0  0  0  0  0  0  0  0  0
   -0.7979   -7.1575   31.3649 C   0  0  0  0  0  0  0  0  0  0  0  0
   -0.3434   -6.4989   29.8530 Cl  0  0  0  0  0  0  0  0  0  0  0  0
   -1.5712   -8.2623   31.2847 N   0  0  0  0  0  0  0  0  0  0  0  0
   -1.9844   -8.7839   32.4608 C   0  0  0  0  0  0  0  0  0  0  0  0
   -1.6855   -8.2389   33.6909 C   0  0  0  0  0  0  0  0  0  0  0  0
   -2.1844   -8.8168   34.7880 F   0  0  0  0  0  0  0  0  0  0  0  0
  1  2  1  0
  2  3  2  0
  3  4  1  0
  4  5  3  0
  3  6  1  0
  6  7  2  0
  7  8  1  0
  7  9  1  0
  9 10  2  0
 10 11  1  0
 11 12  1  0
 12 13  2  0
 12 14  1  0
 14 15  2  0
 15 16  1  0
 16 17  1  0
 16 18  2  0
 18 19  1  0
 19 20  2  0
 20 21  1  0
 10  2  1  0
 20 14  1  0
M  END
>  <ref_mols>  (409) 
7gov-a

>  <gnina_score>  (409) 
5.11

>  <smina_score_min>  (409) 
-5.803

>  <ref_pdb>  (409) 
7gov-a

>  <inspiration_score>  (409) 
None

>  <inchikey>  (409) 
BEOQZOASWWAAOC-UHFFFAOYSA-N

>  <tags>  (409) 
BulkDock Fragalysis export,openbind_d68ev3c_c2_elabs_scored,openbind_d68ev3c_c2_elabs_scored_4.5plus,openbind_d68ev3c_c2_elabs,openbind_d68ev3c_c2_elabs_scored_5plus,syndirella_product,openbind_d68ev3c_c2_elabs_scored_top80percent,syndirella_placed

>  <smiles>  (409) 
Cc1c(C#N)cc(F)cc1NC(=O)c1cc(Cl)ncc1F

>  <subsites>  (409) 
None

>  <rmsd(smina/fragmenstein)>  (409) 
1.158

>  <alias>  (409) 
None

>  <energy_score>  (409) 
-9.431162

>  <HIPPO Pose ID>  (409) 
65474

>  <distance_score>  (409) 
0.768748

>  <HIPPO Compound ID>  (409) 
102714

>  <gnina_score_min>  (409) 
5.033

>  <name>  (409) 
P65474

>  <exports>  (409) 
['/opt/xchem-fragalysis-2/maxwin/BulkDock/OUTPUTS/openbind_d68ev3c_c2_elabs_1LOTQJ3.sdf', '/opt/xchem-fragalysis-2/maxwin/BulkDock/OUTPUTS/openbind_d68ev3c_c2_elabs_1LSYEHW.sdf', '/opt/xchem-fragalysis-2/maxwin/BulkDock/OUTPUTS/openbind_d68ev3c_c2_elabs_1LSYI5W.sdf']

$$$$
P65492
     RDKit          3D

 21 22  0  0  0  0  0  0  0  0999 V2000
    3.6566   -3.3541   33.7444 C   0  0  0  0  0  0  0  0  0  0  0  0
    3.0554   -3.3746   34.7837 C   0  0  0  0  0  0  0  0  0  0  0  0
    2.3400   -3.3962   36.0283 C   0  0  0  0  0  0  0  0  0  0  0  0
    2.7971   -2.6083   37.0875 C   0  0  0  0  0  0  0  0  0  0  0  0
    2.1292   -2.6401   38.3090 C   0  0  0  0  0  0  0  0  0  0  0  0
    2.5775   -1.8808   39.3194 F   0  0  0  0  0  0  0  0  0  0  0  0
    1.0063   -3.4387   38.4822 C   0  0  0  0  0  0  0  0  0  0  0  0
    0.3542   -3.4536   39.6530 F   0  0  0  0  0  0  0  0  0  0  0  0
    0.5397   -4.2238   37.4398 C   0  0  0  0  0  0  0  0  0  0  0  0
    1.2109   -4.2096   36.2132 C   0  0  0  0  0  0  0  0  0  0  0  0
    0.7350   -4.9931   35.1698 N   0  0  0  0  0  0  0  0  0  0  0  0
   -0.2604   -6.1633   35.1735 C   0  0  0  0  0  0  0  0  0  0  0  0
   -0.9001   -6.6093   36.0410 O   0  0  0  0  0  0  0  0  0  0  0  0
   -0.4870   -6.7347   33.8142 C   0  0  0  0  0  0  0  0  0  0  0  0
   -1.4119   -7.7696   33.7477 C   0  0  0  0  0  0  0  0  0  0  0  0
   -1.7856   -8.2066   32.5035 C   0  0  0  0  0  0  0  0  0  0  0  0
   -3.0674   -9.2864   32.3718 Cl  0  0  0  0  0  0  0  0  0  0  0  0
   -1.2987   -7.7697   31.3284 N   0  0  0  0  0  0  0  0  0  0  0  0
   -0.3454   -6.8189   31.4240 C   0  0  0  0  0  0  0  0  0  0  0  0
    0.0677   -6.2628   32.6262 C   0  0  0  0  0  0  0  0  0  0  0  0
    0.9665   -5.2693   32.6078 F   0  0  0  0  0  0  0  0  0  0  0  0
  1  2  3  0
  2  3  1  0
  3  4  2  0
  4  5  1  0
  5  6  1  0
  5  7  2  0
  7  8  1  0
  7  9  1  0
  9 10  2  0
 10 11  1  0
 11 12  1  0
 12 13  2  0
 12 14  1  0
 14 15  2  0
 15 16  1  0
 16 17  1  0
 16 18  2  0
 18 19  1  0
 19 20  2  0
 20 21  1  0
 10  3  1  0
 20 14  1  0
M  END
>  <ref_mols>  (410) 
7gov-a

>  <gnina_score>  (410) 
5.116

>  <smina_score_min>  (410) 
-5.656

>  <ref_pdb>  (410) 
7gov-a

>  <inspiration_score>  (410) 
None

>  <inchikey>  (410) 
KFCOQDVJZVMJQV-UHFFFAOYSA-N

>  <tags>  (410) 
BulkDock Fragalysis export,openbind_d68ev3c_c2_elabs_scored,openbind_d68ev3c_c2_elabs_scored_4.5plus,openbind_d68ev3c_c2_elabs,openbind_d68ev3c_c2_elabs_scored_5plus,syndirella_product,openbind_d68ev3c_c2_elabs_scored_top80percent,syndirella_placed

>  <smiles>  (410) 
C#Cc1cc(F)c(F)cc1NC(=O)c1cc(Cl)ncc1F

>  <subsites>  (410) 
None

>  <rmsd(smina/fragmenstein)>  (410) 
1.252

>  <alias>  (410) 
None

>  <energy_score>  (410) 
-14.391566

>  <HIPPO Pose ID>  (410) 
65492

>  <distance_score>  (410) 
0.810801

>  <HIPPO Compound ID>  (410) 
102750

>  <gnina_score_min>  (410) 
5.038

>  <name>  (410) 
P65492

>  <exports>  (410) 
['/opt/xchem-fragalysis-2/maxwin/BulkDock/OUTPUTS/openbind_d68ev3c_c2_elabs_1LOTQJ3.sdf', '/opt/xchem-fragalysis-2/maxwin/BulkDock/OUTPUTS/openbind_d68ev3c_c2_elabs_1LSYEHW.sdf', '/opt/xchem-fragalysis-2/maxwin/BulkDock/OUTPUTS/openbind_d68ev3c_c2_elabs_1LSYI5W.sdf']

$$$$
P65521
     RDKit          3D

 21 22  0  0  0  0  0  0  0  0999 V2000
   -0.2887   -7.4500   35.9637 O   0  0  0  0  0  0  0  0  0  0  0  0
   -0.1940   -6.7018   35.0768 C   0  0  0  0  0  0  0  0  0  0  0  0
    0.3772   -5.2724   35.0336 N   0  0  0  0  0  0  0  0  0  0  0  0
    0.8481   -4.4576   36.0553 C   0  0  0  0  0  0  0  0  0  0  0  0
    1.8669   -3.5331   35.7622 C   0  0  0  0  0  0  0  0  0  0  0  0
    2.5800   -3.5188   34.4322 C   0  0  0  0  0  0  0  0  0  0  0  0
    1.6581   -3.5774   33.3421 O   0  0  0  0  0  0  0  0  0  0  0  0
    2.3390   -2.7039   36.7972 C   0  0  0  0  0  0  0  0  0  0  0  0
    1.7901   -2.7748   38.0796 C   0  0  0  0  0  0  0  0  0  0  0  0
    0.7771   -3.6874   38.3428 C   0  0  0  0  0  0  0  0  0  0  0  0
    0.2390   -3.7315   39.5701 F   0  0  0  0  0  0  0  0  0  0  0  0
    0.3111   -4.5323   37.3457 C   0  0  0  0  0  0  0  0  0  0  0  0
   -0.7027   -5.3646   37.6270 F   0  0  0  0  0  0  0  0  0  0  0  0
   -0.7021   -7.1635   33.7478 C   0  0  0  0  0  0  0  0  0  0  0  0
   -0.0523   -6.7947   32.5619 C   0  0  0  0  0  0  0  0  0  0  0  0
   -0.5331   -7.2744   31.3555 C   0  0  0  0  0  0  0  0  0  0  0  0
   -1.5920   -8.0972   31.2521 N   0  0  0  0  0  0  0  0  0  0  0  0
   -2.1754   -8.4684   32.4158 C   0  0  0  0  0  0  0  0  0  0  0  0
   -3.2400   -9.2751   32.2945 F   0  0  0  0  0  0  0  0  0  0  0  0
   -1.7946   -8.0327   33.6742 C   0  0  0  0  0  0  0  0  0  0  0  0
   -2.7708   -8.5190   35.0092 Cl  0  0  0  0  0  0  0  0  0  0  0  0
  1  2  2  0
  2  3  1  0
  3  4  1  0
  4  5  2  0
  5  6  1  0
  6  7  1  0
  5  8  1  0
  8  9  2  0
  9 10  1  0
 10 11  1  0
 10 12  2  0
 12 13  1  0
  2 14  1  0
 14 15  2  0
 15 16  1  0
 16 17  2  0
 17 18  1  0
 18 19  1  0
 18 20  2  0
 20 21  1  0
 12  4  1  0
 20 14  1  0
M  END
>  <ref_mols>  (411) 
7gov-a

>  <gnina_score>  (411) 
5.043

>  <smina_score_min>  (411) 
-5.576

>  <ref_pdb>  (411) 
7gov-a

>  <inspiration_score>  (411) 
None

>  <inchikey>  (411) 
SLHRAVQBQLZOQN-UHFFFAOYSA-N

>  <tags>  (411) 
BulkDock Fragalysis export,openbind_d68ev3c_c2_elabs_scored,openbind_d68ev3c_c2_elabs_scored_4.5plus,openbind_d68ev3c_c2_elabs,openbind_d68ev3c_c2_elabs_scored_5plus,syndirella_product,openbind_d68ev3c_c2_elabs_scored_top80percent,syndirella_placed

>  <smiles>  (411) 
O=C(Nc1c(CO)ccc(F)c1F)c1ccnc(F)c1Cl

>  <subsites>  (411) 
None

>  <rmsd(smina/fragmenstein)>  (411) 
0.315

>  <alias>  (411) 
None

>  <energy_score>  (411) 
-9.770753

>  <HIPPO Pose ID>  (411) 
65521

>  <distance_score>  (411) 
0.524619

>  <HIPPO Compound ID>  (411) 
102796

>  <gnina_score_min>  (411) 
5.02

>  <name>  (411) 
P65521

>  <exports>  (411) 
['/opt/xchem-fragalysis-2/maxwin/BulkDock/OUTPUTS/openbind_d68ev3c_c2_elabs_1LOTQJ3.sdf', '/opt/xchem-fragalysis-2/maxwin/BulkDock/OUTPUTS/openbind_d68ev3c_c2_elabs_1LSYEHW.sdf', '/opt/xchem-fragalysis-2/maxwin/BulkDock/OUTPUTS/openbind_d68ev3c_c2_elabs_1LSYI5W.sdf']

$$$$
P65526
     RDKit          3D

 21 22  0  0  0  0  0  0  0  0999 V2000
    3.1257   -2.5665   33.9510 O   0  0  0  0  0  0  0  0  0  0  0  0
    2.7151   -3.5800   34.5003 C   0  0  0  0  0  0  0  0  0  0  0  0
    1.9956   -3.5574   35.7834 C   0  0  0  0  0  0  0  0  0  0  0  0
    2.4189   -2.6963   36.7972 C   0  0  0  0  0  0  0  0  0  0  0  0
    3.4208   -1.8284   36.5955 F   0  0  0  0  0  0  0  0  0  0  0  0
    1.8300   -2.7369   38.0565 C   0  0  0  0  0  0  0  0  0  0  0  0
    0.8228   -3.6588   38.3000 C   0  0  0  0  0  0  0  0  0  0  0  0
    0.2452   -3.7012   39.5076 F   0  0  0  0  0  0  0  0  0  0  0  0
    0.3923   -4.5325   37.3065 C   0  0  0  0  0  0  0  0  0  0  0  0
    0.9685   -4.4765   36.0336 C   0  0  0  0  0  0  0  0  0  0  0  0
    0.4761   -5.3147   35.0320 N   0  0  0  0  0  0  0  0  0  0  0  0
   -0.2591   -6.6678   35.1294 C   0  0  0  0  0  0  0  0  0  0  0  0
   -0.5001   -7.3303   36.0561 O   0  0  0  0  0  0  0  0  0  0  0  0
   -0.7333   -7.1712   33.7907 C   0  0  0  0  0  0  0  0  0  0  0  0
   -0.0649   -6.8245   32.6056 C   0  0  0  0  0  0  0  0  0  0  0  0
   -0.5322   -7.3105   31.3947 C   0  0  0  0  0  0  0  0  0  0  0  0
   -1.5940   -8.1258   31.2834 N   0  0  0  0  0  0  0  0  0  0  0  0
   -2.1908   -8.4890   32.4408 C   0  0  0  0  0  0  0  0  0  0  0  0
   -3.2583   -9.2902   32.3112 F   0  0  0  0  0  0  0  0  0  0  0  0
   -1.8250   -8.0446   33.7028 C   0  0  0  0  0  0  0  0  0  0  0  0
   -2.8258   -8.5355   35.0198 Cl  0  0  0  0  0  0  0  0  0  0  0  0
  1  2  2  0
  2  3  1  0
  3  4  2  0
  4  5  1  0
  4  6  1  0
  6  7  2  0
  7  8  1  0
  7  9  1  0
  9 10  2  0
 10 11  1  0
 11 12  1  0
 12 13  2  0
 12 14  1  0
 14 15  2  0
 15 16  1  0
 16 17  2  0
 17 18  1  0
 18 19  1  0
 18 20  2  0
 20 21  1  0
 10  3  1  0
 20 14  1  0
M  END
>  <ref_mols>  (412) 
7gov-a

>  <gnina_score>  (412) 
5.14

>  <smina_score_min>  (412) 
-5.968

>  <ref_pdb>  (412) 
7gov-a

>  <inspiration_score>  (412) 
None

>  <inchikey>  (412) 
POOWYZORJZYYFR-UHFFFAOYSA-N

>  <tags>  (412) 
BulkDock Fragalysis export,openbind_d68ev3c_c2_elabs_scored,openbind_d68ev3c_c2_elabs_scored_4.5plus,openbind_d68ev3c_c2_elabs,openbind_d68ev3c_c2_elabs_scored_5plus,syndirella_product,openbind_d68ev3c_c2_elabs_scored_top80percent,syndirella_placed

>  <smiles>  (412) 
O=Cc1c(F)cc(F)cc1NC(=O)c1ccnc(F)c1Cl

>  <subsites>  (412) 
None

>  <rmsd(smina/fragmenstein)>  (412) 
1.104

>  <alias>  (412) 
None

>  <energy_score>  (412) 
-0.582426

>  <HIPPO Pose ID>  (412) 
65526

>  <distance_score>  (412) 
0.567933

>  <HIPPO Compound ID>  (412) 
102805

>  <gnina_score_min>  (412) 
5.057

>  <name>  (412) 
P65526

>  <exports>  (412) 
['/opt/xchem-fragalysis-2/maxwin/BulkDock/OUTPUTS/openbind_d68ev3c_c2_elabs_1LOTQJ3.sdf', '/opt/xchem-fragalysis-2/maxwin/BulkDock/OUTPUTS/openbind_d68ev3c_c2_elabs_1LSYEHW.sdf', '/opt/xchem-fragalysis-2/maxwin/BulkDock/OUTPUTS/openbind_d68ev3c_c2_elabs_1LSYI5W.sdf']

$$$$
P65528
     RDKit          3D

 21 22  0  0  0  0  0  0  0  0999 V2000
    2.9552   -0.3451   36.0830 C   0  0  0  0  0  0  0  0  0  0  0  0
    3.4562   -1.6695   36.6403 C   0  0  0  0  0  0  0  0  0  0  0  0
    2.3362   -2.6706   36.8160 C   0  0  0  0  0  0  0  0  0  0  0  0
    1.7464   -2.7641   38.0895 C   0  0  0  0  0  0  0  0  0  0  0  0
    0.7440   -3.6898   38.3372 C   0  0  0  0  0  0  0  0  0  0  0  0
    0.1959   -3.7575   39.5579 F   0  0  0  0  0  0  0  0  0  0  0  0
    0.3003   -4.5393   37.3400 C   0  0  0  0  0  0  0  0  0  0  0  0
    0.8491   -4.4440   36.0605 C   0  0  0  0  0  0  0  0  0  0  0  0
    0.3803   -5.2977   35.0644 N   0  0  0  0  0  0  0  0  0  0  0  0
   -0.3382   -6.6599   35.1679 C   0  0  0  0  0  0  0  0  0  0  0  0
   -0.5811   -7.3162   36.0993 O   0  0  0  0  0  0  0  0  0  0  0  0
   -0.7784   -7.1826   33.8265 C   0  0  0  0  0  0  0  0  0  0  0  0
   -0.0882   -6.8374   32.6533 C   0  0  0  0  0  0  0  0  0  0  0  0
   -0.5316   -7.3260   31.4348 C   0  0  0  0  0  0  0  0  0  0  0  0
   -1.5894   -8.1439   31.3051 N   0  0  0  0  0  0  0  0  0  0  0  0
   -2.2022   -8.5100   32.4537 C   0  0  0  0  0  0  0  0  0  0  0  0
   -3.2651   -9.3143   32.3064 F   0  0  0  0  0  0  0  0  0  0  0  0
   -1.8599   -8.0647   33.7224 C   0  0  0  0  0  0  0  0  0  0  0  0
   -2.8765   -8.5641   35.0239 Cl  0  0  0  0  0  0  0  0  0  0  0  0
    1.8659   -3.5049   35.7719 C   0  0  0  0  0  0  0  0  0  0  0  0
    2.5233   -3.5157   34.4134 C   0  0  0  0  0  0  0  0  0  0  0  0
  1  2  1  0
  2  3  1  0
  3  4  2  0
  4  5  1  0
  5  6  1  0
  5  7  2  0
  7  8  1  0
  8  9  1  0
  9 10  1  0
 10 11  2  0
 10 12  1  0
 12 13  2  0
 13 14  1  0
 14 15  2  0
 15 16  1  0
 16 17  1  0
 16 18  2  0
 18 19  1  0
  8 20  2  0
 20 21  1  0
 20  3  1  0
 18 12  1  0
M  END
>  <ref_mols>  (413) 
7gov-a

>  <gnina_score>  (413) 
5.219

>  <smina_score_min>  (413) 
-5.93

>  <ref_pdb>  (413) 
7gov-a

>  <inspiration_score>  (413) 
None

>  <inchikey>  (413) 
VRYJXIUKBXAJPB-UHFFFAOYSA-N

>  <tags>  (413) 
BulkDock Fragalysis export,openbind_d68ev3c_c2_elabs_scored,openbind_d68ev3c_c2_elabs_scored_4.5plus,openbind_d68ev3c_c2_elabs,openbind_d68ev3c_c2_elabs_scored_5plus,syndirella_product,openbind_d68ev3c_c2_elabs_scored_top80percent,syndirella_placed

>  <smiles>  (413) 
CCc1cc(F)cc(NC(=O)c2ccnc(F)c2Cl)c1C

>  <subsites>  (413) 
None

>  <rmsd(smina/fragmenstein)>  (413) 
1.024

>  <alias>  (413) 
None

>  <energy_score>  (413) 
-18.44008

>  <HIPPO Pose ID>  (413) 
65528

>  <distance_score>  (413) 
0.599778

>  <HIPPO Compound ID>  (413) 
102807

>  <gnina_score_min>  (413) 
5.181

>  <name>  (413) 
P65528

>  <exports>  (413) 
['/opt/xchem-fragalysis-2/maxwin/BulkDock/OUTPUTS/openbind_d68ev3c_c2_elabs_1LOTQJ3.sdf', '/opt/xchem-fragalysis-2/maxwin/BulkDock/OUTPUTS/openbind_d68ev3c_c2_elabs_1LSYEHW.sdf', '/opt/xchem-fragalysis-2/maxwin/BulkDock/OUTPUTS/openbind_d68ev3c_c2_elabs_1LSYI5W.sdf']

$$$$
P65533
     RDKit          3D

 21 22  0  0  0  0  0  0  0  0999 V2000
    3.5368   -3.8831   33.6585 C   0  0  0  0  0  0  0  0  0  0  0  0
    2.8993   -3.8325   34.6750 C   0  0  0  0  0  0  0  0  0  0  0  0
    2.1407   -3.7725   35.8924 C   0  0  0  0  0  0  0  0  0  0  0  0
    2.5820   -2.9167   36.9073 C   0  0  0  0  0  0  0  0  0  0  0  0
    1.8806   -2.8516   38.1054 C   0  0  0  0  0  0  0  0  0  0  0  0
    2.3150   -2.0367   39.0775 F   0  0  0  0  0  0  0  0  0  0  0  0
    0.7368   -3.6158   38.2942 C   0  0  0  0  0  0  0  0  0  0  0  0
    0.0633   -3.5443   39.4511 F   0  0  0  0  0  0  0  0  0  0  0  0
    0.2756   -4.4592   37.2890 C   0  0  0  0  0  0  0  0  0  0  0  0
    0.9822   -4.5520   36.0857 C   0  0  0  0  0  0  0  0  0  0  0  0
    0.5330   -5.3969   35.0688 N   0  0  0  0  0  0  0  0  0  0  0  0
   -0.6713   -6.3582   35.0240 C   0  0  0  0  0  0  0  0  0  0  0  0
   -1.4346   -6.6545   35.8565 O   0  0  0  0  0  0  0  0  0  0  0  0
   -0.8654   -7.0094   33.6872 C   0  0  0  0  0  0  0  0  0  0  0  0
   -1.5448   -8.2399   33.7272 C   0  0  0  0  0  0  0  0  0  0  0  0
   -1.8952   -8.8513   32.5428 C   0  0  0  0  0  0  0  0  0  0  0  0
   -1.6005   -8.3486   31.3323 N   0  0  0  0  0  0  0  0  0  0  0  0
   -0.9068   -7.1851   31.3135 C   0  0  0  0  0  0  0  0  0  0  0  0
   -0.6577   -6.6794   30.0946 F   0  0  0  0  0  0  0  0  0  0  0  0
   -0.5383   -6.4621   32.4429 C   0  0  0  0  0  0  0  0  0  0  0  0
    0.1767   -4.9127   32.2002 Cl  0  0  0  0  0  0  0  0  0  0  0  0
  1  2  3  0
  2  3  1  0
  3  4  2  0
  4  5  1  0
  5  6  1  0
  5  7  2  0
  7  8  1  0
  7  9  1  0
  9 10  2  0
 10 11  1  0
 11 12  1  0
 12 13  2  0
 12 14  1  0
 14 15  2  0
 15 16  1  0
 16 17  2  0
 17 18  1  0
 18 19  1  0
 18 20  2  0
 20 21  1  0
 10  3  1  0
 20 14  1  0
M  END
>  <ref_mols>  (414) 
7gov-a

>  <gnina_score>  (414) 
5.074

>  <smina_score_min>  (414) 
-6.007

>  <ref_pdb>  (414) 
7gov-a

>  <inspiration_score>  (414) 
None

>  <inchikey>  (414) 
TYSZEEHRCKLIKQ-UHFFFAOYSA-N

>  <tags>  (414) 
BulkDock Fragalysis export,openbind_d68ev3c_c2_elabs_scored,openbind_d68ev3c_c2_elabs_scored_4.5plus,openbind_d68ev3c_c2_elabs,openbind_d68ev3c_c2_elabs_scored_5plus,syndirella_product,openbind_d68ev3c_c2_elabs_scored_top80percent,syndirella_placed

>  <smiles>  (414) 
C#Cc1cc(F)c(F)cc1NC(=O)c1ccnc(F)c1Cl

>  <subsites>  (414) 
None

>  <rmsd(smina/fragmenstein)>  (414) 
1.161

>  <alias>  (414) 
None

>  <energy_score>  (414) 
-16.384984

>  <HIPPO Pose ID>  (414) 
65533

>  <distance_score>  (414) 
0.727258

>  <HIPPO Compound ID>  (414) 
102818

>  <gnina_score_min>  (414) 
5.006

>  <name>  (414) 
P65533

>  <exports>  (414) 
['/opt/xchem-fragalysis-2/maxwin/BulkDock/OUTPUTS/openbind_d68ev3c_c2_elabs_1LOTQJ3.sdf', '/opt/xchem-fragalysis-2/maxwin/BulkDock/OUTPUTS/openbind_d68ev3c_c2_elabs_1LSYEHW.sdf', '/opt/xchem-fragalysis-2/maxwin/BulkDock/OUTPUTS/openbind_d68ev3c_c2_elabs_1LSYI5W.sdf']

$$$$
P65534
     RDKit          3D

 21 22  0  0  0  0  0  0  0  0999 V2000
    3.5583   -4.6243   34.2585 C   0  0  0  0  0  0  0  0  0  0  0  0
    2.5512   -3.4960   34.4268 C   0  0  0  0  0  0  0  0  0  0  0  0
    1.8675   -3.5416   35.7736 C   0  0  0  0  0  0  0  0  0  0  0  0
    2.3875   -2.7518   36.8165 C   0  0  0  0  0  0  0  0  0  0  0  0
    1.8564   -2.8333   38.1053 C   0  0  0  0  0  0  0  0  0  0  0  0
    2.5821   -1.7574   39.4810 Br  0  0  0  0  0  0  0  0  0  0  0  0
    0.8088   -3.7072   38.3676 C   0  0  0  0  0  0  0  0  0  0  0  0
    0.2666   -3.7853   39.5922 F   0  0  0  0  0  0  0  0  0  0  0  0
    0.2952   -4.5120   37.3591 C   0  0  0  0  0  0  0  0  0  0  0  0
    0.8147   -4.4264   36.0643 C   0  0  0  0  0  0  0  0  0  0  0  0
    0.2625   -5.2340   35.0770 N   0  0  0  0  0  0  0  0  0  0  0  0
   -0.3538   -6.6460   35.1659 C   0  0  0  0  0  0  0  0  0  0  0  0
   -0.5644   -7.3206   36.0919 O   0  0  0  0  0  0  0  0  0  0  0  0
   -0.7780   -7.1764   33.8239 C   0  0  0  0  0  0  0  0  0  0  0  0
   -0.0859   -6.8291   32.6531 C   0  0  0  0  0  0  0  0  0  0  0  0
   -0.5254   -7.3213   31.4345 C   0  0  0  0  0  0  0  0  0  0  0  0
   -1.5799   -8.1436   31.3033 N   0  0  0  0  0  0  0  0  0  0  0  0
   -2.1939   -8.5116   32.4507 C   0  0  0  0  0  0  0  0  0  0  0  0
   -3.2535   -9.3197   32.3020 F   0  0  0  0  0  0  0  0  0  0  0  0
   -1.8555   -8.0636   33.7190 C   0  0  0  0  0  0  0  0  0  0  0  0
   -2.8728   -8.5620   35.0205 Cl  0  0  0  0  0  0  0  0  0  0  0  0
  1  2  1  0
  2  3  1  0
  3  4  2  0
  4  5  1  0
  5  6  1  0
  5  7  2  0
  7  8  1  0
  7  9  1  0
  9 10  2  0
 10 11  1  0
 11 12  1  0
 12 13  2  0
 12 14  1  0
 14 15  2  0
 15 16  1  0
 16 17  2  0
 17 18  1  0
 18 19  1  0
 18 20  2  0
 20 21  1  0
 10  3  1  0
 20 14  1  0
M  END
>  <ref_mols>  (415) 
7gov-a

>  <gnina_score>  (415) 
5.236

>  <smina_score_min>  (415) 
-6.016

>  <ref_pdb>  (415) 
7gov-a

>  <inspiration_score>  (415) 
None

>  <inchikey>  (415) 
OSCMJCUBFARKCI-UHFFFAOYSA-N

>  <tags>  (415) 
BulkDock Fragalysis export,openbind_d68ev3c_c2_elabs_scored,openbind_d68ev3c_c2_elabs_scored_4.5plus,openbind_d68ev3c_c2_elabs,openbind_d68ev3c_c2_elabs_scored_5plus,syndirella_product,openbind_d68ev3c_c2_elabs_scored_top80percent,syndirella_placed

>  <smiles>  (415) 
CCc1cc(Br)c(F)cc1NC(=O)c1ccnc(F)c1Cl

>  <subsites>  (415) 
None

>  <rmsd(smina/fragmenstein)>  (415) 
0.967

>  <alias>  (415) 
None

>  <energy_score>  (415) 
-8.467879

>  <HIPPO Pose ID>  (415) 
65534

>  <distance_score>  (415) 
0.589097

>  <HIPPO Compound ID>  (415) 
102820

>  <gnina_score_min>  (415) 
5.182

>  <name>  (415) 
P65534

>  <exports>  (415) 
['/opt/xchem-fragalysis-2/maxwin/BulkDock/OUTPUTS/openbind_d68ev3c_c2_elabs_1LOTQJ3.sdf', '/opt/xchem-fragalysis-2/maxwin/BulkDock/OUTPUTS/openbind_d68ev3c_c2_elabs_1LSYEHW.sdf', '/opt/xchem-fragalysis-2/maxwin/BulkDock/OUTPUTS/openbind_d68ev3c_c2_elabs_1LSYI5W.sdf']

$$$$
P65542
     RDKit          3D

 21 22  0  0  0  0  0  0  0  0999 V2000
    3.0847   -0.4752   35.9674 C   0  0  0  0  0  0  0  0  0  0  0  0
    3.5284   -1.7629   36.6464 C   0  0  0  0  0  0  0  0  0  0  0  0
    2.3835   -2.7343   36.8272 C   0  0  0  0  0  0  0  0  0  0  0  0
    1.7571   -2.7672   38.0858 C   0  0  0  0  0  0  0  0  0  0  0  0
    0.7145   -3.6471   38.3332 C   0  0  0  0  0  0  0  0  0  0  0  0
    0.1357   -3.6595   39.5417 F   0  0  0  0  0  0  0  0  0  0  0  0
    0.2624   -4.5078   37.3493 C   0  0  0  0  0  0  0  0  0  0  0  0
    0.8576   -4.4865   36.0868 C   0  0  0  0  0  0  0  0  0  0  0  0
    0.3901   -5.3615   35.1061 N   0  0  0  0  0  0  0  0  0  0  0  0
   -0.4792   -6.6305   35.2271 C   0  0  0  0  0  0  0  0  0  0  0  0
   -0.8763   -7.1864   36.1713 O   0  0  0  0  0  0  0  0  0  0  0  0
   -0.8512   -7.2082   33.8760 C   0  0  0  0  0  0  0  0  0  0  0  0
   -0.1653   -6.8823   32.6952 C   0  0  0  0  0  0  0  0  0  0  0  0
    0.9578   -6.1001   32.6884 O   0  0  0  0  0  0  0  0  0  0  0  0
   -0.5892   -7.3961   31.4747 C   0  0  0  0  0  0  0  0  0  0  0  0
   -1.6187   -8.2559   31.3444 N   0  0  0  0  0  0  0  0  0  0  0  0
   -2.2319   -8.6117   32.4954 C   0  0  0  0  0  0  0  0  0  0  0  0
   -1.9120   -8.1209   33.7580 C   0  0  0  0  0  0  0  0  0  0  0  0
   -2.9587   -8.6432   35.0271 Cl  0  0  0  0  0  0  0  0  0  0  0  0
    1.9219   -3.5975   35.8023 C   0  0  0  0  0  0  0  0  0  0  0  0
    2.5847   -3.6480   34.4479 C   0  0  0  0  0  0  0  0  0  0  0  0
  1  2  1  0
  2  3  1  0
  3  4  2  0
  4  5  1  0
  5  6  1  0
  5  7  2  0
  7  8  1  0
  8  9  1  0
  9 10  1  0
 10 11  2  0
 10 12  1  0
 12 13  2  0
 13 14  1  0
 13 15  1  0
 15 16  2  0
 16 17  1  0
 17 18  2  0
 18 19  1  0
  8 20  2  0
 20 21  1  0
 20  3  1  0
 18 12  1  0
M  END
>  <ref_mols>  (416) 
7gov-a

>  <gnina_score>  (416) 
5.094

>  <smina_score_min>  (416) 
-5.99

>  <ref_pdb>  (416) 
7gov-a

>  <inspiration_score>  (416) 
None

>  <inchikey>  (416) 
CGZLLWRRFBQCAN-UHFFFAOYSA-N

>  <tags>  (416) 
BulkDock Fragalysis export,openbind_d68ev3c_c2_elabs_scored,openbind_d68ev3c_c2_elabs_scored_4.5plus,openbind_d68ev3c_c2_elabs,openbind_d68ev3c_c2_elabs_scored_5plus,syndirella_product,openbind_d68ev3c_c2_elabs_scored_top80percent,syndirella_placed

>  <smiles>  (416) 
CCc1cc(F)cc(NC(=O)c2c(O)cncc2Cl)c1C

>  <subsites>  (416) 
None

>  <rmsd(smina/fragmenstein)>  (416) 
1.092

>  <alias>  (416) 
None

>  <energy_score>  (416) 
-15.305452

>  <HIPPO Pose ID>  (416) 
65542

>  <distance_score>  (416) 
0.650873

>  <HIPPO Compound ID>  (416) 
102839

>  <gnina_score_min>  (416) 
5.104

>  <name>  (416) 
P65542

>  <exports>  (416) 
['/opt/xchem-fragalysis-2/maxwin/BulkDock/OUTPUTS/openbind_d68ev3c_c2_elabs_1LOTQJ3.sdf', '/opt/xchem-fragalysis-2/maxwin/BulkDock/OUTPUTS/openbind_d68ev3c_c2_elabs_1LSYEHW.sdf', '/opt/xchem-fragalysis-2/maxwin/BulkDock/OUTPUTS/openbind_d68ev3c_c2_elabs_1LSYI5W.sdf']

$$$$
P65547
     RDKit          3D

 21 22  0  0  0  0  0  0  0  0999 V2000
    1.9802   -2.9525   33.3770 C   0  0  0  0  0  0  0  0  0  0  0  0
    2.7838   -3.4866   34.5642 C   0  0  0  0  0  0  0  0  0  0  0  0
    3.5625   -4.7657   34.2592 C   0  0  0  0  0  0  0  0  0  0  0  0
    1.9659   -3.5793   35.8454 C   0  0  0  0  0  0  0  0  0  0  0  0
    2.3472   -2.7077   36.8922 C   0  0  0  0  0  0  0  0  0  0  0  0
    1.7165   -2.7375   38.1339 C   0  0  0  0  0  0  0  0  0  0  0  0
    0.6916   -3.6396   38.3471 C   0  0  0  0  0  0  0  0  0  0  0  0
    0.0794   -3.6724   39.5385 F   0  0  0  0  0  0  0  0  0  0  0  0
    0.2879   -4.5080   37.3430 C   0  0  0  0  0  0  0  0  0  0  0  0
    0.9162   -4.4921   36.0892 C   0  0  0  0  0  0  0  0  0  0  0  0
    0.4701   -5.3947   35.1173 N   0  0  0  0  0  0  0  0  0  0  0  0
   -0.5198   -6.5783   35.2246 C   0  0  0  0  0  0  0  0  0  0  0  0
   -1.0572   -7.0316   36.1552 O   0  0  0  0  0  0  0  0  0  0  0  0
   -0.8671   -7.1955   33.8769 C   0  0  0  0  0  0  0  0  0  0  0  0
   -0.1839   -6.8879   32.6906 C   0  0  0  0  0  0  0  0  0  0  0  0
    0.9383   -6.1108   32.6640 O   0  0  0  0  0  0  0  0  0  0  0  0
   -0.6033   -7.4182   31.4743 C   0  0  0  0  0  0  0  0  0  0  0  0
   -1.6272   -8.2828   31.3499 N   0  0  0  0  0  0  0  0  0  0  0  0
   -2.2371   -8.6287   32.5040 C   0  0  0  0  0  0  0  0  0  0  0  0
   -1.9208   -8.1215   33.7627 C   0  0  0  0  0  0  0  0  0  0  0  0
   -2.9644   -8.6621   35.0286 Cl  0  0  0  0  0  0  0  0  0  0  0  0
  1  2  1  0
  2  3  1  0
  2  4  1  0
  4  5  2  0
  5  6  1  0
  6  7  2  0
  7  8  1  0
  7  9  1  0
  9 10  2  0
 10 11  1  0
 11 12  1  0
 12 13  2  0
 12 14  1  0
 14 15  2  0
 15 16  1  0
 15 17  1  0
 17 18  2  0
 18 19  1  0
 19 20  2  0
 20 21  1  0
 10  4  1  0
 20 14  1  0
M  END
>  <ref_mols>  (417) 
7gov-a

>  <gnina_score>  (417) 
5.072

>  <smina_score_min>  (417) 
-5.97

>  <ref_pdb>  (417) 
7gov-a

>  <inspiration_score>  (417) 
None

>  <inchikey>  (417) 
CHEWVEYWUIKGBO-UHFFFAOYSA-N

>  <tags>  (417) 
BulkDock Fragalysis export,openbind_d68ev3c_c2_elabs_scored,openbind_d68ev3c_c2_elabs_scored_4.5plus,openbind_d68ev3c_c2_elabs,openbind_d68ev3c_c2_elabs_scored_5plus,syndirella_product,openbind_d68ev3c_c2_elabs_scored_top80percent,syndirella_placed

>  <smiles>  (417) 
CC(C)c1ccc(F)cc1NC(=O)c1c(O)cncc1Cl

>  <subsites>  (417) 
None

>  <rmsd(smina/fragmenstein)>  (417) 
1.025

>  <alias>  (417) 
None

>  <energy_score>  (417) 
-21.183994

>  <HIPPO Pose ID>  (417) 
65547

>  <distance_score>  (417) 
0.698061

>  <HIPPO Compound ID>  (417) 
102847

>  <gnina_score_min>  (417) 
5.052

>  <name>  (417) 
P65547

>  <exports>  (417) 
['/opt/xchem-fragalysis-2/maxwin/BulkDock/OUTPUTS/openbind_d68ev3c_c2_elabs_1LOTQJ3.sdf', '/opt/xchem-fragalysis-2/maxwin/BulkDock/OUTPUTS/openbind_d68ev3c_c2_elabs_1LSYEHW.sdf', '/opt/xchem-fragalysis-2/maxwin/BulkDock/OUTPUTS/openbind_d68ev3c_c2_elabs_1LSYI5W.sdf']

$$$$
P65569
     RDKit          3D

 21 22  0  0  0  0  0  0  0  0999 V2000
    2.7624   -4.5732   33.7470 O   0  0  0  0  0  0  0  0  0  0  0  0
    2.9935   -3.8310   34.6912 C   0  0  0  0  0  0  0  0  0  0  0  0
    2.1447   -3.7481   35.9005 C   0  0  0  0  0  0  0  0  0  0  0  0
    2.6050   -2.9047   36.9228 C   0  0  0  0  0  0  0  0  0  0  0  0
    1.9130   -2.8399   38.1261 C   0  0  0  0  0  0  0  0  0  0  0  0
    2.3685   -2.0396   39.1002 F   0  0  0  0  0  0  0  0  0  0  0  0
    0.7663   -3.5945   38.3187 C   0  0  0  0  0  0  0  0  0  0  0  0
    0.1022   -3.5276   39.4806 F   0  0  0  0  0  0  0  0  0  0  0  0
    0.2912   -4.4193   37.3056 C   0  0  0  0  0  0  0  0  0  0  0  0
    0.9745   -4.5051   36.0832 C   0  0  0  0  0  0  0  0  0  0  0  0
    0.4449   -5.3293   35.0878 N   0  0  0  0  0  0  0  0  0  0  0  0
   -0.5773   -6.4868   35.1804 C   0  0  0  0  0  0  0  0  0  0  0  0
   -1.1925   -6.8802   36.0900 O   0  0  0  0  0  0  0  0  0  0  0  0
   -0.8734   -7.1617   33.8458 C   0  0  0  0  0  0  0  0  0  0  0  0
   -0.1928   -6.8614   32.6580 C   0  0  0  0  0  0  0  0  0  0  0  0
    0.8809   -6.0274   32.6107 O   0  0  0  0  0  0  0  0  0  0  0  0
   -0.5924   -7.4257   31.4502 C   0  0  0  0  0  0  0  0  0  0  0  0
   -1.5950   -8.3166   31.3345 N   0  0  0  0  0  0  0  0  0  0  0  0
   -2.2002   -8.6576   32.4910 C   0  0  0  0  0  0  0  0  0  0  0  0
   -1.9014   -8.1208   33.7416 C   0  0  0  0  0  0  0  0  0  0  0  0
   -2.9368   -8.6769   35.0097 Cl  0  0  0  0  0  0  0  0  0  0  0  0
  1  2  2  0
  2  3  1  0
  3  4  2  0
  4  5  1  0
  5  6  1  0
  5  7  2  0
  7  8  1  0
  7  9  1  0
  9 10  2  0
 10 11  1  0
 11 12  1  0
 12 13  2  0
 12 14  1  0
 14 15  2  0
 15 16  1  0
 15 17  1  0
 17 18  2  0
 18 19  1  0
 19 20  2  0
 20 21  1  0
 10  3  1  0
 20 14  1  0
M  END
>  <ref_mols>  (418) 
7gov-a

>  <gnina_score>  (418) 
4.963

>  <smina_score_min>  (418) 
-6.349

>  <ref_pdb>  (418) 
7gov-a

>  <inspiration_score>  (418) 
None

>  <inchikey>  (418) 
XFRALXWWUURITG-UHFFFAOYSA-N

>  <tags>  (418) 
BulkDock Fragalysis export,openbind_d68ev3c_c2_elabs_scored,openbind_d68ev3c_c2_elabs_scored_4.5plus,openbind_d68ev3c_c2_elabs,openbind_d68ev3c_c2_elabs_scored_5plus,syndirella_product,openbind_d68ev3c_c2_elabs_scored_top80percent,syndirella_placed

>  <smiles>  (418) 
O=Cc1cc(F)c(F)cc1NC(=O)c1c(O)cncc1Cl

>  <subsites>  (418) 
None

>  <rmsd(smina/fragmenstein)>  (418) 
1.213

>  <alias>  (418) 
None

>  <energy_score>  (418) 
-7.920533

>  <HIPPO Pose ID>  (418) 
65569

>  <distance_score>  (418) 
0.697078

>  <HIPPO Compound ID>  (418) 
102884

>  <gnina_score_min>  (418) 
5.009

>  <name>  (418) 
P65569

>  <exports>  (418) 
['/opt/xchem-fragalysis-2/maxwin/BulkDock/OUTPUTS/openbind_d68ev3c_c2_elabs_1LOTQJ3.sdf', '/opt/xchem-fragalysis-2/maxwin/BulkDock/OUTPUTS/openbind_d68ev3c_c2_elabs_1LSYEHW.sdf', '/opt/xchem-fragalysis-2/maxwin/BulkDock/OUTPUTS/openbind_d68ev3c_c2_elabs_1LSYI5W.sdf']

$$$$
P65571
     RDKit          3D

 21 22  0  0  0  0  0  0  0  0999 V2000
    3.6594   -4.7224   34.3604 C   0  0  0  0  0  0  0  0  0  0  0  0
    2.6304   -3.6066   34.4666 C   0  0  0  0  0  0  0  0  0  0  0  0
    1.9181   -3.6203   35.7992 C   0  0  0  0  0  0  0  0  0  0  0  0
    2.4313   -2.8130   36.8333 C   0  0  0  0  0  0  0  0  0  0  0  0
    1.8654   -2.8419   38.1085 C   0  0  0  0  0  0  0  0  0  0  0  0
    2.5899   -1.7529   39.4743 Br  0  0  0  0  0  0  0  0  0  0  0  0
    0.7830   -3.6731   38.3639 C   0  0  0  0  0  0  0  0  0  0  0  0
    0.2107   -3.7051   39.5770 F   0  0  0  0  0  0  0  0  0  0  0  0
    0.2684   -4.4868   37.3624 C   0  0  0  0  0  0  0  0  0  0  0  0
    0.8318   -4.4689   36.0822 C   0  0  0  0  0  0  0  0  0  0  0  0
    0.2917   -5.3005   35.1035 N   0  0  0  0  0  0  0  0  0  0  0  0
   -0.5350   -6.5972   35.2346 C   0  0  0  0  0  0  0  0  0  0  0  0
   -0.9584   -7.1302   36.1805 O   0  0  0  0  0  0  0  0  0  0  0  0
   -0.8762   -7.2040   33.8876 C   0  0  0  0  0  0  0  0  0  0  0  0
   -0.1769   -6.8856   32.7132 C   0  0  0  0  0  0  0  0  0  0  0  0
    0.9433   -6.1002   32.7173 O   0  0  0  0  0  0  0  0  0  0  0  0
   -0.5842   -7.4094   31.4912 C   0  0  0  0  0  0  0  0  0  0  0  0
   -1.6083   -8.2745   31.3549 N   0  0  0  0  0  0  0  0  0  0  0  0
   -2.2302   -8.6286   32.5016 C   0  0  0  0  0  0  0  0  0  0  0  0
   -1.9265   -8.1283   33.7647 C   0  0  0  0  0  0  0  0  0  0  0  0
   -2.9793   -8.6558   35.0268 Cl  0  0  0  0  0  0  0  0  0  0  0  0
  1  2  1  0
  2  3  1  0
  3  4  2  0
  4  5  1  0
  5  6  1  0
  5  7  2  0
  7  8  1  0
  7  9  1  0
  9 10  2  0
 10 11  1  0
 11 12  1  0
 12 13  2  0
 12 14  1  0
 14 15  2  0
 15 16  1  0
 15 17  1  0
 17 18  2  0
 18 19  1  0
 19 20  2  0
 20 21  1  0
 10  3  1  0
 20 14  1  0
M  END
>  <ref_mols>  (419) 
7gov-a

>  <gnina_score>  (419) 
5.162

>  <smina_score_min>  (419) 
-6.03

>  <ref_pdb>  (419) 
7gov-a

>  <inspiration_score>  (419) 
None

>  <inchikey>  (419) 
MDBOPLBPBLVKAS-UHFFFAOYSA-N

>  <tags>  (419) 
BulkDock Fragalysis export,openbind_d68ev3c_c2_elabs_scored,openbind_d68ev3c_c2_elabs_scored_4.5plus,openbind_d68ev3c_c2_elabs,openbind_d68ev3c_c2_elabs_scored_5plus,syndirella_product,openbind_d68ev3c_c2_elabs_scored_top80percent,syndirella_placed

>  <smiles>  (419) 
CCc1cc(Br)c(F)cc1NC(=O)c1c(O)cncc1Cl

>  <subsites>  (419) 
None

>  <rmsd(smina/fragmenstein)>  (419) 
1.024

>  <alias>  (419) 
None

>  <energy_score>  (419) 
-29.54447

>  <HIPPO Pose ID>  (419) 
65571

>  <distance_score>  (419) 
0.666601

>  <HIPPO Compound ID>  (419) 
102888

>  <gnina_score_min>  (419) 
5.124

>  <name>  (419) 
P65571

>  <exports>  (419) 
['/opt/xchem-fragalysis-2/maxwin/BulkDock/OUTPUTS/openbind_d68ev3c_c2_elabs_1LOTQJ3.sdf', '/opt/xchem-fragalysis-2/maxwin/BulkDock/OUTPUTS/openbind_d68ev3c_c2_elabs_1LSYEHW.sdf', '/opt/xchem-fragalysis-2/maxwin/BulkDock/OUTPUTS/openbind_d68ev3c_c2_elabs_1LSYI5W.sdf']

$$$$
P65573
     RDKit          3D

 21 22  0  0  0  0  0  0  0  0999 V2000
    3.1001   -3.5673   33.4196 C   0  0  0  0  0  0  0  0  0  0  0  0
    2.5717   -3.6002   34.4975 C   0  0  0  0  0  0  0  0  0  0  0  0
    1.9442   -3.6237   35.7880 C   0  0  0  0  0  0  0  0  0  0  0  0
    2.4650   -2.8019   36.7942 C   0  0  0  0  0  0  0  0  0  0  0  0
    1.9030   -2.8265   38.0664 C   0  0  0  0  0  0  0  0  0  0  0  0
    2.4040   -2.0282   39.0203 F   0  0  0  0  0  0  0  0  0  0  0  0
    0.8280   -3.6591   38.3456 C   0  0  0  0  0  0  0  0  0  0  0  0
    0.2752   -3.6631   39.5668 F   0  0  0  0  0  0  0  0  0  0  0  0
    0.3058   -4.4873   37.3601 C   0  0  0  0  0  0  0  0  0  0  0  0
    0.8609   -4.4743   36.0757 C   0  0  0  0  0  0  0  0  0  0  0  0
    0.3155   -5.3029   35.0953 N   0  0  0  0  0  0  0  0  0  0  0  0
   -0.5240   -6.5908   35.2254 C   0  0  0  0  0  0  0  0  0  0  0  0
   -0.9557   -7.1182   36.1705 O   0  0  0  0  0  0  0  0  0  0  0  0
   -0.8673   -7.1995   33.8794 C   0  0  0  0  0  0  0  0  0  0  0  0
   -0.1710   -6.8822   32.7033 C   0  0  0  0  0  0  0  0  0  0  0  0
    0.9466   -6.0942   32.7027 O   0  0  0  0  0  0  0  0  0  0  0  0
   -0.5816   -7.4063   31.4826 C   0  0  0  0  0  0  0  0  0  0  0  0
   -1.6060   -8.2716   31.3489 N   0  0  0  0  0  0  0  0  0  0  0  0
   -2.2250   -8.6251   32.4972 C   0  0  0  0  0  0  0  0  0  0  0  0
   -1.9183   -8.1239   33.7591 C   0  0  0  0  0  0  0  0  0  0  0  0
   -2.9687   -8.6519   35.0234 Cl  0  0  0  0  0  0  0  0  0  0  0  0
  1  2  3  0
  2  3  1  0
  3  4  2  0
  4  5  1  0
  5  6  1  0
  5  7  2  0
  7  8  1  0
  7  9  1  0
  9 10  2  0
 10 11  1  0
 11 12  1  0
 12 13  2  0
 12 14  1  0
 14 15  2  0
 15 16  1  0
 15 17  1  0
 17 18  2  0
 18 19  1  0
 19 20  2  0
 20 21  1  0
 10  3  1  0
 20 14  1  0
M  END
>  <ref_mols>  (420) 
7gov-a

>  <gnina_score>  (420) 
5.127

>  <smina_score_min>  (420) 
-6.131

>  <ref_pdb>  (420) 
7gov-a

>  <inspiration_score>  (420) 
None

>  <inchikey>  (420) 
UFMZXFMJBXXKEZ-UHFFFAOYSA-N

>  <tags>  (420) 
BulkDock Fragalysis export,openbind_d68ev3c_c2_elabs_scored,openbind_d68ev3c_c2_elabs_scored_4.5plus,openbind_d68ev3c_c2_elabs,openbind_d68ev3c_c2_elabs_scored_5plus,syndirella_product,openbind_d68ev3c_c2_elabs_scored_top80percent,syndirella_placed

>  <smiles>  (420) 
C#Cc1cc(F)c(F)cc1NC(=O)c1c(O)cncc1Cl

>  <subsites>  (420) 
None

>  <rmsd(smina/fragmenstein)>  (420) 
1.125

>  <alias>  (420) 
None

>  <energy_score>  (420) 
-24.472152

>  <HIPPO Pose ID>  (420) 
65573

>  <distance_score>  (420) 
0.667367

>  <HIPPO Compound ID>  (420) 
102890

>  <gnina_score_min>  (420) 
5.137

>  <name>  (420) 
P65573

>  <exports>  (420) 
['/opt/xchem-fragalysis-2/maxwin/BulkDock/OUTPUTS/openbind_d68ev3c_c2_elabs_1LOTQJ3.sdf', '/opt/xchem-fragalysis-2/maxwin/BulkDock/OUTPUTS/openbind_d68ev3c_c2_elabs_1LSYEHW.sdf', '/opt/xchem-fragalysis-2/maxwin/BulkDock/OUTPUTS/openbind_d68ev3c_c2_elabs_1LSYI5W.sdf']

$$$$
P65575
     RDKit          3D

 21 22  0  0  0  0  0  0  0  0999 V2000
    3.5602   -2.8083   34.2339 O   0  0  0  0  0  0  0  0  0  0  0  0
    2.8160   -3.7190   34.5807 C   0  0  0  0  0  0  0  0  0  0  0  0
    2.0476   -3.6692   35.8427 C   0  0  0  0  0  0  0  0  0  0  0  0
    2.4873   -2.7788   36.8343 C   0  0  0  0  0  0  0  0  0  0  0  0
    1.8637   -2.7647   38.0796 C   0  0  0  0  0  0  0  0  0  0  0  0
    2.4255   -1.6854   39.2978 Cl  0  0  0  0  0  0  0  0  0  0  0  0
    0.7979   -3.6232   38.3286 C   0  0  0  0  0  0  0  0  0  0  0  0
    0.1774   -3.6183   39.5179 F   0  0  0  0  0  0  0  0  0  0  0  0
    0.3480   -4.5008   37.3458 C   0  0  0  0  0  0  0  0  0  0  0  0
    0.9675   -4.5339   36.0910 C   0  0  0  0  0  0  0  0  0  0  0  0
    0.4828   -5.4161   35.1200 N   0  0  0  0  0  0  0  0  0  0  0  0
   -0.5147   -6.5888   35.2388 C   0  0  0  0  0  0  0  0  0  0  0  0
   -1.0283   -7.0504   36.1772 O   0  0  0  0  0  0  0  0  0  0  0  0
   -0.8693   -7.1939   33.8880 C   0  0  0  0  0  0  0  0  0  0  0  0
   -0.1760   -6.8815   32.7069 C   0  0  0  0  0  0  0  0  0  0  0  0
    0.9490   -6.1016   32.7015 O   0  0  0  0  0  0  0  0  0  0  0  0
   -0.5891   -7.4076   31.4869 C   0  0  0  0  0  0  0  0  0  0  0  0
   -1.6150   -8.2698   31.3568 N   0  0  0  0  0  0  0  0  0  0  0  0
   -2.2329   -8.6194   32.5064 C   0  0  0  0  0  0  0  0  0  0  0  0
   -1.9229   -8.1170   33.7679 C   0  0  0  0  0  0  0  0  0  0  0  0
   -2.9673   -8.6559   35.0322 Cl  0  0  0  0  0  0  0  0  0  0  0  0
  1  2  2  0
  2  3  1  0
  3  4  2  0
  4  5  1  0
  5  6  1  0
  5  7  2  0
  7  8  1  0
  7  9  1  0
  9 10  2  0
 10 11  1  0
 11 12  1  0
 12 13  2  0
 12 14  1  0
 14 15  2  0
 15 16  1  0
 15 17  1  0
 17 18  2  0
 18 19  1  0
 19 20  2  0
 20 21  1  0
 10  3  1  0
 20 14  1  0
M  END
>  <ref_mols>  (421) 
7gov-a

>  <gnina_score>  (421) 
5.062

>  <smina_score_min>  (421) 
-6.156

>  <ref_pdb>  (421) 
7gov-a

>  <inspiration_score>  (421) 
None

>  <inchikey>  (421) 
XQDOCWWWCZUBBF-UHFFFAOYSA-N

>  <tags>  (421) 
BulkDock Fragalysis export,openbind_d68ev3c_c2_elabs_scored,openbind_d68ev3c_c2_elabs_scored_4.5plus,openbind_d68ev3c_c2_elabs,openbind_d68ev3c_c2_elabs_scored_5plus,syndirella_product,openbind_d68ev3c_c2_elabs_scored_top80percent,syndirella_placed

>  <smiles>  (421) 
O=Cc1cc(Cl)c(F)cc1NC(=O)c1c(O)cncc1Cl

>  <subsites>  (421) 
None

>  <rmsd(smina/fragmenstein)>  (421) 
1.187

>  <alias>  (421) 
None

>  <energy_score>  (421) 
-33.936426

>  <HIPPO Pose ID>  (421) 
65575

>  <distance_score>  (421) 
0.682788

>  <HIPPO Compound ID>  (421) 
102892

>  <gnina_score_min>  (421) 
5.017

>  <name>  (421) 
P65575

>  <exports>  (421) 
['/opt/xchem-fragalysis-2/maxwin/BulkDock/OUTPUTS/openbind_d68ev3c_c2_elabs_1LOTQJ3.sdf', '/opt/xchem-fragalysis-2/maxwin/BulkDock/OUTPUTS/openbind_d68ev3c_c2_elabs_1LSYEHW.sdf', '/opt/xchem-fragalysis-2/maxwin/BulkDock/OUTPUTS/openbind_d68ev3c_c2_elabs_1LSYI5W.sdf']

$$$$
P65582
     RDKit          3D

 21 22  0  0  0  0  0  0  0  0999 V2000
   -0.5561   -7.3982   36.0774 O   0  0  0  0  0  0  0  0  0  0  0  0
   -0.3604   -6.7239   35.1461 C   0  0  0  0  0  0  0  0  0  0  0  0
    0.2430   -5.3048   35.0466 N   0  0  0  0  0  0  0  0  0  0  0  0
    0.7986   -4.4876   36.0276 C   0  0  0  0  0  0  0  0  0  0  0  0
    0.2814   -4.5671   37.3248 C   0  0  0  0  0  0  0  0  0  0  0  0
    0.7753   -3.7339   38.3194 C   0  0  0  0  0  0  0  0  0  0  0  0
    0.2508   -3.7915   39.5507 F   0  0  0  0  0  0  0  0  0  0  0  0
    1.7966   -2.8345   38.0528 C   0  0  0  0  0  0  0  0  0  0  0  0
    2.3300   -2.7658   36.7654 C   0  0  0  0  0  0  0  0  0  0  0  0
    1.8295   -3.5823   35.7308 C   0  0  0  0  0  0  0  0  0  0  0  0
    2.4915   -3.5296   34.3799 C   0  0  0  0  0  0  0  0  0  0  0  0
    3.5904   -4.3247   34.2830 F   0  0  0  0  0  0  0  0  0  0  0  0
    1.6675   -3.9138   33.3565 F   0  0  0  0  0  0  0  0  0  0  0  0
    2.9115   -2.2754   34.0431 F   0  0  0  0  0  0  0  0  0  0  0  0
   -0.8065   -7.2575   33.8086 C   0  0  0  0  0  0  0  0  0  0  0  0
   -0.1347   -6.9046   32.6281 C   0  0  0  0  0  0  0  0  0  0  0  0
   -0.5903   -7.3986   31.4169 C   0  0  0  0  0  0  0  0  0  0  0  0
   -1.6413   -8.2309   31.3007 N   0  0  0  0  0  0  0  0  0  0  0  0
   -2.2398   -8.6010   32.4559 C   0  0  0  0  0  0  0  0  0  0  0  0
   -1.8861   -8.1524   33.7237 C   0  0  0  0  0  0  0  0  0  0  0  0
   -2.9444   -8.6984   35.0484 S   0  0  0  0  0  0  0  0  0  0  0  0
  1  2  2  0
  2  3  1  0
  3  4  1  0
  4  5  2  0
  5  6  1  0
  6  7  1  0
  6  8  2  0
  8  9  1  0
  9 10  2  0
 10 11  1  0
 11 12  1  0
 11 13  1  0
 11 14  1  0
  2 15  1  0
 15 16  2  0
 16 17  1  0
 17 18  2  0
 18 19  1  0
 19 20  2  0
 20 21  1  0
 10  4  1  0
 20 15  1  0
M  END
>  <ref_mols>  (422) 
7gov-a

>  <gnina_score>  (422) 
5.129

>  <smina_score_min>  (422) 
-5.644

>  <ref_pdb>  (422) 
7gov-a

>  <inspiration_score>  (422) 
None

>  <inchikey>  (422) 
GIPNGQICISZDCZ-UHFFFAOYSA-N

>  <tags>  (422) 
BulkDock Fragalysis export,openbind_d68ev3c_c2_elabs_scored,openbind_d68ev3c_c2_elabs_scored_4.5plus,openbind_d68ev3c_c2_elabs,openbind_d68ev3c_c2_elabs_scored_5plus,syndirella_product,openbind_d68ev3c_c2_elabs_scored_top80percent,syndirella_placed

>  <smiles>  (422) 
O=C(Nc1cc(F)ccc1C(F)(F)F)c1ccncc1S

>  <subsites>  (422) 
None

>  <rmsd(smina/fragmenstein)>  (422) 
1.07

>  <alias>  (422) 
None

>  <energy_score>  (422) 
-20.26833

>  <HIPPO Pose ID>  (422) 
65582

>  <distance_score>  (422) 
0.581713

>  <HIPPO Compound ID>  (422) 
102907

>  <gnina_score_min>  (422) 
5.098

>  <name>  (422) 
P65582

>  <exports>  (422) 
['/opt/xchem-fragalysis-2/maxwin/BulkDock/OUTPUTS/openbind_d68ev3c_c2_elabs_1LOTQJ3.sdf', '/opt/xchem-fragalysis-2/maxwin/BulkDock/OUTPUTS/openbind_d68ev3c_c2_elabs_1LSYEHW.sdf', '/opt/xchem-fragalysis-2/maxwin/BulkDock/OUTPUTS/openbind_d68ev3c_c2_elabs_1LSYI5W.sdf']

$$$$
P65583
     RDKit          3D

 21 22  0  0  0  0  0  0  0  0999 V2000
    2.8619   -0.2036   36.2488 C   0  0  0  0  0  0  0  0  0  0  0  0
    3.4197   -1.5625   36.6459 C   0  0  0  0  0  0  0  0  0  0  0  0
    2.3313   -2.6060   36.7689 C   0  0  0  0  0  0  0  0  0  0  0  0
    1.7337   -2.7782   38.0301 C   0  0  0  0  0  0  0  0  0  0  0  0
    0.7672   -3.7534   38.2233 C   0  0  0  0  0  0  0  0  0  0  0  0
    0.2054   -3.8946   39.4319 F   0  0  0  0  0  0  0  0  0  0  0  0
    0.3718   -4.5753   37.1824 C   0  0  0  0  0  0  0  0  0  0  0  0
    0.9247   -4.3941   35.9130 C   0  0  0  0  0  0  0  0  0  0  0  0
    0.4808   -5.2086   34.8766 N   0  0  0  0  0  0  0  0  0  0  0  0
   -0.0247   -6.6637   34.8938 C   0  0  0  0  0  0  0  0  0  0  0  0
   -0.0767   -7.4342   35.7653 O   0  0  0  0  0  0  0  0  0  0  0  0
   -0.5711   -7.0960   33.5661 C   0  0  0  0  0  0  0  0  0  0  0  0
    0.0172   -6.6456   32.3789 C   0  0  0  0  0  0  0  0  0  0  0  0
   -0.5174   -7.0620   31.1743 C   0  0  0  0  0  0  0  0  0  0  0  0
   -0.0359   -6.5312   30.0427 F   0  0  0  0  0  0  0  0  0  0  0  0
   -1.5504   -7.9208   31.0620 N   0  0  0  0  0  0  0  0  0  0  0  0
   -2.0629   -8.3814   32.2206 C   0  0  0  0  0  0  0  0  0  0  0  0
   -1.6464   -7.9862   33.4788 C   0  0  0  0  0  0  0  0  0  0  0  0
   -2.8306   -8.6929   35.0129 I   0  0  0  0  0  0  0  0  0  0  0  0
    1.9011   -3.4042   35.6792 C   0  0  0  0  0  0  0  0  0  0  0  0
    2.6040   -3.3290   34.3464 C   0  0  0  0  0  0  0  0  0  0  0  0
  1  2  1  0
  2  3  1  0
  3  4  2  0
  4  5  1  0
  5  6  1  0
  5  7  2  0
  7  8  1  0
  8  9  1  0
  9 10  1  0
 10 11  2  0
 10 12  1  0
 12 13  2  0
 13 14  1  0
 14 15  1  0
 14 16  2  0
 16 17  1  0
 17 18  2  0
 18 19  1  0
  8 20  2  0
 20 21  1  0
 20  3  1  0
 18 12  1  0
M  END
>  <ref_mols>  (423) 
7gov-a

>  <gnina_score>  (423) 
5.276

>  <smina_score_min>  (423) 
-5.106

>  <ref_pdb>  (423) 
7gov-a

>  <inspiration_score>  (423) 
None

>  <inchikey>  (423) 
STLFZEASRPEXBV-UHFFFAOYSA-N

>  <tags>  (423) 
BulkDock Fragalysis export,openbind_d68ev3c_c2_elabs_scored,openbind_d68ev3c_c2_elabs_scored_4.5plus,openbind_d68ev3c_c2_elabs,openbind_d68ev3c_c2_elabs_scored_5plus,syndirella_product,openbind_d68ev3c_c2_elabs_scored_top80percent,syndirella_placed

>  <smiles>  (423) 
CCc1cc(F)cc(NC(=O)c2cc(F)ncc2I)c1C

>  <subsites>  (423) 
None

>  <rmsd(smina/fragmenstein)>  (423) 
1.578

>  <alias>  (423) 
None

>  <energy_score>  (423) 
-12.728009

>  <HIPPO Pose ID>  (423) 
65583

>  <distance_score>  (423) 
0.524679

>  <HIPPO Compound ID>  (423) 
102909

>  <gnina_score_min>  (423) 
5.221

>  <name>  (423) 
P65583

>  <exports>  (423) 
['/opt/xchem-fragalysis-2/maxwin/BulkDock/OUTPUTS/openbind_d68ev3c_c2_elabs_1LOTQJ3.sdf', '/opt/xchem-fragalysis-2/maxwin/BulkDock/OUTPUTS/openbind_d68ev3c_c2_elabs_1LSYEHW.sdf', '/opt/xchem-fragalysis-2/maxwin/BulkDock/OUTPUTS/openbind_d68ev3c_c2_elabs_1LSYI5W.sdf']

$$$$
P65584
     RDKit          3D

 21 22  0  0  0  0  0  0  0  0999 V2000
    2.2516   -1.9610   39.2307 C   0  0  0  0  0  0  0  0  0  0  0  0
    1.8146   -2.7914   38.0580 C   0  0  0  0  0  0  0  0  0  0  0  0
    0.8208   -3.7528   38.2442 C   0  0  0  0  0  0  0  0  0  0  0  0
    0.2453   -3.9007   39.4474 F   0  0  0  0  0  0  0  0  0  0  0  0
    0.3830   -4.5564   37.2025 C   0  0  0  0  0  0  0  0  0  0  0  0
    0.9217   -4.3970   35.9261 C   0  0  0  0  0  0  0  0  0  0  0  0
    0.3847   -5.1740   34.9060 N   0  0  0  0  0  0  0  0  0  0  0  0
   -0.0266   -6.6586   34.8896 C   0  0  0  0  0  0  0  0  0  0  0  0
   -0.0520   -7.4441   35.7489 O   0  0  0  0  0  0  0  0  0  0  0  0
   -0.5633   -7.0912   33.5595 C   0  0  0  0  0  0  0  0  0  0  0  0
    0.0237   -6.6383   32.3737 C   0  0  0  0  0  0  0  0  0  0  0  0
   -0.5113   -7.0557   31.1692 C   0  0  0  0  0  0  0  0  0  0  0  0
   -0.0309   -6.5237   30.0376 F   0  0  0  0  0  0  0  0  0  0  0  0
   -1.5430   -7.9164   31.0566 N   0  0  0  0  0  0  0  0  0  0  0  0
   -2.0547   -8.3784   32.2148 C   0  0  0  0  0  0  0  0  0  0  0  0
   -1.6378   -7.9830   33.4724 C   0  0  0  0  0  0  0  0  0  0  0  0
   -2.8208   -8.6886   35.0086 I   0  0  0  0  0  0  0  0  0  0  0  0
    1.9426   -3.4636   35.6881 C   0  0  0  0  0  0  0  0  0  0  0  0
    2.6183   -3.3805   34.3430 C   0  0  0  0  0  0  0  0  0  0  0  0
    2.3746   -2.6565   36.7708 C   0  0  0  0  0  0  0  0  0  0  0  0
    3.7362   -1.3372   36.4870 Br  0  0  0  0  0  0  0  0  0  0  0  0
  1  2  1  0
  2  3  2  0
  3  4  1  0
  3  5  1  0
  5  6  2  0
  6  7  1  0
  7  8  1  0
  8  9  2  0
  8 10  1  0
 10 11  2  0
 11 12  1  0
 12 13  1  0
 12 14  2  0
 14 15  1  0
 15 16  2  0
 16 17  1  0
  6 18  1  0
 18 19  1  0
 18 20  2  0
 20 21  1  0
 20  2  1  0
 16 10  1  0
M  END
>  <ref_mols>  (424) 
7gov-a

>  <gnina_score>  (424) 
5.362

>  <smina_score_min>  (424) 
-5.405

>  <ref_pdb>  (424) 
7gov-a

>  <inspiration_score>  (424) 
None

>  <inchikey>  (424) 
KYGOBGFWKNJKTB-UHFFFAOYSA-N

>  <tags>  (424) 
BulkDock Fragalysis export,openbind_d68ev3c_c2_elabs_scored,openbind_d68ev3c_c2_elabs_scored_4.5plus,openbind_d68ev3c_c2_elabs,openbind_d68ev3c_c2_elabs_scored_5plus,syndirella_product,openbind_d68ev3c_c2_elabs_scored_top80percent,syndirella_placed

>  <smiles>  (424) 
Cc1c(F)cc(NC(=O)c2cc(F)ncc2I)c(C)c1Br

>  <subsites>  (424) 
None

>  <rmsd(smina/fragmenstein)>  (424) 
1.135

>  <alias>  (424) 
None

>  <energy_score>  (424) 
-17.450316

>  <HIPPO Pose ID>  (424) 
65584

>  <distance_score>  (424) 
0.507576

>  <HIPPO Compound ID>  (424) 
102911

>  <gnina_score_min>  (424) 
5.42

>  <name>  (424) 
P65584

>  <exports>  (424) 
['/opt/xchem-fragalysis-2/maxwin/BulkDock/OUTPUTS/openbind_d68ev3c_c2_elabs_1LOTQJ3.sdf', '/opt/xchem-fragalysis-2/maxwin/BulkDock/OUTPUTS/openbind_d68ev3c_c2_elabs_1LSYEHW.sdf', '/opt/xchem-fragalysis-2/maxwin/BulkDock/OUTPUTS/openbind_d68ev3c_c2_elabs_1LSYI5W.sdf']

$$$$
P65585
     RDKit          3D

 21 22  0  0  0  0  0  0  0  0999 V2000
    2.6077   -4.2614   34.7290 C   0  0  0  0  0  0  0  0  0  0  0  0
    1.7820   -3.9156   35.9448 C   0  0  0  0  0  0  0  0  0  0  0  0
    2.3394   -3.1745   37.0095 C   0  0  0  0  0  0  0  0  0  0  0  0
    3.6726   -2.6383   36.9590 C   0  0  0  0  0  0  0  0  0  0  0  0
    4.7284   -2.1540   36.9343 N   0  0  0  0  0  0  0  0  0  0  0  0
    1.5901   -2.9385   38.1675 C   0  0  0  0  0  0  0  0  0  0  0  0
    0.2901   -3.4136   38.2567 C   0  0  0  0  0  0  0  0  0  0  0  0
   -0.3952   -3.2280   39.3913 F   0  0  0  0  0  0  0  0  0  0  0  0
   -0.3038   -4.0941   37.2048 C   0  0  0  0  0  0  0  0  0  0  0  0
    0.4491   -4.3662   36.0672 C   0  0  0  0  0  0  0  0  0  0  0  0
   -0.1205   -5.1688   35.0913 N   0  0  0  0  0  0  0  0  0  0  0  0
    0.1886   -6.6196   34.6855 C   0  0  0  0  0  0  0  0  0  0  0  0
    0.9171   -7.3963   35.1565 O   0  0  0  0  0  0  0  0  0  0  0  0
   -0.5094   -6.9946   33.4396 C   0  0  0  0  0  0  0  0  0  0  0  0
    0.0114   -6.5164   32.2376 C   0  0  0  0  0  0  0  0  0  0  0  0
   -0.5624   -6.9628   31.0660 C   0  0  0  0  0  0  0  0  0  0  0  0
   -0.1354   -6.4513   29.9041 F   0  0  0  0  0  0  0  0  0  0  0  0
   -1.5876   -7.8421   31.0150 N   0  0  0  0  0  0  0  0  0  0  0  0
   -2.0428   -8.3002   32.2001 C   0  0  0  0  0  0  0  0  0  0  0  0
   -1.5644   -7.8931   33.4278 C   0  0  0  0  0  0  0  0  0  0  0  0
   -2.5692   -8.5642   35.0599 I   0  0  0  0  0  0  0  0  0  0  0  0
  1  2  1  0
  2  3  2  0
  3  4  1  0
  4  5  3  0
  3  6  1  0
  6  7  2  0
  7  8  1  0
  7  9  1  0
  9 10  2  0
 10 11  1  0
 11 12  1  0
 12 13  2  0
 12 14  1  0
 14 15  2  0
 15 16  1  0
 16 17  1  0
 16 18  2  0
 18 19  1  0
 19 20  2  0
 20 21  1  0
 10  2  1  0
 20 14  1  0
M  END
>  <ref_mols>  (425) 
7gov-a

>  <gnina_score>  (425) 
5.235

>  <smina_score_min>  (425) 
-5.324

>  <ref_pdb>  (425) 
7gov-a

>  <inspiration_score>  (425) 
None

>  <inchikey>  (425) 
GHUFHVQMVZZPST-UHFFFAOYSA-N

>  <tags>  (425) 
BulkDock Fragalysis export,openbind_d68ev3c_c2_elabs_scored,openbind_d68ev3c_c2_elabs_scored_4.5plus,openbind_d68ev3c_c2_elabs,openbind_d68ev3c_c2_elabs_scored_5plus,syndirella_product,openbind_d68ev3c_c2_elabs_scored_top80percent,syndirella_placed

>  <smiles>  (425) 
Cc1c(C#N)cc(F)cc1NC(=O)c1cc(F)ncc1I

>  <subsites>  (425) 
None

>  <rmsd(smina/fragmenstein)>  (425) 
1.069

>  <alias>  (425) 
None

>  <energy_score>  (425) 
-5.154781

>  <HIPPO Pose ID>  (425) 
65585

>  <distance_score>  (425) 
0.432756

>  <HIPPO Compound ID>  (425) 
102912

>  <gnina_score_min>  (425) 
5.139

>  <name>  (425) 
P65585

>  <exports>  (425) 
['/opt/xchem-fragalysis-2/maxwin/BulkDock/OUTPUTS/openbind_d68ev3c_c2_elabs_1LOTQJ3.sdf', '/opt/xchem-fragalysis-2/maxwin/BulkDock/OUTPUTS/openbind_d68ev3c_c2_elabs_1LSYEHW.sdf', '/opt/xchem-fragalysis-2/maxwin/BulkDock/OUTPUTS/openbind_d68ev3c_c2_elabs_1LSYI5W.sdf']

$$$$
P65587
     RDKit          3D

 21 22  0  0  0  0  0  0  0  0999 V2000
    3.8010   -4.3531   34.3015 C   0  0  0  0  0  0  0  0  0  0  0  0
    2.6576   -3.3348   34.3455 C   0  0  0  0  0  0  0  0  0  0  0  0
    3.1851   -1.9353   34.0029 C   0  0  0  0  0  0  0  0  0  0  0  0
    1.9220   -3.4236   35.6790 C   0  0  0  0  0  0  0  0  0  0  0  0
    2.3278   -2.6402   36.7773 C   0  0  0  0  0  0  0  0  0  0  0  0
    1.7414   -2.7977   38.0351 C   0  0  0  0  0  0  0  0  0  0  0  0
    0.7622   -3.7605   38.2178 C   0  0  0  0  0  0  0  0  0  0  0  0
    0.1935   -3.9030   39.4229 F   0  0  0  0  0  0  0  0  0  0  0  0
    0.3600   -4.5711   37.1675 C   0  0  0  0  0  0  0  0  0  0  0  0
    0.9244   -4.3945   35.9001 C   0  0  0  0  0  0  0  0  0  0  0  0
    0.4724   -5.1998   34.8614 N   0  0  0  0  0  0  0  0  0  0  0  0
    0.0023   -6.6664   34.8645 C   0  0  0  0  0  0  0  0  0  0  0  0
   -0.0079   -7.4538   35.7223 O   0  0  0  0  0  0  0  0  0  0  0  0
   -0.5530   -7.0943   33.5406 C   0  0  0  0  0  0  0  0  0  0  0  0
    0.0284   -6.6491   32.3485 C   0  0  0  0  0  0  0  0  0  0  0  0
   -0.5188   -7.0650   31.1496 C   0  0  0  0  0  0  0  0  0  0  0  0
   -0.0436   -6.5401   30.0125 F   0  0  0  0  0  0  0  0  0  0  0  0
   -1.5570   -7.9186   31.0480 N   0  0  0  0  0  0  0  0  0  0  0  0
   -2.0628   -8.3742   32.2114 C   0  0  0  0  0  0  0  0  0  0  0  0
   -1.6334   -7.9790   33.4647 C   0  0  0  0  0  0  0  0  0  0  0  0
   -2.8037   -8.6777   35.0114 I   0  0  0  0  0  0  0  0  0  0  0  0
  1  2  1  0
  2  3  1  0
  2  4  1  0
  4  5  2  0
  5  6  1  0
  6  7  2  0
  7  8  1  0
  7  9  1  0
  9 10  2  0
 10 11  1  0
 11 12  1  0
 12 13  2  0
 12 14  1  0
 14 15  2  0
 15 16  1  0
 16 17  1  0
 16 18  2  0
 18 19  1  0
 19 20  2  0
 20 21  1  0
 10  4  1  0
 20 14  1  0
M  END
>  <ref_mols>  (426) 
7gov-a

>  <gnina_score>  (426) 
5.259

>  <smina_score_min>  (426) 
-5.167

>  <ref_pdb>  (426) 
7gov-a

>  <inspiration_score>  (426) 
None

>  <inchikey>  (426) 
UGEVUGCSASDBKQ-UHFFFAOYSA-N

>  <tags>  (426) 
BulkDock Fragalysis export,openbind_d68ev3c_c2_elabs_scored,openbind_d68ev3c_c2_elabs_scored_4.5plus,openbind_d68ev3c_c2_elabs,openbind_d68ev3c_c2_elabs_scored_5plus,syndirella_product,openbind_d68ev3c_c2_elabs_scored_top80percent,syndirella_placed

>  <smiles>  (426) 
CC(C)c1ccc(F)cc1NC(=O)c1cc(F)ncc1I

>  <subsites>  (426) 
None

>  <rmsd(smina/fragmenstein)>  (426) 
1.61

>  <alias>  (426) 
None

>  <energy_score>  (426) 
-21.181206

>  <HIPPO Pose ID>  (426) 
65587

>  <distance_score>  (426) 
0.508293

>  <HIPPO Compound ID>  (426) 
102917

>  <gnina_score_min>  (426) 
5.375

>  <name>  (426) 
P65587

>  <exports>  (426) 
['/opt/xchem-fragalysis-2/maxwin/BulkDock/OUTPUTS/openbind_d68ev3c_c2_elabs_1LOTQJ3.sdf', '/opt/xchem-fragalysis-2/maxwin/BulkDock/OUTPUTS/openbind_d68ev3c_c2_elabs_1LSYEHW.sdf', '/opt/xchem-fragalysis-2/maxwin/BulkDock/OUTPUTS/openbind_d68ev3c_c2_elabs_1LSYI5W.sdf']

$$$$
P65588
     RDKit          3D

 21 22  0  0  0  0  0  0  0  0999 V2000
    2.6506   -3.5348   34.4385 C   0  0  0  0  0  0  0  0  0  0  0  0
    1.9158   -3.5442   35.7574 C   0  0  0  0  0  0  0  0  0  0  0  0
    2.4110   -2.8225   36.8714 C   0  0  0  0  0  0  0  0  0  0  0  0
    3.6992   -2.0411   36.8125 C   0  0  0  0  0  0  0  0  0  0  0  0
    4.8066   -2.9288   36.7075 O   0  0  0  0  0  0  0  0  0  0  0  0
    1.7662   -2.9338   38.1159 C   0  0  0  0  0  0  0  0  0  0  0  0
    0.6900   -3.7931   38.2724 C   0  0  0  0  0  0  0  0  0  0  0  0
    0.0973   -3.8953   39.4694 F   0  0  0  0  0  0  0  0  0  0  0  0
    0.2420   -4.5655   37.2156 C   0  0  0  0  0  0  0  0  0  0  0  0
    0.8432   -4.4318   35.9625 C   0  0  0  0  0  0  0  0  0  0  0  0
    0.3988   -5.2412   34.9264 N   0  0  0  0  0  0  0  0  0  0  0  0
   -0.1258   -6.6878   34.9426 C   0  0  0  0  0  0  0  0  0  0  0  0
   -0.1959   -7.4549   35.8150 O   0  0  0  0  0  0  0  0  0  0  0  0
   -0.6421   -7.1269   33.6065 C   0  0  0  0  0  0  0  0  0  0  0  0
   -0.0340   -6.6764   32.4289 C   0  0  0  0  0  0  0  0  0  0  0  0
   -0.5442   -7.0987   31.2162 C   0  0  0  0  0  0  0  0  0  0  0  0
   -0.0493   -6.5649   30.0921 F   0  0  0  0  0  0  0  0  0  0  0  0
   -1.5676   -7.9665   31.0891 N   0  0  0  0  0  0  0  0  0  0  0  0
   -2.0962   -8.4304   32.2395 C   0  0  0  0  0  0  0  0  0  0  0  0
   -1.7072   -8.0273   33.5036 C   0  0  0  0  0  0  0  0  0  0  0  0
   -2.9148   -8.7334   35.0230 I   0  0  0  0  0  0  0  0  0  0  0  0
  1  2  1  0
  2  3  2  0
  3  4  1  0
  4  5  1  0
  3  6  1  0
  6  7  2  0
  7  8  1  0
  7  9  1  0
  9 10  2  0
 10 11  1  0
 11 12  1  0
 12 13  2  0
 12 14  1  0
 14 15  2  0
 15 16  1  0
 16 17  1  0
 16 18  2  0
 18 19  1  0
 19 20  2  0
 20 21  1  0
 10  2  1  0
 20 14  1  0
M  END
>  <ref_mols>  (427) 
7gov-a

>  <gnina_score>  (427) 
5.118

>  <smina_score_min>  (427) 
-5.3

>  <ref_pdb>  (427) 
7gov-a

>  <inspiration_score>  (427) 
None

>  <inchikey>  (427) 
HWBHXZSGBWIWQP-UHFFFAOYSA-N

>  <tags>  (427) 
BulkDock Fragalysis export,openbind_d68ev3c_c2_elabs_scored,openbind_d68ev3c_c2_elabs_scored_4.5plus,openbind_d68ev3c_c2_elabs,openbind_d68ev3c_c2_elabs_scored_5plus,syndirella_product,openbind_d68ev3c_c2_elabs_scored_top80percent,syndirella_placed

>  <smiles>  (427) 
Cc1c(CO)cc(F)cc1NC(=O)c1cc(F)ncc1I

>  <subsites>  (427) 
None

>  <rmsd(smina/fragmenstein)>  (427) 
1.341

>  <alias>  (427) 
None

>  <energy_score>  (427) 
-8.912655

>  <HIPPO Pose ID>  (427) 
65588

>  <distance_score>  (427) 
0.484147

>  <HIPPO Compound ID>  (427) 
102918

>  <gnina_score_min>  (427) 
5.067

>  <name>  (427) 
P65588

>  <exports>  (427) 
['/opt/xchem-fragalysis-2/maxwin/BulkDock/OUTPUTS/openbind_d68ev3c_c2_elabs_1LOTQJ3.sdf', '/opt/xchem-fragalysis-2/maxwin/BulkDock/OUTPUTS/openbind_d68ev3c_c2_elabs_1LSYEHW.sdf', '/opt/xchem-fragalysis-2/maxwin/BulkDock/OUTPUTS/openbind_d68ev3c_c2_elabs_1LSYI5W.sdf']

$$$$
P65589
     RDKit          3D

 21 23  0  0  0  0  0  0  0  0999 V2000
   -1.4636   -6.5288   35.7412 O   0  0  0  0  0  0  0  0  0  0  0  0
   -0.6665   -6.2331   34.9401 C   0  0  0  0  0  0  0  0  0  0  0  0
    0.5591   -5.3034   35.0454 N   0  0  0  0  0  0  0  0  0  0  0  0
    0.9958   -4.4929   36.0956 C   0  0  0  0  0  0  0  0  0  0  0  0
    0.2505   -4.4244   37.2775 C   0  0  0  0  0  0  0  0  0  0  0  0
    0.6687   -3.5958   38.3082 C   0  0  0  0  0  0  0  0  0  0  0  0
   -0.0375   -3.5458   39.4456 F   0  0  0  0  0  0  0  0  0  0  0  0
    1.8024   -2.8120   38.1762 C   0  0  0  0  0  0  0  0  0  0  0  0
    2.5390   -2.8699   36.9931 C   0  0  0  0  0  0  0  0  0  0  0  0
    2.1719   -3.7216   35.9310 C   0  0  0  0  0  0  0  0  0  0  0  0
    3.0157   -3.7468   34.6686 C   0  0  0  0  0  0  0  0  0  0  0  0
    4.5205   -3.8824   34.7511 C   0  0  0  0  0  0  0  0  0  0  0  0
    3.7016   -5.0238   34.2368 C   0  0  0  0  0  0  0  0  0  0  0  0
   -0.8258   -6.8524   33.5821 C   0  0  0  0  0  0  0  0  0  0  0  0
   -1.4786   -8.0945   33.6018 C   0  0  0  0  0  0  0  0  0  0  0  0
   -1.7919   -8.6952   32.4066 C   0  0  0  0  0  0  0  0  0  0  0  0
   -2.4732   -9.8397   32.4189 F   0  0  0  0  0  0  0  0  0  0  0  0
   -1.4711   -8.2028   31.1998 N   0  0  0  0  0  0  0  0  0  0  0  0
   -0.7987   -7.0339   31.1973 C   0  0  0  0  0  0  0  0  0  0  0  0
   -0.4960   -6.2948   32.3393 C   0  0  0  0  0  0  0  0  0  0  0  0
    0.2321   -4.3774   31.9640 I   0  0  0  0  0  0  0  0  0  0  0  0
  1  2  2  0
  2  3  1  0
  3  4  1  0
  4  5  2  0
  5  6  1  0
  6  7  1  0
  6  8  2  0
  8  9  1  0
  9 10  2  0
 10 11  1  0
 11 12  1  0
 12 13  1  0
  2 14  1  0
 14 15  2  0
 15 16  1  0
 16 17  1  0
 16 18  2  0
 18 19  1  0
 19 20  2  0
 20 21  1  0
 10  4  1  0
 13 11  1  0
 20 14  1  0
M  END
>  <ref_mols>  (428) 
7gov-a

>  <gnina_score>  (428) 
5.212

>  <smina_score_min>  (428) 
-5.534

>  <ref_pdb>  (428) 
7gov-a

>  <inspiration_score>  (428) 
None

>  <inchikey>  (428) 
UDOLEZVCCSVRIS-UHFFFAOYSA-N

>  <tags>  (428) 
BulkDock Fragalysis export,openbind_d68ev3c_c2_elabs_scored,openbind_d68ev3c_c2_elabs_scored_4.5plus,openbind_d68ev3c_c2_elabs,openbind_d68ev3c_c2_elabs_scored_5plus,syndirella_product,openbind_d68ev3c_c2_elabs_scored_top80percent,syndirella_placed

>  <smiles>  (428) 
O=C(Nc1cc(F)ccc1C1CC1)c1cc(F)ncc1I

>  <subsites>  (428) 
None

>  <rmsd(smina/fragmenstein)>  (428) 
0.473

>  <alias>  (428) 
None

>  <energy_score>  (428) 
-10.125304

>  <HIPPO Pose ID>  (428) 
65589

>  <distance_score>  (428) 
0.75952

>  <HIPPO Compound ID>  (428) 
102919

>  <gnina_score_min>  (428) 
5.071

>  <name>  (428) 
P65589

>  <exports>  (428) 
['/opt/xchem-fragalysis-2/maxwin/BulkDock/OUTPUTS/openbind_d68ev3c_c2_elabs_1LOTQJ3.sdf', '/opt/xchem-fragalysis-2/maxwin/BulkDock/OUTPUTS/openbind_d68ev3c_c2_elabs_1LSYEHW.sdf', '/opt/xchem-fragalysis-2/maxwin/BulkDock/OUTPUTS/openbind_d68ev3c_c2_elabs_1LSYI5W.sdf']

$$$$
P65591
     RDKit          3D

 21 22  0  0  0  0  0  0  0  0999 V2000
    2.0245   -3.8023   33.4104 O   0  0  0  0  0  0  0  0  0  0  0  0
    2.5567   -3.3459   34.4186 C   0  0  0  0  0  0  0  0  0  0  0  0
    1.9509   -3.4845   35.7562 C   0  0  0  0  0  0  0  0  0  0  0  0
    2.4554   -2.7033   36.7957 C   0  0  0  0  0  0  0  0  0  0  0  0
    3.4409   -1.8223   36.5659 F   0  0  0  0  0  0  0  0  0  0  0  0
    1.9305   -2.7950   38.0804 C   0  0  0  0  0  0  0  0  0  0  0  0
    0.9048   -3.6971   38.3242 C   0  0  0  0  0  0  0  0  0  0  0  0
    0.3704   -3.7739   39.5500 F   0  0  0  0  0  0  0  0  0  0  0  0
    0.4110   -4.5129   37.3123 C   0  0  0  0  0  0  0  0  0  0  0  0
    0.9291   -4.4031   36.0190 C   0  0  0  0  0  0  0  0  0  0  0  0
    0.4118   -5.2010   35.0068 N   0  0  0  0  0  0  0  0  0  0  0  0
   -0.2822   -6.5753   35.0715 C   0  0  0  0  0  0  0  0  0  0  0  0
   -0.5976   -7.2187   35.9894 O   0  0  0  0  0  0  0  0  0  0  0  0
   -0.6923   -7.0959   33.7066 C   0  0  0  0  0  0  0  0  0  0  0  0
   -0.0530   -6.6660   32.5343 C   0  0  0  0  0  0  0  0  0  0  0  0
   -0.5167   -7.1103   31.3068 C   0  0  0  0  0  0  0  0  0  0  0  0
    0.0037   -6.5760   30.1945 F   0  0  0  0  0  0  0  0  0  0  0  0
   -1.5172   -7.9988   31.1511 N   0  0  0  0  0  0  0  0  0  0  0  0
   -2.0678   -8.4600   32.2895 C   0  0  0  0  0  0  0  0  0  0  0  0
   -1.7325   -8.0288   33.5654 C   0  0  0  0  0  0  0  0  0  0  0  0
   -2.9998   -8.7766   35.0287 I   0  0  0  0  0  0  0  0  0  0  0  0
  1  2  2  0
  2  3  1  0
  3  4  2  0
  4  5  1  0
  4  6  1  0
  6  7  2  0
  7  8  1  0
  7  9  1  0
  9 10  2  0
 10 11  1  0
 11 12  1  0
 12 13  2  0
 12 14  1  0
 14 15  2  0
 15 16  1  0
 16 17  1  0
 16 18  2  0
 18 19  1  0
 19 20  2  0
 20 21  1  0
 10  3  1  0
 20 14  1  0
M  END
>  <ref_mols>  (429) 
7gov-a

>  <gnina_score>  (429) 
5.209

>  <smina_score_min>  (429) 
-5.123

>  <ref_pdb>  (429) 
7gov-a

>  <inspiration_score>  (429) 
None

>  <inchikey>  (429) 
ILDIEQXSCNFWHP-UHFFFAOYSA-N

>  <tags>  (429) 
BulkDock Fragalysis export,openbind_d68ev3c_c2_elabs_scored,openbind_d68ev3c_c2_elabs_scored_4.5plus,openbind_d68ev3c_c2_elabs,openbind_d68ev3c_c2_elabs_scored_5plus,syndirella_product,openbind_d68ev3c_c2_elabs_scored_top80percent,syndirella_placed

>  <smiles>  (429) 
O=Cc1c(F)cc(F)cc1NC(=O)c1cc(F)ncc1I

>  <subsites>  (429) 
None

>  <rmsd(smina/fragmenstein)>  (429) 
1.155

>  <alias>  (429) 
None

>  <energy_score>  (429) 
-11.246922

>  <HIPPO Pose ID>  (429) 
65591

>  <distance_score>  (429) 
0.60678

>  <HIPPO Compound ID>  (429) 
102923

>  <gnina_score_min>  (429) 
5.15

>  <name>  (429) 
P65591

>  <exports>  (429) 
['/opt/xchem-fragalysis-2/maxwin/BulkDock/OUTPUTS/openbind_d68ev3c_c2_elabs_1LOTQJ3.sdf', '/opt/xchem-fragalysis-2/maxwin/BulkDock/OUTPUTS/openbind_d68ev3c_c2_elabs_1LSYEHW.sdf', '/opt/xchem-fragalysis-2/maxwin/BulkDock/OUTPUTS/openbind_d68ev3c_c2_elabs_1LSYI5W.sdf']

$$$$
P65592
     RDKit          3D

 21 22  0  0  0  0  0  0  0  0999 V2000
   -0.2414   -7.3936   35.8541 O   0  0  0  0  0  0  0  0  0  0  0  0
   -0.1244   -6.6436   34.9708 C   0  0  0  0  0  0  0  0  0  0  0  0
    0.3672   -5.1842   34.9593 N   0  0  0  0  0  0  0  0  0  0  0  0
    0.8870   -4.4018   35.9770 C   0  0  0  0  0  0  0  0  0  0  0  0
    0.3693   -4.5406   37.2677 C   0  0  0  0  0  0  0  0  0  0  0  0
    0.8405   -3.7234   38.2857 C   0  0  0  0  0  0  0  0  0  0  0  0
    0.3114   -3.8244   39.5125 F   0  0  0  0  0  0  0  0  0  0  0  0
    1.8412   -2.7963   38.0469 C   0  0  0  0  0  0  0  0  0  0  0  0
    2.3650   -2.6886   36.7629 C   0  0  0  0  0  0  0  0  0  0  0  0
    3.3529   -1.8051   36.5505 F   0  0  0  0  0  0  0  0  0  0  0  0
    1.8891   -3.4648   35.6975 C   0  0  0  0  0  0  0  0  0  0  0  0
    2.5838   -3.3751   34.3667 C   0  0  0  0  0  0  0  0  0  0  0  0
    1.6759   -3.5538   33.2741 O   0  0  0  0  0  0  0  0  0  0  0  0
   -0.6126   -7.1026   33.6242 C   0  0  0  0  0  0  0  0  0  0  0  0
   -0.0051   -6.6536   32.4461 C   0  0  0  0  0  0  0  0  0  0  0  0
   -0.5117   -7.0754   31.2301 C   0  0  0  0  0  0  0  0  0  0  0  0
   -0.0124   -6.5389   30.1086 F   0  0  0  0  0  0  0  0  0  0  0  0
   -1.5307   -7.9475   31.0951 N   0  0  0  0  0  0  0  0  0  0  0  0
   -2.0602   -8.4118   32.2440 C   0  0  0  0  0  0  0  0  0  0  0  0
   -1.6760   -8.0073   33.5113 C   0  0  0  0  0  0  0  0  0  0  0  0
   -2.8979   -8.7264   35.0168 I   0  0  0  0  0  0  0  0  0  0  0  0
  1  2  2  0
  2  3  1  0
  3  4  1  0
  4  5  2  0
  5  6  1  0
  6  7  1  0
  6  8  2  0
  8  9  1  0
  9 10  1  0
  9 11  2  0
 11 12  1  0
 12 13  1  0
  2 14  1  0
 14 15  2  0
 15 16  1  0
 16 17  1  0
 16 18  2  0
 18 19  1  0
 19 20  2  0
 20 21  1  0
 11  4  1  0
 20 14  1  0
M  END
>  <ref_mols>  (430) 
7gov-a

>  <gnina_score>  (430) 
5.114

>  <smina_score_min>  (430) 
-5.167

>  <ref_pdb>  (430) 
7gov-a

>  <inspiration_score>  (430) 
None

>  <inchikey>  (430) 
CVIGJHIVMGLSLS-UHFFFAOYSA-N

>  <tags>  (430) 
BulkDock Fragalysis export,openbind_d68ev3c_c2_elabs_scored,openbind_d68ev3c_c2_elabs_scored_4.5plus,openbind_d68ev3c_c2_elabs,openbind_d68ev3c_c2_elabs_scored_5plus,syndirella_product,openbind_d68ev3c_c2_elabs_scored_top80percent,syndirella_placed

>  <smiles>  (430) 
O=C(Nc1cc(F)cc(F)c1CO)c1cc(F)ncc1I

>  <subsites>  (430) 
None

>  <rmsd(smina/fragmenstein)>  (430) 
1.007

>  <alias>  (430) 
None

>  <energy_score>  (430) 
-23.782652

>  <HIPPO Pose ID>  (430) 
65592

>  <distance_score>  (430) 
0.535384

>  <HIPPO Compound ID>  (430) 
102924

>  <gnina_score_min>  (430) 
5.122

>  <name>  (430) 
P65592

>  <exports>  (430) 
['/opt/xchem-fragalysis-2/maxwin/BulkDock/OUTPUTS/openbind_d68ev3c_c2_elabs_1LOTQJ3.sdf', '/opt/xchem-fragalysis-2/maxwin/BulkDock/OUTPUTS/openbind_d68ev3c_c2_elabs_1LSYEHW.sdf', '/opt/xchem-fragalysis-2/maxwin/BulkDock/OUTPUTS/openbind_d68ev3c_c2_elabs_1LSYI5W.sdf']

$$$$
P65602
     RDKit          3D

 21 22  0  0  0  0  0  0  0  0999 V2000
    2.9592   -3.4529   33.3344 C   0  0  0  0  0  0  0  0  0  0  0  0
    2.4600   -3.5197   34.4245 C   0  0  0  0  0  0  0  0  0  0  0  0
    1.8659   -3.5975   35.7293 C   0  0  0  0  0  0  0  0  0  0  0  0
    2.3778   -2.7824   36.7470 C   0  0  0  0  0  0  0  0  0  0  0  0
    1.8591   -2.8683   38.0403 C   0  0  0  0  0  0  0  0  0  0  0  0
    2.4957   -1.8465   39.2727 Cl  0  0  0  0  0  0  0  0  0  0  0  0
    0.8302   -3.7603   38.3210 C   0  0  0  0  0  0  0  0  0  0  0  0
    0.2894   -3.8152   39.5484 F   0  0  0  0  0  0  0  0  0  0  0  0
    0.3346   -4.5870   37.3198 C   0  0  0  0  0  0  0  0  0  0  0  0
   -0.6899   -5.4020   37.6131 F   0  0  0  0  0  0  0  0  0  0  0  0
    0.8442   -4.5172   36.0171 C   0  0  0  0  0  0  0  0  0  0  0  0
    0.3490   -5.3442   35.0071 N   0  0  0  0  0  0  0  0  0  0  0  0
   -0.2449   -6.7663   35.0776 C   0  0  0  0  0  0  0  0  0  0  0  0
   -0.3430   -7.4998   35.9778 O   0  0  0  0  0  0  0  0  0  0  0  0
   -0.7572   -7.2485   33.7523 C   0  0  0  0  0  0  0  0  0  0  0  0
   -0.1098   -6.8873   32.5620 C   0  0  0  0  0  0  0  0  0  0  0  0
   -0.5971   -7.3706   31.3603 C   0  0  0  0  0  0  0  0  0  0  0  0
   -1.6593   -8.1919   31.2652 N   0  0  0  0  0  0  0  0  0  0  0  0
   -2.2384   -8.5619   32.4314 C   0  0  0  0  0  0  0  0  0  0  0  0
   -1.8508   -8.1258   33.6918 C   0  0  0  0  0  0  0  0  0  0  0  0
   -2.8789   -8.6583   35.0431 S   0  0  0  0  0  0  0  0  0  0  0  0
  1  2  3  0
  2  3  1  0
  3  4  2  0
  4  5  1  0
  5  6  1  0
  5  7  2  0
  7  8  1  0
  7  9  1  0
  9 10  1  0
  9 11  2  0
 11 12  1  0
 12 13  1  0
 13 14  2  0
 13 15  1  0
 15 16  2  0
 16 17  1  0
 17 18  2  0
 18 19  1  0
 19 20  2  0
 20 21  1  0
 11  3  1  0
 20 15  1  0
M  END
>  <ref_mols>  (431) 
7gov-a

>  <gnina_score>  (431) 
5.435

>  <smina_score_min>  (431) 
-4.852

>  <ref_pdb>  (431) 
7gov-a

>  <inspiration_score>  (431) 
None

>  <inchikey>  (431) 
SKDYFUHTLBTGKM-UHFFFAOYSA-N

>  <tags>  (431) 
BulkDock Fragalysis export,openbind_d68ev3c_c2_elabs_scored,openbind_d68ev3c_c2_elabs_scored_4.5plus,openbind_d68ev3c_c2_elabs,openbind_d68ev3c_c2_elabs_scored_5plus,syndirella_product,openbind_d68ev3c_c2_elabs_scored_top80percent,syndirella_placed

>  <smiles>  (431) 
C#Cc1cc(Cl)c(F)c(F)c1NC(=O)c1ccncc1S

>  <subsites>  (431) 
None

>  <rmsd(smina/fragmenstein)>  (431) 
0.841

>  <alias>  (431) 
None

>  <energy_score>  (431) 
-18.164624

>  <HIPPO Pose ID>  (431) 
65602

>  <distance_score>  (431) 
0.531877

>  <HIPPO Compound ID>  (431) 
102940

>  <gnina_score_min>  (431) 
5.351

>  <name>  (431) 
P65602

>  <exports>  (431) 
['/opt/xchem-fragalysis-2/maxwin/BulkDock/OUTPUTS/openbind_d68ev3c_c2_elabs_1LOTQJ3.sdf', '/opt/xchem-fragalysis-2/maxwin/BulkDock/OUTPUTS/openbind_d68ev3c_c2_elabs_1LSYEHW.sdf', '/opt/xchem-fragalysis-2/maxwin/BulkDock/OUTPUTS/openbind_d68ev3c_c2_elabs_1LSYI5W.sdf']

$$$$
P65603
     RDKit          3D

 21 22  0  0  0  0  0  0  0  0999 V2000
    2.9729   -3.4622   33.3426 C   0  0  0  0  0  0  0  0  0  0  0  0
    2.4701   -3.5289   34.4312 C   0  0  0  0  0  0  0  0  0  0  0  0
    1.8718   -3.6055   35.7337 C   0  0  0  0  0  0  0  0  0  0  0  0
    2.3878   -2.8027   36.7584 C   0  0  0  0  0  0  0  0  0  0  0  0
    1.8690   -2.8968   38.0555 C   0  0  0  0  0  0  0  0  0  0  0  0
    2.4197   -2.1049   39.1101 C   0  0  0  0  0  0  0  0  0  0  0  0
    2.8919   -1.4467   39.9422 N   0  0  0  0  0  0  0  0  0  0  0  0
    0.8259   -3.7811   38.3142 C   0  0  0  0  0  0  0  0  0  0  0  0
    0.2890   -3.8596   39.5407 F   0  0  0  0  0  0  0  0  0  0  0  0
    0.3193   -4.6002   37.3106 C   0  0  0  0  0  0  0  0  0  0  0  0
    0.8441   -4.5189   36.0192 C   0  0  0  0  0  0  0  0  0  0  0  0
    0.3542   -5.3623   35.0271 N   0  0  0  0  0  0  0  0  0  0  0  0
   -0.3456   -6.7345   35.1328 C   0  0  0  0  0  0  0  0  0  0  0  0
   -0.5519   -7.4076   36.0623 O   0  0  0  0  0  0  0  0  0  0  0  0
   -0.8079   -7.2599   33.7966 C   0  0  0  0  0  0  0  0  0  0  0  0
   -0.1392   -6.9165   32.6108 C   0  0  0  0  0  0  0  0  0  0  0  0
   -0.6029   -7.4112   31.4033 C   0  0  0  0  0  0  0  0  0  0  0  0
   -1.6590   -8.2367   31.2952 N   0  0  0  0  0  0  0  0  0  0  0  0
   -2.2544   -8.5998   32.4541 C   0  0  0  0  0  0  0  0  0  0  0  0
   -1.8929   -8.1494   33.7189 C   0  0  0  0  0  0  0  0  0  0  0  0
   -2.9459   -8.6927   35.0491 S   0  0  0  0  0  0  0  0  0  0  0  0
  1  2  3  0
  2  3  1  0
  3  4  2  0
  4  5  1  0
  5  6  1  0
  6  7  3  0
  5  8  2  0
  8  9  1  0
  8 10  1  0
 10 11  2  0
 11 12  1  0
 12 13  1  0
 13 14  2  0
 13 15  1  0
 15 16  2  0
 16 17  1  0
 17 18  2  0
 18 19  1  0
 19 20  2  0
 20 21  1  0
 11  3  1  0
 20 15  1  0
M  END
>  <ref_mols>  (432) 
7gov-a

>  <gnina_score>  (432) 
5.161

>  <smina_score_min>  (432) 
-5.174

>  <ref_pdb>  (432) 
7gov-a

>  <inspiration_score>  (432) 
None

>  <inchikey>  (432) 
MJYMYYMEUVAKFN-UHFFFAOYSA-N

>  <tags>  (432) 
BulkDock Fragalysis export,openbind_d68ev3c_c2_elabs_scored,openbind_d68ev3c_c2_elabs_scored_4.5plus,openbind_d68ev3c_c2_elabs,openbind_d68ev3c_c2_elabs_scored_5plus,syndirella_product,openbind_d68ev3c_c2_elabs_scored_top80percent,syndirella_placed

>  <smiles>  (432) 
C#Cc1cc(C#N)c(F)cc1NC(=O)c1ccncc1S

>  <subsites>  (432) 
None

>  <rmsd(smina/fragmenstein)>  (432) 
1.164

>  <alias>  (432) 
None

>  <energy_score>  (432) 
-12.843314

>  <HIPPO Pose ID>  (432) 
65603

>  <distance_score>  (432) 
0.578484

>  <HIPPO Compound ID>  (432) 
102941

>  <gnina_score_min>  (432) 
5.158

>  <name>  (432) 
P65603

>  <exports>  (432) 
['/opt/xchem-fragalysis-2/maxwin/BulkDock/OUTPUTS/openbind_d68ev3c_c2_elabs_1LOTQJ3.sdf', '/opt/xchem-fragalysis-2/maxwin/BulkDock/OUTPUTS/openbind_d68ev3c_c2_elabs_1LSYEHW.sdf', '/opt/xchem-fragalysis-2/maxwin/BulkDock/OUTPUTS/openbind_d68ev3c_c2_elabs_1LSYI5W.sdf']

$$$$
P65604
     RDKit          3D

 21 22  0  0  0  0  0  0  0  0999 V2000
    3.9657   -3.3758   34.3271 C   0  0  0  0  0  0  0  0  0  0  0  0
    2.4836   -3.6201   34.4347 C   0  0  0  0  0  0  0  0  0  0  0  0
    1.7814   -3.7886   33.4376 O   0  0  0  0  0  0  0  0  0  0  0  0
    1.8623   -3.6340   35.7890 C   0  0  0  0  0  0  0  0  0  0  0  0
    2.3508   -2.7796   36.7904 C   0  0  0  0  0  0  0  0  0  0  0  0
    1.8040   -2.8236   38.0738 C   0  0  0  0  0  0  0  0  0  0  0  0
    0.7800   -3.7213   38.3526 C   0  0  0  0  0  0  0  0  0  0  0  0
    0.2425   -3.7358   39.5804 F   0  0  0  0  0  0  0  0  0  0  0  0
    0.2984   -4.5807   37.3710 C   0  0  0  0  0  0  0  0  0  0  0  0
   -0.7252   -5.3894   37.6799 F   0  0  0  0  0  0  0  0  0  0  0  0
    0.8288   -4.5441   36.0775 C   0  0  0  0  0  0  0  0  0  0  0  0
    0.3597   -5.3858   35.0681 N   0  0  0  0  0  0  0  0  0  0  0  0
   -0.3240   -6.7660   35.1513 C   0  0  0  0  0  0  0  0  0  0  0  0
   -0.5333   -7.4509   36.0708 O   0  0  0  0  0  0  0  0  0  0  0  0
   -0.7948   -7.2605   33.8082 C   0  0  0  0  0  0  0  0  0  0  0  0
   -0.1303   -6.8878   32.6296 C   0  0  0  0  0  0  0  0  0  0  0  0
   -0.5897   -7.3671   31.4141 C   0  0  0  0  0  0  0  0  0  0  0  0
   -1.6399   -8.2006   31.2905 N   0  0  0  0  0  0  0  0  0  0  0  0
   -2.2370   -8.5808   32.4437 C   0  0  0  0  0  0  0  0  0  0  0  0
   -1.8786   -8.1487   33.7157 C   0  0  0  0  0  0  0  0  0  0  0  0
   -2.9355   -8.7060   35.0365 S   0  0  0  0  0  0  0  0  0  0  0  0
  1  2  1  0
  2  3  2  0
  2  4  1  0
  4  5  2  0
  5  6  1  0
  6  7  2  0
  7  8  1  0
  7  9  1  0
  9 10  1  0
  9 11  2  0
 11 12  1  0
 12 13  1  0
 13 14  2  0
 13 15  1  0
 15 16  2  0
 16 17  1  0
 17 18  2  0
 18 19  1  0
 19 20  2  0
 20 21  1  0
 11  4  1  0
 20 15  1  0
M  END
>  <ref_mols>  (433) 
7gov-a

>  <gnina_score>  (433) 
5.215

>  <smina_score_min>  (433) 
-4.956

>  <ref_pdb>  (433) 
7gov-a

>  <inspiration_score>  (433) 
None

>  <inchikey>  (433) 
PNWWDOZEAFRDNI-UHFFFAOYSA-N

>  <tags>  (433) 
BulkDock Fragalysis export,openbind_d68ev3c_c2_elabs_scored,openbind_d68ev3c_c2_elabs_scored_4.5plus,openbind_d68ev3c_c2_elabs,openbind_d68ev3c_c2_elabs_scored_5plus,syndirella_product,openbind_d68ev3c_c2_elabs_scored_top80percent,syndirella_placed

>  <smiles>  (433) 
CC(=O)c1ccc(F)c(F)c1NC(=O)c1ccncc1S

>  <subsites>  (433) 
None

>  <rmsd(smina/fragmenstein)>  (433) 
0.523

>  <alias>  (433) 
None

>  <energy_score>  (433) 
-36.860045

>  <HIPPO Pose ID>  (433) 
65604

>  <distance_score>  (433) 
0.574436

>  <HIPPO Compound ID>  (433) 
102943

>  <gnina_score_min>  (433) 
5.105

>  <name>  (433) 
P65604

>  <exports>  (433) 
['/opt/xchem-fragalysis-2/maxwin/BulkDock/OUTPUTS/openbind_d68ev3c_c2_elabs_1LOTQJ3.sdf', '/opt/xchem-fragalysis-2/maxwin/BulkDock/OUTPUTS/openbind_d68ev3c_c2_elabs_1LSYEHW.sdf', '/opt/xchem-fragalysis-2/maxwin/BulkDock/OUTPUTS/openbind_d68ev3c_c2_elabs_1LSYI5W.sdf']

$$$$
P65605
     RDKit          3D

 21 22  0  0  0  0  0  0  0  0999 V2000
    2.6022   -4.3468   34.7602 C   0  0  0  0  0  0  0  0  0  0  0  0
    1.7922   -4.0061   35.9861 C   0  0  0  0  0  0  0  0  0  0  0  0
    0.4501   -4.4270   36.1244 C   0  0  0  0  0  0  0  0  0  0  0  0
   -0.1602   -5.2526   35.1899 N   0  0  0  0  0  0  0  0  0  0  0  0
    0.1326   -6.7121   34.8043 C   0  0  0  0  0  0  0  0  0  0  0  0
    0.8808   -7.4783   35.2617 O   0  0  0  0  0  0  0  0  0  0  0  0
   -0.6116   -7.1233   33.5987 C   0  0  0  0  0  0  0  0  0  0  0  0
   -0.0760   -6.7461   32.3648 C   0  0  0  0  0  0  0  0  0  0  0  0
   -0.6507   -7.2649   31.2227 C   0  0  0  0  0  0  0  0  0  0  0  0
   -1.7060   -8.1070   31.2404 N   0  0  0  0  0  0  0  0  0  0  0  0
   -2.1869   -8.4578   32.4589 C   0  0  0  0  0  0  0  0  0  0  0  0
   -1.6957   -7.9921   33.6689 C   0  0  0  0  0  0  0  0  0  0  0  0
   -2.5382   -8.4439   35.1506 S   0  0  0  0  0  0  0  0  0  0  0  0
   -0.2925   -4.1123   37.2618 C   0  0  0  0  0  0  0  0  0  0  0  0
    0.3056   -3.4055   38.2949 C   0  0  0  0  0  0  0  0  0  0  0  0
   -0.3800   -3.1849   39.4226 F   0  0  0  0  0  0  0  0  0  0  0  0
    1.5996   -2.9272   38.1866 C   0  0  0  0  0  0  0  0  0  0  0  0
    2.3290   -3.2040   37.0236 C   0  0  0  0  0  0  0  0  0  0  0  0
    3.6564   -2.5842   36.9230 N   0  0  0  0  0  0  0  0  0  0  0  0
    4.3215   -2.4650   37.9651 O   0  0  0  0  0  0  0  0  0  0  0  0
    3.9980   -2.1303   35.8208 O   0  0  0  0  0  0  0  0  0  0  0  0
  1  2  1  0
  2  3  2  0
  3  4  1  0
  4  5  1  0
  5  6  2  0
  5  7  1  0
  7  8  2  0
  8  9  1  0
  9 10  2  0
 10 11  1  0
 11 12  2  0
 12 13  1  0
  3 14  1  0
 14 15  2  0
 15 16  1  0
 15 17  1  0
 17 18  2  0
 18 19  1  0
 19 20  2  0
 19 21  1  0
 18  2  1  0
 12  7  1  0
M  CHG  2  19   1  21  -1
M  END
>  <ref_mols>  (434) 
7gov-a

>  <gnina_score>  (434) 
5.02

>  <smina_score_min>  (434) 
-5.586

>  <ref_pdb>  (434) 
7gov-a

>  <inspiration_score>  (434) 
None

>  <inchikey>  (434) 
ZFKFZDKYNWTAOL-UHFFFAOYSA-N

>  <tags>  (434) 
BulkDock Fragalysis export,openbind_d68ev3c_c2_elabs_scored,openbind_d68ev3c_c2_elabs_scored_4.5plus,openbind_d68ev3c_c2_elabs,openbind_d68ev3c_c2_elabs_scored_5plus,syndirella_product,openbind_d68ev3c_c2_elabs_scored_top80percent,syndirella_placed

>  <smiles>  (434) 
Cc1c(NC(=O)c2ccncc2S)cc(F)cc1[N+](=O)[O-]

>  <subsites>  (434) 
None

>  <rmsd(smina/fragmenstein)>  (434) 
1.117

>  <alias>  (434) 
None

>  <energy_score>  (434) 
-23.224557

>  <HIPPO Pose ID>  (434) 
65605

>  <distance_score>  (434) 
0.372755

>  <HIPPO Compound ID>  (434) 
102944

>  <gnina_score_min>  (434) 
5.035

>  <name>  (434) 
P65605

>  <exports>  (434) 
['/opt/xchem-fragalysis-2/maxwin/BulkDock/OUTPUTS/openbind_d68ev3c_c2_elabs_1LOTQJ3.sdf', '/opt/xchem-fragalysis-2/maxwin/BulkDock/OUTPUTS/openbind_d68ev3c_c2_elabs_1LSYEHW.sdf', '/opt/xchem-fragalysis-2/maxwin/BulkDock/OUTPUTS/openbind_d68ev3c_c2_elabs_1LSYI5W.sdf']

$$$$
P65606
     RDKit          3D

 21 22  0  0  0  0  0  0  0  0999 V2000
    0.3043   -3.8145   39.7085 C   0  0  0  0  0  0  0  0  0  0  0  0
    0.8892   -3.7415   38.3273 C   0  0  0  0  0  0  0  0  0  0  0  0
    0.3318   -4.5413   37.3177 C   0  0  0  0  0  0  0  0  0  0  0  0
    0.8299   -4.4949   36.0131 C   0  0  0  0  0  0  0  0  0  0  0  0
    0.2793   -5.3095   35.0349 N   0  0  0  0  0  0  0  0  0  0  0  0
   -0.3849   -6.6997   35.1441 C   0  0  0  0  0  0  0  0  0  0  0  0
   -0.6417   -7.3428   36.0826 O   0  0  0  0  0  0  0  0  0  0  0  0
   -0.8141   -7.2512   33.8054 C   0  0  0  0  0  0  0  0  0  0  0  0
   -0.1376   -6.9069   32.6246 C   0  0  0  0  0  0  0  0  0  0  0  0
   -0.5883   -7.4074   31.4138 C   0  0  0  0  0  0  0  0  0  0  0  0
   -1.6377   -8.2408   31.2973 N   0  0  0  0  0  0  0  0  0  0  0  0
   -2.2387   -8.6072   32.4517 C   0  0  0  0  0  0  0  0  0  0  0  0
   -1.8911   -8.1516   33.7189 C   0  0  0  0  0  0  0  0  0  0  0  0
   -2.9557   -8.7044   35.0377 S   0  0  0  0  0  0  0  0  0  0  0  0
    1.8835   -3.6395   35.6971 C   0  0  0  0  0  0  0  0  0  0  0  0
    2.3784   -3.6211   34.4493 F   0  0  0  0  0  0  0  0  0  0  0  0
    2.4747   -2.8521   36.6745 C   0  0  0  0  0  0  0  0  0  0  0  0
    1.9741   -2.9106   37.9825 C   0  0  0  0  0  0  0  0  0  0  0  0
    2.6338   -2.0830   38.9851 N   0  0  0  0  0  0  0  0  0  0  0  0
    3.8711   -2.1326   39.0430 O   0  0  0  0  0  0  0  0  0  0  0  0
    1.9175   -1.3629   39.6942 O   0  0  0  0  0  0  0  0  0  0  0  0
  1  2  1  0
  2  3  2  0
  3  4  1  0
  4  5  1  0
  5  6  1  0
  6  7  2  0
  6  8  1  0
  8  9  2  0
  9 10  1  0
 10 11  2  0
 11 12  1  0
 12 13  2  0
 13 14  1  0
  4 15  2  0
 15 16  1  0
 15 17  1  0
 17 18  2  0
 18 19  1  0
 19 20  2  0
 19 21  1  0
 18  2  1  0
 13  8  1  0
M  CHG  2  19   1  21  -1
M  END
>  <ref_mols>  (435) 
7gov-a

>  <gnina_score>  (435) 
5.096

>  <smina_score_min>  (435) 
-5.476

>  <ref_pdb>  (435) 
7gov-a

>  <inspiration_score>  (435) 
None

>  <inchikey>  (435) 
GGOSQBFMLDAHQU-UHFFFAOYSA-N

>  <tags>  (435) 
BulkDock Fragalysis export,openbind_d68ev3c_c2_elabs_scored,openbind_d68ev3c_c2_elabs_scored_4.5plus,openbind_d68ev3c_c2_elabs,openbind_d68ev3c_c2_elabs_scored_5plus,syndirella_product,openbind_d68ev3c_c2_elabs_scored_top80percent,syndirella_placed

>  <smiles>  (435) 
Cc1cc(NC(=O)c2ccncc2S)c(F)cc1[N+](=O)[O-]

>  <subsites>  (435) 
None

>  <rmsd(smina/fragmenstein)>  (435) 
1.11

>  <alias>  (435) 
None

>  <energy_score>  (435) 
-31.225911

>  <HIPPO Pose ID>  (435) 
65606

>  <distance_score>  (435) 
0.595886

>  <HIPPO Compound ID>  (435) 
102945

>  <gnina_score_min>  (435) 
5.03

>  <name>  (435) 
P65606

>  <exports>  (435) 
['/opt/xchem-fragalysis-2/maxwin/BulkDock/OUTPUTS/openbind_d68ev3c_c2_elabs_1LOTQJ3.sdf', '/opt/xchem-fragalysis-2/maxwin/BulkDock/OUTPUTS/openbind_d68ev3c_c2_elabs_1LSYEHW.sdf', '/opt/xchem-fragalysis-2/maxwin/BulkDock/OUTPUTS/openbind_d68ev3c_c2_elabs_1LSYI5W.sdf']

$$$$
P65607
     RDKit          3D

 21 22  0  0  0  0  0  0  0  0999 V2000
    3.9662   -3.3018   34.3133 C   0  0  0  0  0  0  0  0  0  0  0  0
    2.5070   -3.6537   34.4406 C   0  0  0  0  0  0  0  0  0  0  0  0
    1.8268   -3.9304   33.4518 O   0  0  0  0  0  0  0  0  0  0  0  0
    1.8835   -3.6494   35.7975 C   0  0  0  0  0  0  0  0  0  0  0  0
    2.4078   -2.8390   36.8148 C   0  0  0  0  0  0  0  0  0  0  0  0
    1.8575   -2.8925   38.0976 C   0  0  0  0  0  0  0  0  0  0  0  0
    2.5783   -1.7961   39.4607 Br  0  0  0  0  0  0  0  0  0  0  0  0
    0.7925   -3.7474   38.3680 C   0  0  0  0  0  0  0  0  0  0  0  0
    0.2412   -3.7928   39.5896 F   0  0  0  0  0  0  0  0  0  0  0  0
    0.2713   -4.5626   37.3708 C   0  0  0  0  0  0  0  0  0  0  0  0
    0.8069   -4.5092   36.0817 C   0  0  0  0  0  0  0  0  0  0  0  0
    0.2565   -5.3154   35.0922 N   0  0  0  0  0  0  0  0  0  0  0  0
   -0.4113   -6.7041   35.1864 C   0  0  0  0  0  0  0  0  0  0  0  0
   -0.6731   -7.3549   36.1180 O   0  0  0  0  0  0  0  0  0  0  0  0
   -0.8287   -7.2464   33.8378 C   0  0  0  0  0  0  0  0  0  0  0  0
   -0.1481   -6.8905   32.6628 C   0  0  0  0  0  0  0  0  0  0  0  0
   -0.5856   -7.3883   31.4454 C   0  0  0  0  0  0  0  0  0  0  0  0
   -1.6266   -8.2314   31.3145 N   0  0  0  0  0  0  0  0  0  0  0  0
   -2.2338   -8.6054   32.4631 C   0  0  0  0  0  0  0  0  0  0  0  0
   -1.8992   -8.1530   33.7360 C   0  0  0  0  0  0  0  0  0  0  0  0
   -2.9728   -8.7174   35.0430 S   0  0  0  0  0  0  0  0  0  0  0  0
  1  2  1  0
  2  3  2  0
  2  4  1  0
  4  5  2  0
  5  6  1  0
  6  7  1  0
  6  8  2  0
  8  9  1  0
  8 10  1  0
 10 11  2  0
 11 12  1  0
 12 13  1  0
 13 14  2  0
 13 15  1  0
 15 16  2  0
 16 17  1  0
 17 18  2  0
 18 19  1  0
 19 20  2  0
 20 21  1  0
 11  4  1  0
 20 15  1  0
M  END
>  <ref_mols>  (436) 
7gov-a

>  <gnina_score>  (436) 
5.217

>  <smina_score_min>  (436) 
-5.454

>  <ref_pdb>  (436) 
7gov-a

>  <inspiration_score>  (436) 
None

>  <inchikey>  (436) 
MYAQXBLRNKMKRH-UHFFFAOYSA-N

>  <tags>  (436) 
BulkDock Fragalysis export,openbind_d68ev3c_c2_elabs_scored,openbind_d68ev3c_c2_elabs_scored_4.5plus,openbind_d68ev3c_c2_elabs,openbind_d68ev3c_c2_elabs_scored_5plus,syndirella_product,openbind_d68ev3c_c2_elabs_scored_top80percent,syndirella_placed

>  <smiles>  (436) 
CC(=O)c1cc(Br)c(F)cc1NC(=O)c1ccncc1S

>  <subsites>  (436) 
None

>  <rmsd(smina/fragmenstein)>  (436) 
0.984

>  <alias>  (436) 
None

>  <energy_score>  (436) 
-21.307505

>  <HIPPO Pose ID>  (436) 
65607

>  <distance_score>  (436) 
0.597595

>  <HIPPO Compound ID>  (436) 
102951

>  <gnina_score_min>  (436) 
5.181

>  <name>  (436) 
P65607

>  <exports>  (436) 
['/opt/xchem-fragalysis-2/maxwin/BulkDock/OUTPUTS/openbind_d68ev3c_c2_elabs_1LOTQJ3.sdf', '/opt/xchem-fragalysis-2/maxwin/BulkDock/OUTPUTS/openbind_d68ev3c_c2_elabs_1LSYEHW.sdf', '/opt/xchem-fragalysis-2/maxwin/BulkDock/OUTPUTS/openbind_d68ev3c_c2_elabs_1LSYI5W.sdf']

$$$$
P65609
     RDKit          3D

 21 22  0  0  0  0  0  0  0  0999 V2000
    2.2000   -1.8920   39.2335 C   0  0  0  0  0  0  0  0  0  0  0  0
    1.7839   -2.7664   38.0854 C   0  0  0  0  0  0  0  0  0  0  0  0
    0.7843   -3.7178   38.2890 C   0  0  0  0  0  0  0  0  0  0  0  0
    0.1928   -3.8246   39.4887 F   0  0  0  0  0  0  0  0  0  0  0  0
    0.3584   -4.5564   37.2699 C   0  0  0  0  0  0  0  0  0  0  0  0
    0.9261   -4.4551   36.0005 C   0  0  0  0  0  0  0  0  0  0  0  0
    0.4347   -5.2799   34.9932 N   0  0  0  0  0  0  0  0  0  0  0  0
   -0.2174   -6.6763   35.0702 C   0  0  0  0  0  0  0  0  0  0  0  0
   -0.3749   -7.3866   35.9802 O   0  0  0  0  0  0  0  0  0  0  0  0
   -0.7233   -7.1661   33.7421 C   0  0  0  0  0  0  0  0  0  0  0  0
   -0.1230   -6.7771   32.5373 C   0  0  0  0  0  0  0  0  0  0  0  0
   -0.6518   -7.2440   31.3477 C   0  0  0  0  0  0  0  0  0  0  0  0
   -0.1654   -6.7626   30.1971 F   0  0  0  0  0  0  0  0  0  0  0  0
   -1.6820   -8.1087   31.2658 N   0  0  0  0  0  0  0  0  0  0  0  0
   -2.2063   -8.5172   32.4415 C   0  0  0  0  0  0  0  0  0  0  0  0
   -1.8000   -8.0627   33.6863 C   0  0  0  0  0  0  0  0  0  0  0  0
   -2.7717   -8.5615   35.0180 Cl  0  0  0  0  0  0  0  0  0  0  0  0
    1.9570   -3.5326   35.7479 C   0  0  0  0  0  0  0  0  0  0  0  0
    2.6541   -3.4948   34.4105 C   0  0  0  0  0  0  0  0  0  0  0  0
    2.3659   -2.6795   36.8043 C   0  0  0  0  0  0  0  0  0  0  0  0
    3.7233   -1.3619   36.4930 Br  0  0  0  0  0  0  0  0  0  0  0  0
  1  2  1  0
  2  3  2  0
  3  4  1  0
  3  5  1  0
  5  6  2  0
  6  7  1  0
  7  8  1  0
  8  9  2  0
  8 10  1  0
 10 11  2  0
 11 12  1  0
 12 13  1  0
 12 14  2  0
 14 15  1  0
 15 16  2  0
 16 17  1  0
  6 18  1  0
 18 19  1  0
 18 20  2  0
 20 21  1  0
 20  2  1  0
 16 10  1  0
M  END
>  <ref_mols>  (437) 
7gov-a

>  <gnina_score>  (437) 
5.228

>  <smina_score_min>  (437) 
-6.249

>  <ref_pdb>  (437) 
7gov-a

>  <inspiration_score>  (437) 
None

>  <inchikey>  (437) 
QVLFJGCVMODGKM-UHFFFAOYSA-N

>  <tags>  (437) 
BulkDock Fragalysis export,openbind_d68ev3c_c2_elabs_scored,openbind_d68ev3c_c2_elabs_scored_4.5plus,openbind_d68ev3c_c2_elabs,openbind_d68ev3c_c2_elabs_scored_5plus,syndirella_product,openbind_d68ev3c_c2_elabs_scored_top80percent,syndirella_placed

>  <smiles>  (437) 
Cc1c(F)cc(NC(=O)c2cc(F)ncc2Cl)c(C)c1Br

>  <subsites>  (437) 
None

>  <rmsd(smina/fragmenstein)>  (437) 
1.084

>  <alias>  (437) 
None

>  <energy_score>  (437) 
-9.259597

>  <HIPPO Pose ID>  (437) 
65609

>  <distance_score>  (437) 
0.531132

>  <HIPPO Compound ID>  (437) 
102955

>  <gnina_score_min>  (437) 
5.291

>  <name>  (437) 
P65609

>  <exports>  (437) 
['/opt/xchem-fragalysis-2/maxwin/BulkDock/OUTPUTS/openbind_d68ev3c_c2_elabs_1LOTQJ3.sdf', '/opt/xchem-fragalysis-2/maxwin/BulkDock/OUTPUTS/openbind_d68ev3c_c2_elabs_1LSYEHW.sdf', '/opt/xchem-fragalysis-2/maxwin/BulkDock/OUTPUTS/openbind_d68ev3c_c2_elabs_1LSYI5W.sdf']

$$$$
P65610
     RDKit          3D

 21 22  0  0  0  0  0  0  0  0999 V2000
    2.6283   -3.6115   34.4469 C   0  0  0  0  0  0  0  0  0  0  0  0
    1.9521   -3.5927   35.7960 C   0  0  0  0  0  0  0  0  0  0  0  0
    2.4272   -2.7821   36.8519 C   0  0  0  0  0  0  0  0  0  0  0  0
    3.5385   -1.8876   36.6869 C   0  0  0  0  0  0  0  0  0  0  0  0
    4.4252   -1.1486   36.5596 N   0  0  0  0  0  0  0  0  0  0  0  0
    1.8251   -2.8370   38.1159 C   0  0  0  0  0  0  0  0  0  0  0  0
    0.7770   -3.7142   38.3416 C   0  0  0  0  0  0  0  0  0  0  0  0
    0.2025   -3.7572   39.5507 F   0  0  0  0  0  0  0  0  0  0  0  0
    0.3150   -4.5457   37.3347 C   0  0  0  0  0  0  0  0  0  0  0  0
    0.8928   -4.4828   36.0646 C   0  0  0  0  0  0  0  0  0  0  0  0
    0.4165   -5.3281   35.0659 N   0  0  0  0  0  0  0  0  0  0  0  0
   -0.3660   -6.6558   35.1645 C   0  0  0  0  0  0  0  0  0  0  0  0
   -0.6665   -7.2873   36.0965 O   0  0  0  0  0  0  0  0  0  0  0  0
   -0.8057   -7.1849   33.8188 C   0  0  0  0  0  0  0  0  0  0  0  0
   -0.1712   -6.7990   32.6283 C   0  0  0  0  0  0  0  0  0  0  0  0
   -0.6583   -7.2707   31.4217 C   0  0  0  0  0  0  0  0  0  0  0  0
   -0.1432   -6.7797   30.2880 F   0  0  0  0  0  0  0  0  0  0  0  0
   -1.6753   -8.1453   31.3073 N   0  0  0  0  0  0  0  0  0  0  0  0
   -2.2262   -8.5615   32.4674 C   0  0  0  0  0  0  0  0  0  0  0  0
   -1.8650   -8.1015   33.7261 C   0  0  0  0  0  0  0  0  0  0  0  0
   -2.8748   -8.6287   35.0197 Cl  0  0  0  0  0  0  0  0  0  0  0  0
  1  2  1  0
  2  3  2  0
  3  4  1  0
  4  5  3  0
  3  6  1  0
  6  7  2  0
  7  8  1  0
  7  9  1  0
  9 10  2  0
 10 11  1  0
 11 12  1  0
 12 13  2  0
 12 14  1  0
 14 15  2  0
 15 16  1  0
 16 17  1  0
 16 18  2  0
 18 19  1  0
 19 20  2  0
 20 21  1  0
 10  2  1  0
 20 14  1  0
M  END
>  <ref_mols>  (438) 
7gov-a

>  <gnina_score>  (438) 
5.114

>  <smina_score_min>  (438) 
-5.958

>  <ref_pdb>  (438) 
7gov-a

>  <inspiration_score>  (438) 
None

>  <inchikey>  (438) 
YIBUKCPACCOTBT-UHFFFAOYSA-N

>  <tags>  (438) 
BulkDock Fragalysis export,openbind_d68ev3c_c2_elabs_scored,openbind_d68ev3c_c2_elabs_scored_4.5plus,openbind_d68ev3c_c2_elabs,openbind_d68ev3c_c2_elabs_scored_5plus,syndirella_product,openbind_d68ev3c_c2_elabs_scored_top80percent,syndirella_placed

>  <smiles>  (438) 
Cc1c(C#N)cc(F)cc1NC(=O)c1cc(F)ncc1Cl

>  <subsites>  (438) 
None

>  <rmsd(smina/fragmenstein)>  (438) 
1.055

>  <alias>  (438) 
None

>  <energy_score>  (438) 
-11.670884

>  <HIPPO Pose ID>  (438) 
65610

>  <distance_score>  (438) 
0.58846

>  <HIPPO Compound ID>  (438) 
102956

>  <gnina_score_min>  (438) 
5.124

>  <name>  (438) 
P65610

>  <exports>  (438) 
['/opt/xchem-fragalysis-2/maxwin/BulkDock/OUTPUTS/openbind_d68ev3c_c2_elabs_1LOTQJ3.sdf', '/opt/xchem-fragalysis-2/maxwin/BulkDock/OUTPUTS/openbind_d68ev3c_c2_elabs_1LSYEHW.sdf', '/opt/xchem-fragalysis-2/maxwin/BulkDock/OUTPUTS/openbind_d68ev3c_c2_elabs_1LSYI5W.sdf']

$$$$
P65612
     RDKit          3D

 21 22  0  0  0  0  0  0  0  0999 V2000
    3.1772   -2.1591   33.9951 C   0  0  0  0  0  0  0  0  0  0  0  0
    2.5508   -3.5055   34.3823 C   0  0  0  0  0  0  0  0  0  0  0  0
    3.6060   -4.6134   34.3120 C   0  0  0  0  0  0  0  0  0  0  0  0
    1.8602   -3.5204   35.7431 C   0  0  0  0  0  0  0  0  0  0  0  0
    2.3513   -2.7293   36.8012 C   0  0  0  0  0  0  0  0  0  0  0  0
    1.8002   -2.8074   38.0822 C   0  0  0  0  0  0  0  0  0  0  0  0
    0.7681   -3.6969   38.3294 C   0  0  0  0  0  0  0  0  0  0  0  0
    0.2336   -3.7665   39.5560 F   0  0  0  0  0  0  0  0  0  0  0  0
    0.2775   -4.5107   37.3212 C   0  0  0  0  0  0  0  0  0  0  0  0
    0.8090   -4.4174   36.0306 C   0  0  0  0  0  0  0  0  0  0  0  0
    0.2571   -5.2291   35.0436 N   0  0  0  0  0  0  0  0  0  0  0  0
   -0.3295   -6.6538   35.1299 C   0  0  0  0  0  0  0  0  0  0  0  0
   -0.5125   -7.3402   36.0534 O   0  0  0  0  0  0  0  0  0  0  0  0
   -0.7793   -7.1790   33.7935 C   0  0  0  0  0  0  0  0  0  0  0  0
   -0.1535   -6.7872   32.6021 C   0  0  0  0  0  0  0  0  0  0  0  0
   -0.6498   -7.2599   31.4005 C   0  0  0  0  0  0  0  0  0  0  0  0
   -0.1451   -6.7692   30.2619 F   0  0  0  0  0  0  0  0  0  0  0  0
   -1.6680   -8.1362   31.2951 N   0  0  0  0  0  0  0  0  0  0  0  0
   -2.2112   -8.5527   32.4596 C   0  0  0  0  0  0  0  0  0  0  0  0
   -1.8390   -8.0932   33.7140 C   0  0  0  0  0  0  0  0  0  0  0  0
   -2.8348   -8.6046   35.0230 Cl  0  0  0  0  0  0  0  0  0  0  0  0
  1  2  1  0
  2  3  1  0
  2  4  1  0
  4  5  2  0
  5  6  1  0
  6  7  2  0
  7  8  1  0
  7  9  1  0
  9 10  2  0
 10 11  1  0
 11 12  1  0
 12 13  2  0
 12 14  1  0
 14 15  2  0
 15 16  1  0
 16 17  1  0
 16 18  2  0
 18 19  1  0
 19 20  2  0
 20 21  1  0
 10  4  1  0
 20 14  1  0
M  END
>  <ref_mols>  (439) 
7gov-a

>  <gnina_score>  (439) 
5.155

>  <smina_score_min>  (439) 
-5.977

>  <ref_pdb>  (439) 
7gov-a

>  <inspiration_score>  (439) 
None

>  <inchikey>  (439) 
DACSGGBNVKDVNM-UHFFFAOYSA-N

>  <tags>  (439) 
BulkDock Fragalysis export,openbind_d68ev3c_c2_elabs_scored,openbind_d68ev3c_c2_elabs_scored_4.5plus,openbind_d68ev3c_c2_elabs,openbind_d68ev3c_c2_elabs_scored_5plus,syndirella_product,openbind_d68ev3c_c2_elabs_scored_top80percent,syndirella_placed

>  <smiles>  (439) 
CC(C)c1ccc(F)cc1NC(=O)c1cc(F)ncc1Cl

>  <subsites>  (439) 
None

>  <rmsd(smina/fragmenstein)>  (439) 
0.982

>  <alias>  (439) 
None

>  <energy_score>  (439) 
-1.893636

>  <HIPPO Pose ID>  (439) 
65612

>  <distance_score>  (439) 
0.564266

>  <HIPPO Compound ID>  (439) 
102962

>  <gnina_score_min>  (439) 
5.198

>  <name>  (439) 
P65612

>  <exports>  (439) 
['/opt/xchem-fragalysis-2/maxwin/BulkDock/OUTPUTS/openbind_d68ev3c_c2_elabs_1LOTQJ3.sdf', '/opt/xchem-fragalysis-2/maxwin/BulkDock/OUTPUTS/openbind_d68ev3c_c2_elabs_1LSYEHW.sdf', '/opt/xchem-fragalysis-2/maxwin/BulkDock/OUTPUTS/openbind_d68ev3c_c2_elabs_1LSYI5W.sdf']

$$$$
P65613
     RDKit          3D

 21 23  0  0  0  0  0  0  0  0999 V2000
   -1.3982   -6.6232   35.7921 O   0  0  0  0  0  0  0  0  0  0  0  0
   -0.6375   -6.2753   34.9768 C   0  0  0  0  0  0  0  0  0  0  0  0
    0.4794   -5.2150   35.0399 N   0  0  0  0  0  0  0  0  0  0  0  0
    0.9443   -4.4502   36.1107 C   0  0  0  0  0  0  0  0  0  0  0  0
    0.2310   -4.4274   37.3131 C   0  0  0  0  0  0  0  0  0  0  0  0
    0.6719   -3.6275   38.3568 C   0  0  0  0  0  0  0  0  0  0  0  0
   -0.0063   -3.6131   39.5122 F   0  0  0  0  0  0  0  0  0  0  0  0
    1.7978   -2.8326   38.2188 C   0  0  0  0  0  0  0  0  0  0  0  0
    2.5042   -2.8494   37.0158 C   0  0  0  0  0  0  0  0  0  0  0  0
    2.1121   -3.6689   35.9385 C   0  0  0  0  0  0  0  0  0  0  0  0
    2.9205   -3.6674   34.6524 C   0  0  0  0  0  0  0  0  0  0  0  0
    3.6469   -4.9227   34.2197 C   0  0  0  0  0  0  0  0  0  0  0  0
    4.4316   -3.7393   34.6902 C   0  0  0  0  0  0  0  0  0  0  0  0
   -0.7932   -6.9078   33.6181 C   0  0  0  0  0  0  0  0  0  0  0  0
   -1.5712   -8.0780   33.6120 C   0  0  0  0  0  0  0  0  0  0  0  0
   -1.9043   -8.6494   32.4066 C   0  0  0  0  0  0  0  0  0  0  0  0
   -2.7219   -9.7024   32.3952 F   0  0  0  0  0  0  0  0  0  0  0  0
   -1.4954   -8.1940   31.2110 N   0  0  0  0  0  0  0  0  0  0  0  0
   -0.6951   -7.1068   31.2353 C   0  0  0  0  0  0  0  0  0  0  0  0
   -0.3419   -6.4109   32.3883 C   0  0  0  0  0  0  0  0  0  0  0  0
    0.5478   -4.9581   32.1437 Cl  0  0  0  0  0  0  0  0  0  0  0  0
  1  2  2  0
  2  3  1  0
  3  4  1  0
  4  5  2  0
  5  6  1  0
  6  7  1  0
  6  8  2  0
  8  9  1  0
  9 10  2  0
 10 11  1  0
 11 12  1  0
 12 13  1  0
  2 14  1  0
 14 15  2  0
 15 16  1  0
 16 17  1  0
 16 18  2  0
 18 19  1  0
 19 20  2  0
 20 21  1  0
 10  4  1  0
 13 11  1  0
 20 14  1  0
M  END
>  <ref_mols>  (440) 
7gov-a

>  <gnina_score>  (440) 
5.171

>  <smina_score_min>  (440) 
-5.857

>  <ref_pdb>  (440) 
7gov-a

>  <inspiration_score>  (440) 
None

>  <inchikey>  (440) 
OODMSALQAGSVGP-UHFFFAOYSA-N

>  <tags>  (440) 
BulkDock Fragalysis export,openbind_d68ev3c_c2_elabs_scored,openbind_d68ev3c_c2_elabs_scored_4.5plus,openbind_d68ev3c_c2_elabs,openbind_d68ev3c_c2_elabs_scored_5plus,syndirella_product,openbind_d68ev3c_c2_elabs_scored_top80percent,syndirella_placed

>  <smiles>  (440) 
O=C(Nc1cc(F)ccc1C1CC1)c1cc(F)ncc1Cl

>  <subsites>  (440) 
None

>  <rmsd(smina/fragmenstein)>  (440) 
1.092

>  <alias>  (440) 
None

>  <energy_score>  (440) 
-26.13176

>  <HIPPO Pose ID>  (440) 
65613

>  <distance_score>  (440) 
0.730403

>  <HIPPO Compound ID>  (440) 
102963

>  <gnina_score_min>  (440) 
5.027

>  <name>  (440) 
P65613

>  <exports>  (440) 
['/opt/xchem-fragalysis-2/maxwin/BulkDock/OUTPUTS/openbind_d68ev3c_c2_elabs_1LOTQJ3.sdf', '/opt/xchem-fragalysis-2/maxwin/BulkDock/OUTPUTS/openbind_d68ev3c_c2_elabs_1LSYEHW.sdf', '/opt/xchem-fragalysis-2/maxwin/BulkDock/OUTPUTS/openbind_d68ev3c_c2_elabs_1LSYI5W.sdf']

$$$$
P65614
     RDKit          3D

 21 22  0  0  0  0  0  0  0  0999 V2000
    3.7557   -4.9743   34.7652 C   0  0  0  0  0  0  0  0  0  0  0  0
    2.4423   -4.2481   34.6848 C   0  0  0  0  0  0  0  0  0  0  0  0
    1.9564   -3.8773   33.6169 O   0  0  0  0  0  0  0  0  0  0  0  0
    1.7181   -3.9683   35.9522 C   0  0  0  0  0  0  0  0  0  0  0  0
    2.3572   -3.2454   36.9632 C   0  0  0  0  0  0  0  0  0  0  0  0
    1.6630   -2.9466   38.1350 C   0  0  0  0  0  0  0  0  0  0  0  0
    0.3324   -3.3362   38.2667 C   0  0  0  0  0  0  0  0  0  0  0  0
   -0.3038   -3.1002   39.4206 F   0  0  0  0  0  0  0  0  0  0  0  0
   -0.3388   -3.9978   37.2440 C   0  0  0  0  0  0  0  0  0  0  0  0
    0.3664   -4.3361   36.0957 C   0  0  0  0  0  0  0  0  0  0  0  0
   -0.2202   -5.1803   35.1697 N   0  0  0  0  0  0  0  0  0  0  0  0
    0.1522   -6.6078   34.7455 C   0  0  0  0  0  0  0  0  0  0  0  0
    0.9640   -7.3311   35.1609 O   0  0  0  0  0  0  0  0  0  0  0  0
   -0.6031   -7.0415   33.5646 C   0  0  0  0  0  0  0  0  0  0  0  0
   -0.1336   -6.6299   32.3166 C   0  0  0  0  0  0  0  0  0  0  0  0
   -0.7455   -7.1598   31.2036 C   0  0  0  0  0  0  0  0  0  0  0  0
   -0.3757   -6.7304   29.9905 F   0  0  0  0  0  0  0  0  0  0  0  0
   -1.7565   -8.0595   31.2559 N   0  0  0  0  0  0  0  0  0  0  0  0
   -2.1667   -8.4426   32.4886 C   0  0  0  0  0  0  0  0  0  0  0  0
   -1.6455   -7.9471   33.6678 C   0  0  0  0  0  0  0  0  0  0  0  0
   -2.3764   -8.3765   35.1492 Cl  0  0  0  0  0  0  0  0  0  0  0  0
  1  2  1  0
  2  3  2  0
  2  4  1  0
  4  5  2  0
  5  6  1  0
  6  7  2  0
  7  8  1  0
  7  9  1  0
  9 10  2  0
 10 11  1  0
 11 12  1  0
 12 13  2  0
 12 14  1  0
 14 15  2  0
 15 16  1  0
 16 17  1  0
 16 18  2  0
 18 19  1  0
 19 20  2  0
 20 21  1  0
 10  4  1  0
 20 14  1  0
M  END
>  <ref_mols>  (441) 
7gov-a

>  <gnina_score>  (441) 
5.034

>  <smina_score_min>  (441) 
-6.137

>  <ref_pdb>  (441) 
7gov-a

>  <inspiration_score>  (441) 
None

>  <inchikey>  (441) 
HGEQDIRXHJYHCX-UHFFFAOYSA-N

>  <tags>  (441) 
BulkDock Fragalysis export,openbind_d68ev3c_c2_elabs_scored,openbind_d68ev3c_c2_elabs_scored_4.5plus,openbind_d68ev3c_c2_elabs,openbind_d68ev3c_c2_elabs_scored_5plus,syndirella_product,openbind_d68ev3c_c2_elabs_scored_top80percent,syndirella_placed

>  <smiles>  (441) 
CC(=O)c1ccc(F)cc1NC(=O)c1cc(F)ncc1Cl

>  <subsites>  (441) 
None

>  <rmsd(smina/fragmenstein)>  (441) 
1.021

>  <alias>  (441) 
None

>  <energy_score>  (441) 
-4.155458

>  <HIPPO Pose ID>  (441) 
65614

>  <distance_score>  (441) 
0.385256

>  <HIPPO Compound ID>  (441) 
102964

>  <gnina_score_min>  (441) 
5.115

>  <name>  (441) 
P65614

>  <exports>  (441) 
['/opt/xchem-fragalysis-2/maxwin/BulkDock/OUTPUTS/openbind_d68ev3c_c2_elabs_1LOTQJ3.sdf', '/opt/xchem-fragalysis-2/maxwin/BulkDock/OUTPUTS/openbind_d68ev3c_c2_elabs_1LSYEHW.sdf', '/opt/xchem-fragalysis-2/maxwin/BulkDock/OUTPUTS/openbind_d68ev3c_c2_elabs_1LSYI5W.sdf']

$$$$
P65616
     RDKit          3D

 21 22  0  0  0  0  0  0  0  0999 V2000
    3.4227   -2.5380   34.1313 O   0  0  0  0  0  0  0  0  0  0  0  0
    2.7447   -3.5022   34.4665 C   0  0  0  0  0  0  0  0  0  0  0  0
    2.0123   -3.5351   35.7484 C   0  0  0  0  0  0  0  0  0  0  0  0
    2.4452   -2.6921   36.7819 C   0  0  0  0  0  0  0  0  0  0  0  0
    1.8542   -2.7834   38.0416 C   0  0  0  0  0  0  0  0  0  0  0  0
    2.4529   -1.6544   39.4351 Br  0  0  0  0  0  0  0  0  0  0  0  0
    0.8379   -3.7074   38.2665 C   0  0  0  0  0  0  0  0  0  0  0  0
    0.2432   -3.7972   39.4655 F   0  0  0  0  0  0  0  0  0  0  0  0
    0.4065   -4.5482   37.2442 C   0  0  0  0  0  0  0  0  0  0  0  0
    0.9827   -4.4590   35.9724 C   0  0  0  0  0  0  0  0  0  0  0  0
    0.4837   -5.2792   34.9616 N   0  0  0  0  0  0  0  0  0  0  0  0
   -0.1550   -6.6813   35.0332 C   0  0  0  0  0  0  0  0  0  0  0  0
   -0.2939   -7.4017   35.9375 O   0  0  0  0  0  0  0  0  0  0  0  0
   -0.6870   -7.1585   33.7114 C   0  0  0  0  0  0  0  0  0  0  0  0
   -0.1018   -6.7703   32.4994 C   0  0  0  0  0  0  0  0  0  0  0  0
   -0.6488   -7.2357   31.3174 C   0  0  0  0  0  0  0  0  0  0  0  0
   -0.1744   -6.7588   30.1601 F   0  0  0  0  0  0  0  0  0  0  0  0
   -1.6844   -8.0950   31.2505 N   0  0  0  0  0  0  0  0  0  0  0  0
   -2.1977   -8.4994   32.4322 C   0  0  0  0  0  0  0  0  0  0  0  0
   -1.7720   -8.0466   33.6705 C   0  0  0  0  0  0  0  0  0  0  0  0
   -2.7288   -8.5348   35.0162 Cl  0  0  0  0  0  0  0  0  0  0  0  0
  1  2  2  0
  2  3  1  0
  3  4  2  0
  4  5  1  0
  5  6  1  0
  5  7  2  0
  7  8  1  0
  7  9  1  0
  9 10  2  0
 10 11  1  0
 11 12  1  0
 12 13  2  0
 12 14  1  0
 14 15  2  0
 15 16  1  0
 16 17  1  0
 16 18  2  0
 18 19  1  0
 19 20  2  0
 20 21  1  0
 10  3  1  0
 20 14  1  0
M  END
>  <ref_mols>  (442) 
7gov-a

>  <gnina_score>  (442) 
5.152

>  <smina_score_min>  (442) 
-6.301

>  <ref_pdb>  (442) 
7gov-a

>  <inspiration_score>  (442) 
None

>  <inchikey>  (442) 
PFTIEJQRSHAVQC-UHFFFAOYSA-N

>  <tags>  (442) 
BulkDock Fragalysis export,openbind_d68ev3c_c2_elabs_scored,openbind_d68ev3c_c2_elabs_scored_4.5plus,openbind_d68ev3c_c2_elabs,openbind_d68ev3c_c2_elabs_scored_5plus,syndirella_product,openbind_d68ev3c_c2_elabs_scored_top80percent,syndirella_placed

>  <smiles>  (442) 
O=Cc1cc(Br)c(F)cc1NC(=O)c1cc(F)ncc1Cl

>  <subsites>  (442) 
None

>  <rmsd(smina/fragmenstein)>  (442) 
1.341

>  <alias>  (442) 
None

>  <energy_score>  (442) 
-8.038326

>  <HIPPO Pose ID>  (442) 
65616

>  <distance_score>  (442) 
0.509802

>  <HIPPO Compound ID>  (442) 
102973

>  <gnina_score_min>  (442) 
5.221

>  <name>  (442) 
P65616

>  <exports>  (442) 
['/opt/xchem-fragalysis-2/maxwin/BulkDock/OUTPUTS/openbind_d68ev3c_c2_elabs_1LOTQJ3.sdf', '/opt/xchem-fragalysis-2/maxwin/BulkDock/OUTPUTS/openbind_d68ev3c_c2_elabs_1LSYEHW.sdf', '/opt/xchem-fragalysis-2/maxwin/BulkDock/OUTPUTS/openbind_d68ev3c_c2_elabs_1LSYI5W.sdf']

$$$$
P65619
     RDKit          3D

 21 22  0  0  0  0  0  0  0  0999 V2000
   -0.6789   -7.2599   36.0950 O   0  0  0  0  0  0  0  0  0  0  0  0
   -0.3660   -6.6414   35.1582 C   0  0  0  0  0  0  0  0  0  0  0  0
    0.4192   -5.3164   35.0511 N   0  0  0  0  0  0  0  0  0  0  0  0
    0.8838   -4.4589   36.0428 C   0  0  0  0  0  0  0  0  0  0  0  0
    0.3523   -4.5424   37.3323 C   0  0  0  0  0  0  0  0  0  0  0  0
    0.8096   -3.6844   38.3224 C   0  0  0  0  0  0  0  0  0  0  0  0
    0.2759   -3.7474   39.5496 F   0  0  0  0  0  0  0  0  0  0  0  0
    1.8079   -2.7580   38.0580 C   0  0  0  0  0  0  0  0  0  0  0  0
    2.3490   -2.6786   36.7742 C   0  0  0  0  0  0  0  0  0  0  0  0
    1.8779   -3.5132   35.7429 C   0  0  0  0  0  0  0  0  0  0  0  0
    2.5215   -3.4359   34.3832 C   0  0  0  0  0  0  0  0  0  0  0  0
    3.6087   -4.2412   34.2503 F   0  0  0  0  0  0  0  0  0  0  0  0
    1.6750   -3.7860   33.3649 F   0  0  0  0  0  0  0  0  0  0  0  0
   -0.7993   -7.1801   33.8130 C   0  0  0  0  0  0  0  0  0  0  0  0
   -0.1667   -6.7960   32.6203 C   0  0  0  0  0  0  0  0  0  0  0  0
   -0.6544   -7.2707   31.4152 C   0  0  0  0  0  0  0  0  0  0  0  0
   -0.1434   -6.7814   30.2788 F   0  0  0  0  0  0  0  0  0  0  0  0
   -1.6703   -8.1479   31.3036 N   0  0  0  0  0  0  0  0  0  0  0  0
   -2.2185   -8.5623   32.4653 C   0  0  0  0  0  0  0  0  0  0  0  0
   -1.8569   -8.0990   33.7228 C   0  0  0  0  0  0  0  0  0  0  0  0
   -2.8661   -8.6273   35.0169 Cl  0  0  0  0  0  0  0  0  0  0  0  0
  1  2  2  0
  2  3  1  0
  3  4  1  0
  4  5  2  0
  5  6  1  0
  6  7  1  0
  6  8  2  0
  8  9  1  0
  9 10  2  0
 10 11  1  0
 11 12  1  0
 11 13  1  0
  2 14  1  0
 14 15  2  0
 15 16  1  0
 16 17  1  0
 16 18  2  0
 18 19  1  0
 19 20  2  0
 20 21  1  0
 10  4  1  0
 20 14  1  0
M  END
>  <ref_mols>  (443) 
7gov-a

>  <gnina_score>  (443) 
5.031

>  <smina_score_min>  (443) 
-6.111

>  <ref_pdb>  (443) 
7gov-a

>  <inspiration_score>  (443) 
None

>  <inchikey>  (443) 
UXHQCJOUNIGFMH-UHFFFAOYSA-N

>  <tags>  (443) 
BulkDock Fragalysis export,openbind_d68ev3c_c2_elabs_scored,openbind_d68ev3c_c2_elabs_scored_4.5plus,openbind_d68ev3c_c2_elabs,openbind_d68ev3c_c2_elabs_scored_5plus,syndirella_product,openbind_d68ev3c_c2_elabs_scored_top80percent,syndirella_placed

>  <smiles>  (443) 
O=C(Nc1cc(F)ccc1C(F)F)c1cc(F)ncc1Cl

>  <subsites>  (443) 
None

>  <rmsd(smina/fragmenstein)>  (443) 
1.048

>  <alias>  (443) 
None

>  <energy_score>  (443) 
-11.768046

>  <HIPPO Pose ID>  (443) 
65619

>  <distance_score>  (443) 
0.616508

>  <HIPPO Compound ID>  (443) 
102976

>  <gnina_score_min>  (443) 
5.069

>  <name>  (443) 
P65619

>  <exports>  (443) 
['/opt/xchem-fragalysis-2/maxwin/BulkDock/OUTPUTS/openbind_d68ev3c_c2_elabs_1LOTQJ3.sdf', '/opt/xchem-fragalysis-2/maxwin/BulkDock/OUTPUTS/openbind_d68ev3c_c2_elabs_1LSYEHW.sdf', '/opt/xchem-fragalysis-2/maxwin/BulkDock/OUTPUTS/openbind_d68ev3c_c2_elabs_1LSYI5W.sdf']

$$$$
P65620
     RDKit          3D

 21 22  0  0  0  0  0  0  0  0999 V2000
    3.5953   -3.7263   33.7363 C   0  0  0  0  0  0  0  0  0  0  0  0
    2.9327   -3.7159   34.7378 C   0  0  0  0  0  0  0  0  0  0  0  0
    2.1586   -3.6982   35.9469 C   0  0  0  0  0  0  0  0  0  0  0  0
    2.6067   -2.9011   37.0056 C   0  0  0  0  0  0  0  0  0  0  0  0
    1.8996   -2.8842   38.2019 C   0  0  0  0  0  0  0  0  0  0  0  0
    2.3410   -2.1246   39.2149 F   0  0  0  0  0  0  0  0  0  0  0  0
    0.7448   -3.6409   38.3480 C   0  0  0  0  0  0  0  0  0  0  0  0
    0.0657   -3.6144   39.5035 F   0  0  0  0  0  0  0  0  0  0  0  0
    0.2767   -4.4260   37.2999 C   0  0  0  0  0  0  0  0  0  0  0  0
    0.9856   -4.4651   36.0948 C   0  0  0  0  0  0  0  0  0  0  0  0
    0.5102   -5.2291   35.0272 N   0  0  0  0  0  0  0  0  0  0  0  0
   -0.6206   -6.2746   34.9693 C   0  0  0  0  0  0  0  0  0  0  0  0
   -1.3858   -6.6082   35.7862 O   0  0  0  0  0  0  0  0  0  0  0  0
   -0.7849   -6.9112   33.6134 C   0  0  0  0  0  0  0  0  0  0  0  0
   -1.5729   -8.0745   33.6130 C   0  0  0  0  0  0  0  0  0  0  0  0
   -1.9132   -8.6470   32.4100 C   0  0  0  0  0  0  0  0  0  0  0  0
   -2.7417   -9.6914   32.4036 F   0  0  0  0  0  0  0  0  0  0  0  0
   -1.5021   -8.1991   31.2123 N   0  0  0  0  0  0  0  0  0  0  0  0
   -0.6929   -7.1185   31.2311 C   0  0  0  0  0  0  0  0  0  0  0  0
   -0.3316   -6.4222   32.3810 C   0  0  0  0  0  0  0  0  0  0  0  0
    0.5711   -4.9788   32.1310 Cl  0  0  0  0  0  0  0  0  0  0  0  0
  1  2  3  0
  2  3  1  0
  3  4  2  0
  4  5  1  0
  5  6  1  0
  5  7  2  0
  7  8  1  0
  7  9  1  0
  9 10  2  0
 10 11  1  0
 11 12  1  0
 12 13  2  0
 12 14  1  0
 14 15  2  0
 15 16  1  0
 16 17  1  0
 16 18  2  0
 18 19  1  0
 19 20  2  0
 20 21  1  0
 10  3  1  0
 20 14  1  0
M  END
>  <ref_mols>  (444) 
7gov-a

>  <gnina_score>  (444) 
5.188

>  <smina_score_min>  (444) 
-5.854

>  <ref_pdb>  (444) 
7gov-a

>  <inspiration_score>  (444) 
None

>  <inchikey>  (444) 
PBQQQNPDJZUGFY-UHFFFAOYSA-N

>  <tags>  (444) 
BulkDock Fragalysis export,openbind_d68ev3c_c2_elabs_scored,openbind_d68ev3c_c2_elabs_scored_4.5plus,openbind_d68ev3c_c2_elabs,openbind_d68ev3c_c2_elabs_scored_5plus,syndirella_product,openbind_d68ev3c_c2_elabs_scored_top80percent,syndirella_placed

>  <smiles>  (444) 
C#Cc1cc(F)c(F)cc1NC(=O)c1cc(F)ncc1Cl

>  <subsites>  (444) 
None

>  <rmsd(smina/fragmenstein)>  (444) 
1.156

>  <alias>  (444) 
None

>  <energy_score>  (444) 
-13.820517

>  <HIPPO Pose ID>  (444) 
65620

>  <distance_score>  (444) 
0.724614

>  <HIPPO Compound ID>  (444) 
102977

>  <gnina_score_min>  (444) 
5.029

>  <name>  (444) 
P65620

>  <exports>  (444) 
['/opt/xchem-fragalysis-2/maxwin/BulkDock/OUTPUTS/openbind_d68ev3c_c2_elabs_1LOTQJ3.sdf', '/opt/xchem-fragalysis-2/maxwin/BulkDock/OUTPUTS/openbind_d68ev3c_c2_elabs_1LSYEHW.sdf', '/opt/xchem-fragalysis-2/maxwin/BulkDock/OUTPUTS/openbind_d68ev3c_c2_elabs_1LSYI5W.sdf']

$$$$
P65624
     RDKit          3D

 21 22  0  0  0  0  0  0  0  0999 V2000
    2.5475   -4.4901   33.6281 O   0  0  0  0  0  0  0  0  0  0  0  0
    2.9852   -3.9284   34.6272 C   0  0  0  0  0  0  0  0  0  0  0  0
    2.2032   -3.8157   35.8791 C   0  0  0  0  0  0  0  0  0  0  0  0
    2.7028   -2.9839   36.8874 C   0  0  0  0  0  0  0  0  0  0  0  0
    2.0009   -2.8662   38.0825 C   0  0  0  0  0  0  0  0  0  0  0  0
    2.4885   -2.0781   39.0511 F   0  0  0  0  0  0  0  0  0  0  0  0
    0.8071   -3.5504   38.2723 C   0  0  0  0  0  0  0  0  0  0  0  0
    0.1386   -3.4330   39.4279 F   0  0  0  0  0  0  0  0  0  0  0  0
    0.2924   -4.3614   37.2672 C   0  0  0  0  0  0  0  0  0  0  0  0
    0.9944   -4.5095   36.0660 C   0  0  0  0  0  0  0  0  0  0  0  0
    0.4841   -5.3248   35.0575 N   0  0  0  0  0  0  0  0  0  0  0  0
   -0.7591   -6.2395   35.0407 C   0  0  0  0  0  0  0  0  0  0  0  0
   -1.5928   -6.3952   35.8401 O   0  0  0  0  0  0  0  0  0  0  0  0
   -0.9460   -6.9578   33.7259 C   0  0  0  0  0  0  0  0  0  0  0  0
   -0.4150   -6.4452   32.5324 C   0  0  0  0  0  0  0  0  0  0  0  0
   -0.7169   -7.0760   31.3376 C   0  0  0  0  0  0  0  0  0  0  0  0
   -0.2878   -6.5206   30.1966 F   0  0  0  0  0  0  0  0  0  0  0  0
   -1.5076   -8.1635   31.2335 N   0  0  0  0  0  0  0  0  0  0  0  0
   -1.9972   -8.6487   32.3937 C   0  0  0  0  0  0  0  0  0  0  0  0
   -1.7775   -8.0855   33.6418 C   0  0  0  0  0  0  0  0  0  0  0  0
   -2.6716   -8.7854   34.9339 Cl  0  0  0  0  0  0  0  0  0  0  0  0
  1  2  2  0
  2  3  1  0
  3  4  2  0
  4  5  1  0
  5  6  1  0
  5  7  2  0
  7  8  1  0
  7  9  1  0
  9 10  2  0
 10 11  1  0
 11 12  1  0
 12 13  2  0
 12 14  1  0
 14 15  2  0
 15 16  1  0
 16 17  1  0
 16 18  2  0
 18 19  1  0
 19 20  2  0
 20 21  1  0
 10  3  1  0
 20 14  1  0
M  END
>  <ref_mols>  (445) 
7gov-a

>  <gnina_score>  (445) 
5.125

>  <smina_score_min>  (445) 
-5.997

>  <ref_pdb>  (445) 
7gov-a

>  <inspiration_score>  (445) 
None

>  <inchikey>  (445) 
MOXHOLLLWVSYTO-UHFFFAOYSA-N

>  <tags>  (445) 
BulkDock Fragalysis export,openbind_d68ev3c_c2_elabs_scored,openbind_d68ev3c_c2_elabs_scored_4.5plus,openbind_d68ev3c_c2_elabs,openbind_d68ev3c_c2_elabs_scored_5plus,syndirella_product,openbind_d68ev3c_c2_elabs_scored_top80percent,syndirella_placed

>  <smiles>  (445) 
O=Cc1cc(F)c(F)cc1NC(=O)c1cc(F)ncc1Cl

>  <subsites>  (445) 
None

>  <rmsd(smina/fragmenstein)>  (445) 
1.161

>  <alias>  (445) 
None

>  <energy_score>  (445) 
-18.365227

>  <HIPPO Pose ID>  (445) 
65624

>  <distance_score>  (445) 
0.801462

>  <HIPPO Compound ID>  (445) 
102983

>  <gnina_score_min>  (445) 
5.071

>  <name>  (445) 
P65624

>  <exports>  (445) 
['/opt/xchem-fragalysis-2/maxwin/BulkDock/OUTPUTS/openbind_d68ev3c_c2_elabs_1LOTQJ3.sdf', '/opt/xchem-fragalysis-2/maxwin/BulkDock/OUTPUTS/openbind_d68ev3c_c2_elabs_1LSYEHW.sdf', '/opt/xchem-fragalysis-2/maxwin/BulkDock/OUTPUTS/openbind_d68ev3c_c2_elabs_1LSYI5W.sdf']

$$$$
P65629
     RDKit          3D

 21 22  0  0  0  0  0  0  0  0999 V2000
    3.3655   -2.4487   34.0859 O   0  0  0  0  0  0  0  0  0  0  0  0
    2.6725   -3.4087   34.4011 C   0  0  0  0  0  0  0  0  0  0  0  0
    1.9841   -3.4792   35.7047 C   0  0  0  0  0  0  0  0  0  0  0  0
    2.4480   -2.6707   36.7520 C   0  0  0  0  0  0  0  0  0  0  0  0
    1.8934   -2.8008   38.0250 C   0  0  0  0  0  0  0  0  0  0  0  0
    2.4655   -1.8016   39.3052 Cl  0  0  0  0  0  0  0  0  0  0  0  0
    0.8859   -3.7350   38.2505 C   0  0  0  0  0  0  0  0  0  0  0  0
    0.3175   -3.8539   39.4601 F   0  0  0  0  0  0  0  0  0  0  0  0
    0.4320   -4.5499   37.2171 C   0  0  0  0  0  0  0  0  0  0  0  0
    0.9668   -4.4130   35.9316 C   0  0  0  0  0  0  0  0  0  0  0  0
    0.4199   -5.1908   34.9150 N   0  0  0  0  0  0  0  0  0  0  0  0
   -0.0592   -6.6552   34.9229 C   0  0  0  0  0  0  0  0  0  0  0  0
   -0.1427   -7.4166   35.7993 O   0  0  0  0  0  0  0  0  0  0  0  0
   -0.5830   -7.0980   33.5871 C   0  0  0  0  0  0  0  0  0  0  0  0
    0.0116   -6.6454   32.4040 C   0  0  0  0  0  0  0  0  0  0  0  0
   -0.5126   -7.0645   31.1945 C   0  0  0  0  0  0  0  0  0  0  0  0
   -0.0260   -6.5288   30.0677 F   0  0  0  0  0  0  0  0  0  0  0  0
   -1.5400   -7.9282   31.0743 N   0  0  0  0  0  0  0  0  0  0  0  0
   -2.0586   -8.3927   32.2280 C   0  0  0  0  0  0  0  0  0  0  0  0
   -1.6539   -7.9945   33.4896 C   0  0  0  0  0  0  0  0  0  0  0  0
   -2.8538   -8.7053   35.0126 I   0  0  0  0  0  0  0  0  0  0  0  0
  1  2  2  0
  2  3  1  0
  3  4  2  0
  4  5  1  0
  5  6  1  0
  5  7  2  0
  7  8  1  0
  7  9  1  0
  9 10  2  0
 10 11  1  0
 11 12  1  0
 12 13  2  0
 12 14  1  0
 14 15  2  0
 15 16  1  0
 16 17  1  0
 16 18  2  0
 18 19  1  0
 19 20  2  0
 20 21  1  0
 10  3  1  0
 20 14  1  0
M  END
>  <ref_mols>  (446) 
7gov-a

>  <gnina_score>  (446) 
5.301

>  <smina_score_min>  (446) 
-5.316

>  <ref_pdb>  (446) 
7gov-a

>  <inspiration_score>  (446) 
None

>  <inchikey>  (446) 
KSJPOZQIKLTCFG-UHFFFAOYSA-N

>  <tags>  (446) 
BulkDock Fragalysis export,openbind_d68ev3c_c2_elabs_scored,openbind_d68ev3c_c2_elabs_scored_4.5plus,openbind_d68ev3c_c2_elabs,openbind_d68ev3c_c2_elabs_scored_5plus,syndirella_product,openbind_d68ev3c_c2_elabs_scored_top80percent,syndirella_placed

>  <smiles>  (446) 
O=Cc1cc(Cl)c(F)cc1NC(=O)c1cc(F)ncc1I

>  <subsites>  (446) 
None

>  <rmsd(smina/fragmenstein)>  (446) 
1.203

>  <alias>  (446) 
None

>  <energy_score>  (446) 
-12.579953

>  <HIPPO Pose ID>  (446) 
65629

>  <distance_score>  (446) 
0.518606

>  <HIPPO Compound ID>  (446) 
102990

>  <gnina_score_min>  (446) 
5.317

>  <name>  (446) 
P65629

>  <exports>  (446) 
['/opt/xchem-fragalysis-2/maxwin/BulkDock/OUTPUTS/openbind_d68ev3c_c2_elabs_1LOTQJ3.sdf', '/opt/xchem-fragalysis-2/maxwin/BulkDock/OUTPUTS/openbind_d68ev3c_c2_elabs_1LSYEHW.sdf', '/opt/xchem-fragalysis-2/maxwin/BulkDock/OUTPUTS/openbind_d68ev3c_c2_elabs_1LSYI5W.sdf']

$$$$
P65631
     RDKit          3D

 21 22  0  0  0  0  0  0  0  0999 V2000
    2.9861   -3.2043   33.2845 C   0  0  0  0  0  0  0  0  0  0  0  0
    2.4976   -3.3140   34.3761 C   0  0  0  0  0  0  0  0  0  0  0  0
    1.9140   -3.4411   35.6806 C   0  0  0  0  0  0  0  0  0  0  0  0
    2.4066   -2.6522   36.7250 C   0  0  0  0  0  0  0  0  0  0  0  0
    1.8851   -2.8007   38.0075 C   0  0  0  0  0  0  0  0  0  0  0  0
    2.3460   -2.0209   38.9962 F   0  0  0  0  0  0  0  0  0  0  0  0
    0.8885   -3.7344   38.2612 C   0  0  0  0  0  0  0  0  0  0  0  0
    0.3625   -3.8458   39.4894 F   0  0  0  0  0  0  0  0  0  0  0  0
    0.4112   -4.5457   37.2394 C   0  0  0  0  0  0  0  0  0  0  0  0
    0.9144   -4.3903   35.9438 C   0  0  0  0  0  0  0  0  0  0  0  0
    0.3854   -5.1768   34.9260 N   0  0  0  0  0  0  0  0  0  0  0  0
   -0.0813   -6.6444   34.9359 C   0  0  0  0  0  0  0  0  0  0  0  0
   -0.1681   -7.4026   35.8152 O   0  0  0  0  0  0  0  0  0  0  0  0
   -0.5870   -7.0977   33.5958 C   0  0  0  0  0  0  0  0  0  0  0  0
    0.0137   -6.6496   32.4138 C   0  0  0  0  0  0  0  0  0  0  0  0
   -0.5063   -7.0692   31.2027 C   0  0  0  0  0  0  0  0  0  0  0  0
   -0.0157   -6.5342   30.0770 F   0  0  0  0  0  0  0  0  0  0  0  0
   -1.5332   -7.9335   31.0781 N   0  0  0  0  0  0  0  0  0  0  0  0
   -2.0551   -8.3966   32.2310 C   0  0  0  0  0  0  0  0  0  0  0  0
   -1.6563   -7.9960   33.4941 C   0  0  0  0  0  0  0  0  0  0  0  0
   -2.8627   -8.7091   35.0122 I   0  0  0  0  0  0  0  0  0  0  0  0
  1  2  3  0
  2  3  1  0
  3  4  2  0
  4  5  1  0
  5  6  1  0
  5  7  2  0
  7  8  1  0
  7  9  1  0
  9 10  2  0
 10 11  1  0
 11 12  1  0
 12 13  2  0
 12 14  1  0
 14 15  2  0
 15 16  1  0
 16 17  1  0
 16 18  2  0
 18 19  1  0
 19 20  2  0
 20 21  1  0
 10  3  1  0
 20 14  1  0
M  END
>  <ref_mols>  (447) 
7gov-a

>  <gnina_score>  (447) 
5.328

>  <smina_score_min>  (447) 
-5.198

>  <ref_pdb>  (447) 
7gov-a

>  <inspiration_score>  (447) 
None

>  <inchikey>  (447) 
XKACJGCUYNHCFU-UHFFFAOYSA-N

>  <tags>  (447) 
BulkDock Fragalysis export,openbind_d68ev3c_c2_elabs_scored,openbind_d68ev3c_c2_elabs_scored_4.5plus,openbind_d68ev3c_c2_elabs,openbind_d68ev3c_c2_elabs_scored_5plus,syndirella_product,openbind_d68ev3c_c2_elabs_scored_top80percent,syndirella_placed

>  <smiles>  (447) 
C#Cc1cc(F)c(F)cc1NC(=O)c1cc(F)ncc1I

>  <subsites>  (447) 
None

>  <rmsd(smina/fragmenstein)>  (447) 
1.182

>  <alias>  (447) 
None

>  <energy_score>  (447) 
-19.905319

>  <HIPPO Pose ID>  (447) 
65631

>  <distance_score>  (447) 
0.538915

>  <HIPPO Compound ID>  (447) 
102992

>  <gnina_score_min>  (447) 
5.372

>  <name>  (447) 
P65631

>  <exports>  (447) 
['/opt/xchem-fragalysis-2/maxwin/BulkDock/OUTPUTS/openbind_d68ev3c_c2_elabs_1LOTQJ3.sdf', '/opt/xchem-fragalysis-2/maxwin/BulkDock/OUTPUTS/openbind_d68ev3c_c2_elabs_1LSYEHW.sdf', '/opt/xchem-fragalysis-2/maxwin/BulkDock/OUTPUTS/openbind_d68ev3c_c2_elabs_1LSYI5W.sdf']

$$$$
P65633
     RDKit          3D

 21 22  0  0  0  0  0  0  0  0999 V2000
    4.4988   -3.3660   34.8224 C   0  0  0  0  0  0  0  0  0  0  0  0
    3.0788   -3.9186   34.7423 C   0  0  0  0  0  0  0  0  0  0  0  0
    2.2069   -3.7959   35.9779 C   0  0  0  0  0  0  0  0  0  0  0  0
    2.5799   -2.9531   37.0433 C   0  0  0  0  0  0  0  0  0  0  0  0
    1.8105   -2.8792   38.2054 C   0  0  0  0  0  0  0  0  0  0  0  0
    2.3809   -1.7751   39.6316 Br  0  0  0  0  0  0  0  0  0  0  0  0
    0.6426   -3.6197   38.3082 C   0  0  0  0  0  0  0  0  0  0  0  0
   -0.1086   -3.5667   39.4183 F   0  0  0  0  0  0  0  0  0  0  0  0
    0.2271   -4.4277   37.2578 C   0  0  0  0  0  0  0  0  0  0  0  0
    1.0008   -4.5248   36.0956 C   0  0  0  0  0  0  0  0  0  0  0  0
    0.5570   -5.3295   35.0432 N   0  0  0  0  0  0  0  0  0  0  0  0
   -0.6830   -6.2407   34.9321 C   0  0  0  0  0  0  0  0  0  0  0  0
   -1.4888   -6.5235   35.7292 O   0  0  0  0  0  0  0  0  0  0  0  0
   -0.8401   -6.8613   33.5756 C   0  0  0  0  0  0  0  0  0  0  0  0
   -1.4888   -8.1048   33.5956 C   0  0  0  0  0  0  0  0  0  0  0  0
   -1.7968   -8.7060   32.3997 C   0  0  0  0  0  0  0  0  0  0  0  0
   -2.4750   -9.8520   32.4096 F   0  0  0  0  0  0  0  0  0  0  0  0
   -1.4737   -8.2128   31.1937 N   0  0  0  0  0  0  0  0  0  0  0  0
   -0.8062   -7.0416   31.1914 C   0  0  0  0  0  0  0  0  0  0  0  0
   -0.5100   -6.3016   32.3339 C   0  0  0  0  0  0  0  0  0  0  0  0
    0.2077   -4.3804   31.9632 I   0  0  0  0  0  0  0  0  0  0  0  0
  1  2  1  0
  2  3  1  0
  3  4  2  0
  4  5  1  0
  5  6  1  0
  5  7  2  0
  7  8  1  0
  7  9  1  0
  9 10  2  0
 10 11  1  0
 11 12  1  0
 12 13  2  0
 12 14  1  0
 14 15  2  0
 15 16  1  0
 16 17  1  0
 16 18  2  0
 18 19  1  0
 19 20  2  0
 20 21  1  0
 10  3  1  0
 20 14  1  0
M  END
>  <ref_mols>  (448) 
7gov-a

>  <gnina_score>  (448) 
5.307

>  <smina_score_min>  (448) 
-5.905

>  <ref_pdb>  (448) 
7gov-a

>  <inspiration_score>  (448) 
None

>  <inchikey>  (448) 
AZSDPJZMXOFDRD-UHFFFAOYSA-N

>  <tags>  (448) 
BulkDock Fragalysis export,openbind_d68ev3c_c2_elabs_scored,openbind_d68ev3c_c2_elabs_scored_4.5plus,openbind_d68ev3c_c2_elabs,openbind_d68ev3c_c2_elabs_scored_5plus,syndirella_product,openbind_d68ev3c_c2_elabs_scored_top80percent,syndirella_placed

>  <smiles>  (448) 
CCc1cc(Br)c(F)cc1NC(=O)c1cc(F)ncc1I

>  <subsites>  (448) 
None

>  <rmsd(smina/fragmenstein)>  (448) 
1.241

>  <alias>  (448) 
None

>  <energy_score>  (448) 
-32.219094

>  <HIPPO Pose ID>  (448) 
65633

>  <distance_score>  (448) 
0.761693

>  <HIPPO Compound ID>  (448) 
102994

>  <gnina_score_min>  (448) 
5.08

>  <name>  (448) 
P65633

>  <exports>  (448) 
['/opt/xchem-fragalysis-2/maxwin/BulkDock/OUTPUTS/openbind_d68ev3c_c2_elabs_1LOTQJ3.sdf', '/opt/xchem-fragalysis-2/maxwin/BulkDock/OUTPUTS/openbind_d68ev3c_c2_elabs_1LSYEHW.sdf', '/opt/xchem-fragalysis-2/maxwin/BulkDock/OUTPUTS/openbind_d68ev3c_c2_elabs_1LSYI5W.sdf']

$$$$
P65634
     RDKit          3D

 21 22  0  0  0  0  0  0  0  0999 V2000
    3.4425   -2.3762   34.1453 O   0  0  0  0  0  0  0  0  0  0  0  0
    2.7753   -3.3629   34.4331 C   0  0  0  0  0  0  0  0  0  0  0  0
    2.0319   -3.4570   35.7043 C   0  0  0  0  0  0  0  0  0  0  0  0
    2.4236   -2.6373   36.7700 C   0  0  0  0  0  0  0  0  0  0  0  0
    1.8167   -2.7933   38.0109 C   0  0  0  0  0  0  0  0  0  0  0  0
    2.1863   -2.0014   39.0273 F   0  0  0  0  0  0  0  0  0  0  0  0
    0.8337   -3.7567   38.1980 C   0  0  0  0  0  0  0  0  0  0  0  0
    0.2350   -3.8862   39.3904 F   0  0  0  0  0  0  0  0  0  0  0  0
    0.4452   -4.5808   37.1456 C   0  0  0  0  0  0  0  0  0  0  0  0
    1.0315   -4.4218   35.8841 C   0  0  0  0  0  0  0  0  0  0  0  0
    0.5642   -5.2102   34.8354 N   0  0  0  0  0  0  0  0  0  0  0  0
    0.0815   -6.6728   34.8215 C   0  0  0  0  0  0  0  0  0  0  0  0
    0.0709   -7.4717   35.6682 O   0  0  0  0  0  0  0  0  0  0  0  0
   -0.5055   -7.0789   33.5035 C   0  0  0  0  0  0  0  0  0  0  0  0
    0.0583   -6.6329   32.3037 C   0  0  0  0  0  0  0  0  0  0  0  0
   -0.5112   -7.0425   31.1123 C   0  0  0  0  0  0  0  0  0  0  0  0
   -0.0468   -6.5220   29.9690 F   0  0  0  0  0  0  0  0  0  0  0  0
   -1.5586   -7.8858   31.0254 N   0  0  0  0  0  0  0  0  0  0  0  0
   -2.0521   -8.3384   32.1947 C   0  0  0  0  0  0  0  0  0  0  0  0
   -1.5975   -7.9518   33.4414 C   0  0  0  0  0  0  0  0  0  0  0  0
   -2.7492   -8.6487   35.0025 I   0  0  0  0  0  0  0  0  0  0  0  0
  1  2  2  0
  2  3  1  0
  3  4  2  0
  4  5  1  0
  5  6  1  0
  5  7  2  0
  7  8  1  0
  7  9  1  0
  9 10  2  0
 10 11  1  0
 11 12  1  0
 12 13  2  0
 12 14  1  0
 14 15  2  0
 15 16  1  0
 16 17  1  0
 16 18  2  0
 18 19  1  0
 19 20  2  0
 20 21  1  0
 10  3  1  0
 20 14  1  0
M  END
>  <ref_mols>  (449) 
7gov-a

>  <gnina_score>  (449) 
5.215

>  <smina_score_min>  (449) 
-5.274

>  <ref_pdb>  (449) 
7gov-a

>  <inspiration_score>  (449) 
None

>  <inchikey>  (449) 
RJPBYDOTGKZYBU-UHFFFAOYSA-N

>  <tags>  (449) 
BulkDock Fragalysis export,openbind_d68ev3c_c2_elabs_scored,openbind_d68ev3c_c2_elabs_scored_4.5plus,openbind_d68ev3c_c2_elabs,openbind_d68ev3c_c2_elabs_scored_5plus,syndirella_product,openbind_d68ev3c_c2_elabs_scored_top80percent,syndirella_placed

>  <smiles>  (449) 
O=Cc1cc(F)c(F)cc1NC(=O)c1cc(F)ncc1I

>  <subsites>  (449) 
None

>  <rmsd(smina/fragmenstein)>  (449) 
1.197

>  <alias>  (449) 
None

>  <energy_score>  (449) 
-8.912446

>  <HIPPO Pose ID>  (449) 
65634

>  <distance_score>  (449) 
0.506055

>  <HIPPO Compound ID>  (449) 
102998

>  <gnina_score_min>  (449) 
5.249

>  <name>  (449) 
P65634

>  <exports>  (449) 
['/opt/xchem-fragalysis-2/maxwin/BulkDock/OUTPUTS/openbind_d68ev3c_c2_elabs_1LOTQJ3.sdf', '/opt/xchem-fragalysis-2/maxwin/BulkDock/OUTPUTS/openbind_d68ev3c_c2_elabs_1LSYEHW.sdf', '/opt/xchem-fragalysis-2/maxwin/BulkDock/OUTPUTS/openbind_d68ev3c_c2_elabs_1LSYI5W.sdf']

$$$$
P65637
     RDKit          3D

 21 23  0  0  0  0  0  0  0  0999 V2000
    0.4419   -7.3347   35.4565 O   0  0  0  0  0  0  0  0  0  0  0  0
    0.2934   -6.4780   34.6745 C   0  0  0  0  0  0  0  0  0  0  0  0
    0.5870   -4.9616   34.7800 N   0  0  0  0  0  0  0  0  0  0  0  0
    1.0217   -4.1918   35.8688 C   0  0  0  0  0  0  0  0  0  0  0  0
    0.4545   -4.5717   37.1039 C   0  0  0  0  0  0  0  0  0  0  0  0
    0.7125   -3.8578   38.2641 C   0  0  0  0  0  0  0  0  0  0  0  0
    0.1174   -4.2033   39.4132 F   0  0  0  0  0  0  0  0  0  0  0  0
    1.5605   -2.7744   38.2404 C   0  0  0  0  0  0  0  0  0  0  0  0
    2.1383   -2.4020   37.0287 C   0  0  0  0  0  0  0  0  0  0  0  0
    1.8884   -3.0762   35.8013 C   0  0  0  0  0  0  0  0  0  0  0  0
    2.6781   -2.5412   34.6175 C   0  0  0  0  0  0  0  0  0  0  0  0
    2.1544   -2.4760   33.2177 C   0  0  0  0  0  0  0  0  0  0  0  0
    3.2543   -3.4489   33.5761 C   0  0  0  0  0  0  0  0  0  0  0  0
   -0.3831   -6.9196   33.4093 C   0  0  0  0  0  0  0  0  0  0  0  0
   -1.4709   -7.8094   33.5691 C   0  0  0  0  0  0  0  0  0  0  0  0
   -2.2576   -8.1564   35.0674 Cl  0  0  0  0  0  0  0  0  0  0  0  0
   -2.0473   -8.3936   32.4512 C   0  0  0  0  0  0  0  0  0  0  0  0
   -1.6681   -8.1329   31.1872 N   0  0  0  0  0  0  0  0  0  0  0  0
   -0.6542   -7.2505   31.0487 C   0  0  0  0  0  0  0  0  0  0  0  0
    0.0024   -6.6137   32.1029 C   0  0  0  0  0  0  0  0  0  0  0  0
    1.3442   -5.4078   31.5771 Br  0  0  0  0  0  0  0  0  0  0  0  0
  1  2  2  0
  2  3  1  0
  3  4  1  0
  4  5  2  0
  5  6  1  0
  6  7  1  0
  6  8  2  0
  8  9  1  0
  9 10  2  0
 10 11  1  0
 11 12  1  0
 12 13  1  0
  2 14  1  0
 14 15  2  0
 15 16  1  0
 15 17  1  0
 17 18  2  0
 18 19  1  0
 19 20  2  0
 20 21  1  0
 10  4  1  0
 13 11  1  0
 20 14  1  0
M  END
>  <ref_mols>  (450) 
7gov-a

>  <gnina_score>  (450) 
5.314

>  <smina_score_min>  (450) 
-5.613

>  <ref_pdb>  (450) 
7gov-a

>  <inspiration_score>  (450) 
None

>  <inchikey>  (450) 
AFFIKWDIMNNTPE-UHFFFAOYSA-N

>  <tags>  (450) 
BulkDock Fragalysis export,openbind_d68ev3c_c2_elabs_scored,openbind_d68ev3c_c2_elabs_scored_4.5plus,openbind_d68ev3c_c2_elabs,openbind_d68ev3c_c2_elabs_scored_5plus,syndirella_product,openbind_d68ev3c_c2_elabs_scored_top80percent,syndirella_placed

>  <smiles>  (450) 
O=C(Nc1cc(F)ccc1C1CC1)c1c(Cl)cncc1Br

>  <subsites>  (450) 
None

>  <rmsd(smina/fragmenstein)>  (450) 
1.314

>  <alias>  (450) 
None

>  <energy_score>  (450) 
-15.136398

>  <HIPPO Pose ID>  (450) 
65637

>  <distance_score>  (450) 
0.610231

>  <HIPPO Compound ID>  (450) 
103010

>  <gnina_score_min>  (450) 
5.253

>  <name>  (450) 
P65637

>  <exports>  (450) 
['/opt/xchem-fragalysis-2/maxwin/BulkDock/OUTPUTS/openbind_d68ev3c_c2_elabs_1LOTQJ3.sdf', '/opt/xchem-fragalysis-2/maxwin/BulkDock/OUTPUTS/openbind_d68ev3c_c2_elabs_1LSYEHW.sdf', '/opt/xchem-fragalysis-2/maxwin/BulkDock/OUTPUTS/openbind_d68ev3c_c2_elabs_1LSYI5W.sdf']

$$$$
P65638
     RDKit          3D

 21 22  0  0  0  0  0  0  0  0999 V2000
    4.0382   -3.5259   34.3738 C   0  0  0  0  0  0  0  0  0  0  0  0
    2.5798   -3.1735   34.4685 C   0  0  0  0  0  0  0  0  0  0  0  0
    1.9317   -2.7266   33.5265 O   0  0  0  0  0  0  0  0  0  0  0  0
    1.9177   -3.3515   35.7703 C   0  0  0  0  0  0  0  0  0  0  0  0
    2.3365   -2.5703   36.8544 C   0  0  0  0  0  0  0  0  0  0  0  0
    1.7622   -2.7730   38.1086 C   0  0  0  0  0  0  0  0  0  0  0  0
    0.7986   -3.7630   38.2692 C   0  0  0  0  0  0  0  0  0  0  0  0
    0.2349   -3.9396   39.4718 F   0  0  0  0  0  0  0  0  0  0  0  0
    0.4029   -4.5634   37.2018 C   0  0  0  0  0  0  0  0  0  0  0  0
    0.9526   -4.3486   35.9361 C   0  0  0  0  0  0  0  0  0  0  0  0
    0.5419   -5.1411   34.8687 N   0  0  0  0  0  0  0  0  0  0  0  0
    0.0441   -6.5963   34.8380 C   0  0  0  0  0  0  0  0  0  0  0  0
   -0.0286   -7.3875   35.6901 O   0  0  0  0  0  0  0  0  0  0  0  0
   -0.5292   -7.0204   33.5119 C   0  0  0  0  0  0  0  0  0  0  0  0
   -0.0230   -6.6217   32.2661 C   0  0  0  0  0  0  0  0  0  0  0  0
    1.2402   -5.4798   32.0106 Cl  0  0  0  0  0  0  0  0  0  0  0  0
   -0.5746   -7.1813   31.1149 C   0  0  0  0  0  0  0  0  0  0  0  0
   -1.5823   -8.0830   31.1021 N   0  0  0  0  0  0  0  0  0  0  0  0
   -2.0595   -8.4463   32.3062 C   0  0  0  0  0  0  0  0  0  0  0  0
   -1.5988   -7.9424   33.5114 C   0  0  0  0  0  0  0  0  0  0  0  0
   -2.6168   -8.5004   35.0099 Br  0  0  0  0  0  0  0  0  0  0  0  0
  1  2  1  0
  2  3  2  0
  2  4  1  0
  4  5  2  0
  5  6  1  0
  6  7  2  0
  7  8  1  0
  7  9  1  0
  9 10  2  0
 10 11  1  0
 11 12  1  0
 12 13  2  0
 12 14  1  0
 14 15  2  0
 15 16  1  0
 15 17  1  0
 17 18  2  0
 18 19  1  0
 19 20  2  0
 20 21  1  0
 10  4  1  0
 20 14  1  0
M  END
>  <ref_mols>  (451) 
7gov-a

>  <gnina_score>  (451) 
5.26

>  <smina_score_min>  (451) 
-5.362

>  <ref_pdb>  (451) 
7gov-a

>  <inspiration_score>  (451) 
None

>  <inchikey>  (451) 
BCWZOENDSASLHT-UHFFFAOYSA-N

>  <tags>  (451) 
BulkDock Fragalysis export,openbind_d68ev3c_c2_elabs_scored,openbind_d68ev3c_c2_elabs_scored_4.5plus,openbind_d68ev3c_c2_elabs,openbind_d68ev3c_c2_elabs_scored_5plus,syndirella_product,openbind_d68ev3c_c2_elabs_scored_top80percent,syndirella_placed

>  <smiles>  (451) 
CC(=O)c1ccc(F)cc1NC(=O)c1c(Cl)cncc1Br

>  <subsites>  (451) 
None

>  <rmsd(smina/fragmenstein)>  (451) 
1.256

>  <alias>  (451) 
None

>  <energy_score>  (451) 
-6.720456

>  <HIPPO Pose ID>  (451) 
65638

>  <distance_score>  (451) 
0.514513

>  <HIPPO Compound ID>  (451) 
103011

>  <gnina_score_min>  (451) 
5.142

>  <name>  (451) 
P65638

>  <exports>  (451) 
['/opt/xchem-fragalysis-2/maxwin/BulkDock/OUTPUTS/openbind_d68ev3c_c2_elabs_1LOTQJ3.sdf', '/opt/xchem-fragalysis-2/maxwin/BulkDock/OUTPUTS/openbind_d68ev3c_c2_elabs_1LSYEHW.sdf', '/opt/xchem-fragalysis-2/maxwin/BulkDock/OUTPUTS/openbind_d68ev3c_c2_elabs_1LSYI5W.sdf']

$$$$
P65639
     RDKit          3D

 21 22  0  0  0  0  0  0  0  0999 V2000
    2.4469   -3.4670   33.8385 O   0  0  0  0  0  0  0  0  0  0  0  0
    2.7606   -3.9247   34.9309 C   0  0  0  0  0  0  0  0  0  0  0  0
    1.8569   -3.7924   36.0745 C   0  0  0  0  0  0  0  0  0  0  0  0
    2.3691   -3.1468   37.1981 C   0  0  0  0  0  0  0  0  0  0  0  0
    3.6275   -2.6805   37.2086 F   0  0  0  0  0  0  0  0  0  0  0  0
    1.5796   -2.9540   38.3211 C   0  0  0  0  0  0  0  0  0  0  0  0
    0.2604   -3.3842   38.2927 C   0  0  0  0  0  0  0  0  0  0  0  0
   -0.4870   -3.2537   39.3950 F   0  0  0  0  0  0  0  0  0  0  0  0
   -0.2935   -3.9723   37.1567 C   0  0  0  0  0  0  0  0  0  0  0  0
    0.5132   -4.1942   36.0419 C   0  0  0  0  0  0  0  0  0  0  0  0
    0.0009   -4.9864   35.0219 N   0  0  0  0  0  0  0  0  0  0  0  0
    0.3641   -6.4184   34.5900 C   0  0  0  0  0  0  0  0  0  0  0  0
    1.0959   -7.1891   35.0684 O   0  0  0  0  0  0  0  0  0  0  0  0
   -0.3875   -6.8555   33.3880 C   0  0  0  0  0  0  0  0  0  0  0  0
    0.0238   -6.5156   32.1001 C   0  0  0  0  0  0  0  0  0  0  0  0
    1.2594   -5.3810   31.7436 Cl  0  0  0  0  0  0  0  0  0  0  0  0
   -0.6175   -7.1305   31.0305 C   0  0  0  0  0  0  0  0  0  0  0  0
   -1.6290   -8.0269   31.1518 N   0  0  0  0  0  0  0  0  0  0  0  0
   -1.9994   -8.3341   32.4117 C   0  0  0  0  0  0  0  0  0  0  0  0
   -1.4272   -7.7727   33.5410 C   0  0  0  0  0  0  0  0  0  0  0  0
   -2.1714   -8.2270   35.1984 Br  0  0  0  0  0  0  0  0  0  0  0  0
  1  2  2  0
  2  3  1  0
  3  4  2  0
  4  5  1  0
  4  6  1  0
  6  7  2  0
  7  8  1  0
  7  9  1  0
  9 10  2  0
 10 11  1  0
 11 12  1  0
 12 13  2  0
 12 14  1  0
 14 15  2  0
 15 16  1  0
 15 17  1  0
 17 18  2  0
 18 19  1  0
 19 20  2  0
 20 21  1  0
 10  3  1  0
 20 14  1  0
M  END
>  <ref_mols>  (452) 
7gov-a

>  <gnina_score>  (452) 
5.255

>  <smina_score_min>  (452) 
-5.513

>  <ref_pdb>  (452) 
7gov-a

>  <inspiration_score>  (452) 
None

>  <inchikey>  (452) 
YNRROVGILICVFG-UHFFFAOYSA-N

>  <tags>  (452) 
BulkDock Fragalysis export,openbind_d68ev3c_c2_elabs_scored,openbind_d68ev3c_c2_elabs_scored_4.5plus,openbind_d68ev3c_c2_elabs,openbind_d68ev3c_c2_elabs_scored_5plus,syndirella_product,openbind_d68ev3c_c2_elabs_scored_top80percent,syndirella_placed

>  <smiles>  (452) 
O=Cc1c(F)cc(F)cc1NC(=O)c1c(Cl)cncc1Br

>  <subsites>  (452) 
None

>  <rmsd(smina/fragmenstein)>  (452) 
1.152

>  <alias>  (452) 
None

>  <energy_score>  (452) 
-14.974797

>  <HIPPO Pose ID>  (452) 
65639

>  <distance_score>  (452) 
0.433914

>  <HIPPO Compound ID>  (452) 
103014

>  <gnina_score_min>  (452) 
5.177

>  <name>  (452) 
P65639

>  <exports>  (452) 
['/opt/xchem-fragalysis-2/maxwin/BulkDock/OUTPUTS/openbind_d68ev3c_c2_elabs_1LOTQJ3.sdf', '/opt/xchem-fragalysis-2/maxwin/BulkDock/OUTPUTS/openbind_d68ev3c_c2_elabs_1LSYEHW.sdf', '/opt/xchem-fragalysis-2/maxwin/BulkDock/OUTPUTS/openbind_d68ev3c_c2_elabs_1LSYI5W.sdf']

$$$$
P65640
     RDKit          3D

 21 22  0  0  0  0  0  0  0  0999 V2000
    0.2489   -7.4117   35.5697 O   0  0  0  0  0  0  0  0  0  0  0  0
    0.1712   -6.5678   34.7687 C   0  0  0  0  0  0  0  0  0  0  0  0
    0.5310   -5.0738   34.8556 N   0  0  0  0  0  0  0  0  0  0  0  0
    0.9575   -4.3093   35.9347 C   0  0  0  0  0  0  0  0  0  0  0  0
    0.4079   -4.5709   37.1942 C   0  0  0  0  0  0  0  0  0  0  0  0
    0.7800   -3.7941   38.2842 C   0  0  0  0  0  0  0  0  0  0  0  0
    0.2124   -4.0113   39.4783 F   0  0  0  0  0  0  0  0  0  0  0  0
    1.7190   -2.7864   38.1515 C   0  0  0  0  0  0  0  0  0  0  0  0
    2.2796   -2.5542   36.9018 C   0  0  0  0  0  0  0  0  0  0  0  0
    3.2021   -1.5853   36.7913 F   0  0  0  0  0  0  0  0  0  0  0  0
    1.9049   -3.2925   35.7716 C   0  0  0  0  0  0  0  0  0  0  0  0
    2.6014   -3.0495   34.4705 C   0  0  0  0  0  0  0  0  0  0  0  0
    1.6519   -2.5923   33.5121 O   0  0  0  0  0  0  0  0  0  0  0  0
   -0.4718   -6.9710   33.4778 C   0  0  0  0  0  0  0  0  0  0  0  0
   -1.5558   -7.8699   33.5608 C   0  0  0  0  0  0  0  0  0  0  0  0
   -2.4003   -8.2837   35.0092 Cl  0  0  0  0  0  0  0  0  0  0  0  0
   -2.0766   -8.4069   32.3952 C   0  0  0  0  0  0  0  0  0  0  0  0
   -1.6429   -8.0926   31.1589 N   0  0  0  0  0  0  0  0  0  0  0  0
   -0.6265   -7.2019   31.0966 C   0  0  0  0  0  0  0  0  0  0  0  0
   -0.0200   -6.6091   32.2028 C   0  0  0  0  0  0  0  0  0  0  0  0
    1.3617   -5.3783   31.8115 Br  0  0  0  0  0  0  0  0  0  0  0  0
  1  2  2  0
  2  3  1  0
  3  4  1  0
  4  5  2  0
  5  6  1  0
  6  7  1  0
  6  8  2  0
  8  9  1  0
  9 10  1  0
  9 11  2  0
 11 12  1  0
 12 13  1  0
  2 14  1  0
 14 15  2  0
 15 16  1  0
 15 17  1  0
 17 18  2  0
 18 19  1  0
 19 20  2  0
 20 21  1  0
 11  4  1  0
 20 14  1  0
M  END
>  <ref_mols>  (453) 
7gov-a

>  <gnina_score>  (453) 
5.155

>  <smina_score_min>  (453) 
-5.641

>  <ref_pdb>  (453) 
7gov-a

>  <inspiration_score>  (453) 
None

>  <inchikey>  (453) 
AMPGUTYSCFLWOF-UHFFFAOYSA-N

>  <tags>  (453) 
BulkDock Fragalysis export,openbind_d68ev3c_c2_elabs_scored,openbind_d68ev3c_c2_elabs_scored_4.5plus,openbind_d68ev3c_c2_elabs,openbind_d68ev3c_c2_elabs_scored_5plus,syndirella_product,openbind_d68ev3c_c2_elabs_scored_top80percent,syndirella_placed

>  <smiles>  (453) 
O=C(Nc1cc(F)cc(F)c1CO)c1c(Cl)cncc1Br

>  <subsites>  (453) 
None

>  <rmsd(smina/fragmenstein)>  (453) 
1.56

>  <alias>  (453) 
None

>  <energy_score>  (453) 
-25.631645

>  <HIPPO Pose ID>  (453) 
65640

>  <distance_score>  (453) 
0.497409

>  <HIPPO Compound ID>  (453) 
103015

>  <gnina_score_min>  (453) 
5.136

>  <name>  (453) 
P65640

>  <exports>  (453) 
['/opt/xchem-fragalysis-2/maxwin/BulkDock/OUTPUTS/openbind_d68ev3c_c2_elabs_1LOTQJ3.sdf', '/opt/xchem-fragalysis-2/maxwin/BulkDock/OUTPUTS/openbind_d68ev3c_c2_elabs_1LSYEHW.sdf', '/opt/xchem-fragalysis-2/maxwin/BulkDock/OUTPUTS/openbind_d68ev3c_c2_elabs_1LSYI5W.sdf']

$$$$
P65641
     RDKit          3D

 21 22  0  0  0  0  0  0  0  0999 V2000
    2.6373   -3.2384   34.4085 C   0  0  0  0  0  0  0  0  0  0  0  0
    1.9498   -3.3643   35.7439 C   0  0  0  0  0  0  0  0  0  0  0  0
    2.3462   -2.5886   36.8610 C   0  0  0  0  0  0  0  0  0  0  0  0
    3.4229   -1.5350   36.7812 C   0  0  0  0  0  0  0  0  0  0  0  0
    2.9722   -0.4058   36.0427 O   0  0  0  0  0  0  0  0  0  0  0  0
    1.7189   -2.7959   38.1016 C   0  0  0  0  0  0  0  0  0  0  0  0
    0.7482   -3.7760   38.2437 C   0  0  0  0  0  0  0  0  0  0  0  0
    0.1577   -3.9481   39.4342 F   0  0  0  0  0  0  0  0  0  0  0  0
    0.3754   -4.5666   37.1706 C   0  0  0  0  0  0  0  0  0  0  0  0
    0.9591   -4.3511   35.9205 C   0  0  0  0  0  0  0  0  0  0  0  0
    0.5391   -5.1391   34.8536 N   0  0  0  0  0  0  0  0  0  0  0  0
    0.0734   -6.6049   34.8162 C   0  0  0  0  0  0  0  0  0  0  0  0
    0.0405   -7.4085   35.6594 O   0  0  0  0  0  0  0  0  0  0  0  0
   -0.5150   -7.0221   33.4962 C   0  0  0  0  0  0  0  0  0  0  0  0
   -0.0251   -6.6158   32.2464 C   0  0  0  0  0  0  0  0  0  0  0  0
    1.2117   -5.4444   31.9814 Cl  0  0  0  0  0  0  0  0  0  0  0  0
   -0.5817   -7.1806   31.1006 C   0  0  0  0  0  0  0  0  0  0  0  0
   -1.5848   -8.0871   31.0979 N   0  0  0  0  0  0  0  0  0  0  0  0
   -2.0523   -8.4508   32.3062 C   0  0  0  0  0  0  0  0  0  0  0  0
   -1.5826   -7.9447   33.5065 C   0  0  0  0  0  0  0  0  0  0  0  0
   -2.5895   -8.4891   35.0159 Br  0  0  0  0  0  0  0  0  0  0  0  0
  1  2  1  0
  2  3  2  0
  3  4  1  0
  4  5  1  0
  3  6  1  0
  6  7  2  0
  7  8  1  0
  7  9  1  0
  9 10  2  0
 10 11  1  0
 11 12  1  0
 12 13  2  0
 12 14  1  0
 14 15  2  0
 15 16  1  0
 15 17  1  0
 17 18  2  0
 18 19  1  0
 19 20  2  0
 20 21  1  0
 10  2  1  0
 20 14  1  0
M  END
>  <ref_mols>  (454) 
7gov-a

>  <gnina_score>  (454) 
5.108

>  <smina_score_min>  (454) 
-5.364

>  <ref_pdb>  (454) 
7gov-a

>  <inspiration_score>  (454) 
None

>  <inchikey>  (454) 
LFHFYCQQJQNRBP-UHFFFAOYSA-N

>  <tags>  (454) 
BulkDock Fragalysis export,openbind_d68ev3c_c2_elabs_scored,openbind_d68ev3c_c2_elabs_scored_4.5plus,openbind_d68ev3c_c2_elabs,openbind_d68ev3c_c2_elabs_scored_5plus,syndirella_product,openbind_d68ev3c_c2_elabs_scored_top80percent,syndirella_placed

>  <smiles>  (454) 
Cc1c(CO)cc(F)cc1NC(=O)c1c(Cl)cncc1Br

>  <subsites>  (454) 
None

>  <rmsd(smina/fragmenstein)>  (454) 
1.359

>  <alias>  (454) 
None

>  <energy_score>  (454) 
-26.38295

>  <HIPPO Pose ID>  (454) 
65641

>  <distance_score>  (454) 
0.490765

>  <HIPPO Compound ID>  (454) 
103016

>  <gnina_score_min>  (454) 
5.03

>  <name>  (454) 
P65641

>  <exports>  (454) 
['/opt/xchem-fragalysis-2/maxwin/BulkDock/OUTPUTS/openbind_d68ev3c_c2_elabs_1LOTQJ3.sdf', '/opt/xchem-fragalysis-2/maxwin/BulkDock/OUTPUTS/openbind_d68ev3c_c2_elabs_1LSYEHW.sdf', '/opt/xchem-fragalysis-2/maxwin/BulkDock/OUTPUTS/openbind_d68ev3c_c2_elabs_1LSYI5W.sdf']

$$$$
P65642
     RDKit          3D

 21 22  0  0  0  0  0  0  0  0999 V2000
    4.7110   -1.8915   37.0661 C   0  0  0  0  0  0  0  0  0  0  0  0
    3.3001   -1.3824   36.8097 C   0  0  0  0  0  0  0  0  0  0  0  0
    2.2734   -2.4910   36.8726 C   0  0  0  0  0  0  0  0  0  0  0  0
    1.6696   -2.7424   38.1175 C   0  0  0  0  0  0  0  0  0  0  0  0
    0.7432   -3.7643   38.2594 C   0  0  0  0  0  0  0  0  0  0  0  0
    0.1678   -3.9692   39.4522 F   0  0  0  0  0  0  0  0  0  0  0  0
    0.3915   -4.5568   37.1810 C   0  0  0  0  0  0  0  0  0  0  0  0
    0.9614   -4.3106   35.9301 C   0  0  0  0  0  0  0  0  0  0  0  0
    0.5346   -5.0893   34.8575 N   0  0  0  0  0  0  0  0  0  0  0  0
    0.1431   -6.5759   34.7949 C   0  0  0  0  0  0  0  0  0  0  0  0
    0.1889   -7.4043   35.6138 O   0  0  0  0  0  0  0  0  0  0  0  0
   -0.4881   -6.9870   33.4971 C   0  0  0  0  0  0  0  0  0  0  0  0
   -1.5650   -7.8957   33.5703 C   0  0  0  0  0  0  0  0  0  0  0  0
   -2.4252   -8.3140   35.0084 Cl  0  0  0  0  0  0  0  0  0  0  0  0
   -2.0748   -8.4337   32.3998 C   0  0  0  0  0  0  0  0  0  0  0  0
   -1.6378   -8.1118   31.1667 N   0  0  0  0  0  0  0  0  0  0  0  0
   -0.6318   -7.2097   31.1120 C   0  0  0  0  0  0  0  0  0  0  0  0
   -0.0391   -6.6121   32.2234 C   0  0  0  0  0  0  0  0  0  0  0  0
    1.3072   -5.3390   31.8357 Br  0  0  0  0  0  0  0  0  0  0  0  0
    1.9252   -3.2954   35.7601 C   0  0  0  0  0  0  0  0  0  0  0  0
    2.6244   -3.1649   34.4334 C   0  0  0  0  0  0  0  0  0  0  0  0
  1  2  1  0
  2  3  1  0
  3  4  2  0
  4  5  1  0
  5  6  1  0
  5  7  2  0
  7  8  1  0
  8  9  1  0
  9 10  1  0
 10 11  2  0
 10 12  1  0
 12 13  2  0
 13 14  1  0
 13 15  1  0
 15 16  2  0
 16 17  1  0
 17 18  2  0
 18 19  1  0
  8 20  2  0
 20 21  1  0
 20  3  1  0
 18 12  1  0
M  END
>  <ref_mols>  (455) 
7gov-a

>  <gnina_score>  (455) 
5.213

>  <smina_score_min>  (455) 
-5.66

>  <ref_pdb>  (455) 
7gov-a

>  <inspiration_score>  (455) 
None

>  <inchikey>  (455) 
MNPROIIHPJZRRY-UHFFFAOYSA-N

>  <tags>  (455) 
BulkDock Fragalysis export,openbind_d68ev3c_c2_elabs_scored,openbind_d68ev3c_c2_elabs_scored_4.5plus,openbind_d68ev3c_c2_elabs,openbind_d68ev3c_c2_elabs_scored_5plus,syndirella_product,openbind_d68ev3c_c2_elabs_scored_top80percent,syndirella_placed

>  <smiles>  (455) 
CCc1cc(F)cc(NC(=O)c2c(Cl)cncc2Br)c1C

>  <subsites>  (455) 
None

>  <rmsd(smina/fragmenstein)>  (455) 
1.361

>  <alias>  (455) 
None

>  <energy_score>  (455) 
-27.892553

>  <HIPPO Pose ID>  (455) 
65642

>  <distance_score>  (455) 
0.490261

>  <HIPPO Compound ID>  (455) 
103017

>  <gnina_score_min>  (455) 
5.223

>  <name>  (455) 
P65642

>  <exports>  (455) 
['/opt/xchem-fragalysis-2/maxwin/BulkDock/OUTPUTS/openbind_d68ev3c_c2_elabs_1LOTQJ3.sdf', '/opt/xchem-fragalysis-2/maxwin/BulkDock/OUTPUTS/openbind_d68ev3c_c2_elabs_1LSYEHW.sdf', '/opt/xchem-fragalysis-2/maxwin/BulkDock/OUTPUTS/openbind_d68ev3c_c2_elabs_1LSYI5W.sdf']

$$$$
P65643
     RDKit          3D

 21 22  0  0  0  0  0  0  0  0999 V2000
    3.1292   -1.1656   39.2127 C   0  0  0  0  0  0  0  0  0  0  0  0
    2.0262   -2.0579   39.2765 O   0  0  0  0  0  0  0  0  0  0  0  0
    1.7329   -2.7643   38.1403 C   0  0  0  0  0  0  0  0  0  0  0  0
    2.3065   -2.5556   36.8826 C   0  0  0  0  0  0  0  0  0  0  0  0
    1.9163   -3.3250   35.7686 C   0  0  0  0  0  0  0  0  0  0  0  0
    2.6303   -3.1349   34.4619 C   0  0  0  0  0  0  0  0  0  0  0  0
    0.9481   -4.3222   35.9380 C   0  0  0  0  0  0  0  0  0  0  0  0
    0.5230   -5.1002   34.8678 N   0  0  0  0  0  0  0  0  0  0  0  0
    0.1229   -6.5839   34.8078 C   0  0  0  0  0  0  0  0  0  0  0  0
    0.1592   -7.4097   35.6292 O   0  0  0  0  0  0  0  0  0  0  0  0
   -0.5036   -6.9932   33.5071 C   0  0  0  0  0  0  0  0  0  0  0  0
   -1.5791   -7.9038   33.5729 C   0  0  0  0  0  0  0  0  0  0  0  0
   -2.4458   -8.3279   35.0053 Cl  0  0  0  0  0  0  0  0  0  0  0  0
   -2.0817   -8.4394   32.3983 C   0  0  0  0  0  0  0  0  0  0  0  0
   -1.6385   -8.1141   31.1682 N   0  0  0  0  0  0  0  0  0  0  0  0
   -0.6328   -7.2113   31.1205 C   0  0  0  0  0  0  0  0  0  0  0  0
   -0.0467   -6.6159   32.2364 C   0  0  0  0  0  0  0  0  0  0  0  0
    1.3038   -5.3427   31.8596 Br  0  0  0  0  0  0  0  0  0  0  0  0
    0.3890   -4.5525   37.1955 C   0  0  0  0  0  0  0  0  0  0  0  0
    0.7684   -3.7632   38.2757 C   0  0  0  0  0  0  0  0  0  0  0  0
    0.1775   -3.9710   39.4634 F   0  0  0  0  0  0  0  0  0  0  0  0
  1  2  1  0
  2  3  1  0
  3  4  2  0
  4  5  1  0
  5  6  1  0
  5  7  2  0
  7  8  1  0
  8  9  1  0
  9 10  2  0
  9 11  1  0
 11 12  2  0
 12 13  1  0
 12 14  1  0
 14 15  2  0
 15 16  1  0
 16 17  2  0
 17 18  1  0
  7 19  1  0
 19 20  2  0
 20 21  1  0
 20  3  1  0
 17 11  1  0
M  END
>  <ref_mols>  (456) 
7gov-a

>  <gnina_score>  (456) 
5.084

>  <smina_score_min>  (456) 
-5.63

>  <ref_pdb>  (456) 
7gov-a

>  <inspiration_score>  (456) 
None

>  <inchikey>  (456) 
HFKAKUBTZJERKJ-UHFFFAOYSA-N

>  <tags>  (456) 
BulkDock Fragalysis export,openbind_d68ev3c_c2_elabs_scored,openbind_d68ev3c_c2_elabs_scored_4.5plus,openbind_d68ev3c_c2_elabs,openbind_d68ev3c_c2_elabs_scored_5plus,syndirella_product,openbind_d68ev3c_c2_elabs_scored_top80percent,syndirella_placed

>  <smiles>  (456) 
COc1cc(C)c(NC(=O)c2c(Cl)cncc2Br)cc1F

>  <subsites>  (456) 
None

>  <rmsd(smina/fragmenstein)>  (456) 
1.424

>  <alias>  (456) 
None

>  <energy_score>  (456) 
-26.990007

>  <HIPPO Pose ID>  (456) 
65643

>  <distance_score>  (456) 
0.484761

>  <HIPPO Compound ID>  (456) 
103019

>  <gnina_score_min>  (456) 
5.041

>  <name>  (456) 
P65643

>  <exports>  (456) 
['/opt/xchem-fragalysis-2/maxwin/BulkDock/OUTPUTS/openbind_d68ev3c_c2_elabs_1LOTQJ3.sdf', '/opt/xchem-fragalysis-2/maxwin/BulkDock/OUTPUTS/openbind_d68ev3c_c2_elabs_1LSYEHW.sdf', '/opt/xchem-fragalysis-2/maxwin/BulkDock/OUTPUTS/openbind_d68ev3c_c2_elabs_1LSYI5W.sdf']

$$$$
P65644
     RDKit          3D

 21 22  0  0  0  0  0  0  0  0999 V2000
    3.2276   -2.9865   33.4847 N   0  0  0  0  0  0  0  0  0  0  0  0
    2.6868   -3.1976   34.4902 C   0  0  0  0  0  0  0  0  0  0  0  0
    2.0049   -3.3891   35.7365 C   0  0  0  0  0  0  0  0  0  0  0  0
    2.4070   -2.6248   36.8454 C   0  0  0  0  0  0  0  0  0  0  0  0
    1.8086   -2.8141   38.0927 C   0  0  0  0  0  0  0  0  0  0  0  0
    0.8178   -3.7766   38.2350 C   0  0  0  0  0  0  0  0  0  0  0  0
    0.2225   -3.9303   39.4262 F   0  0  0  0  0  0  0  0  0  0  0  0
    0.4280   -4.5543   37.1502 C   0  0  0  0  0  0  0  0  0  0  0  0
   -0.5669   -5.4407   37.3146 F   0  0  0  0  0  0  0  0  0  0  0  0
    1.0073   -4.3600   35.8873 C   0  0  0  0  0  0  0  0  0  0  0  0
    0.5719   -5.1298   34.8071 N   0  0  0  0  0  0  0  0  0  0  0  0
    0.1990   -6.6199   34.7279 C   0  0  0  0  0  0  0  0  0  0  0  0
    0.2690   -7.4595   35.5325 O   0  0  0  0  0  0  0  0  0  0  0  0
   -0.4451   -7.0085   33.4334 C   0  0  0  0  0  0  0  0  0  0  0  0
    0.0168   -6.5984   32.1774 C   0  0  0  0  0  0  0  0  0  0  0  0
    1.2570   -5.4345   31.9067 Cl  0  0  0  0  0  0  0  0  0  0  0  0
   -0.5768   -7.1506   31.0461 C   0  0  0  0  0  0  0  0  0  0  0  0
   -1.5930   -8.0443   31.0696 N   0  0  0  0  0  0  0  0  0  0  0  0
   -2.0360   -8.4050   32.2890 C   0  0  0  0  0  0  0  0  0  0  0  0
   -1.5252   -7.9108   33.4756 C   0  0  0  0  0  0  0  0  0  0  0  0
   -2.4830   -8.4292   35.0214 Br  0  0  0  0  0  0  0  0  0  0  0  0
  1  2  3  0
  2  3  1  0
  3  4  2  0
  4  5  1  0
  5  6  2  0
  6  7  1  0
  6  8  1  0
  8  9  1  0
  8 10  2  0
 10 11  1  0
 11 12  1  0
 12 13  2  0
 12 14  1  0
 14 15  2  0
 15 16  1  0
 15 17  1  0
 17 18  2  0
 18 19  1  0
 19 20  2  0
 20 21  1  0
 10  3  1  0
 20 14  1  0
M  END
>  <ref_mols>  (457) 
7gov-a

>  <gnina_score>  (457) 
5.359

>  <smina_score_min>  (457) 
-4.958

>  <ref_pdb>  (457) 
7gov-a

>  <inspiration_score>  (457) 
None

>  <inchikey>  (457) 
UEKRFLYBXJQOAZ-UHFFFAOYSA-N

>  <tags>  (457) 
BulkDock Fragalysis export,openbind_d68ev3c_c2_elabs_scored,openbind_d68ev3c_c2_elabs_scored_4.5plus,openbind_d68ev3c_c2_elabs,openbind_d68ev3c_c2_elabs_scored_5plus,syndirella_product,openbind_d68ev3c_c2_elabs_scored_top80percent,syndirella_placed

>  <smiles>  (457) 
N#Cc1ccc(F)c(F)c1NC(=O)c1c(Cl)cncc1Br

>  <subsites>  (457) 
None

>  <rmsd(smina/fragmenstein)>  (457) 
0.652

>  <alias>  (457) 
None

>  <energy_score>  (457) 
-17.015746

>  <HIPPO Pose ID>  (457) 
65644

>  <distance_score>  (457) 
0.475025

>  <HIPPO Compound ID>  (457) 
103021

>  <gnina_score_min>  (457) 
5.219

>  <name>  (457) 
P65644

>  <exports>  (457) 
['/opt/xchem-fragalysis-2/maxwin/BulkDock/OUTPUTS/openbind_d68ev3c_c2_elabs_1LOTQJ3.sdf', '/opt/xchem-fragalysis-2/maxwin/BulkDock/OUTPUTS/openbind_d68ev3c_c2_elabs_1LSYEHW.sdf', '/opt/xchem-fragalysis-2/maxwin/BulkDock/OUTPUTS/openbind_d68ev3c_c2_elabs_1LSYI5W.sdf']

$$$$
P65645
     RDKit          3D

 21 22  0  0  0  0  0  0  0  0999 V2000
    2.0937   -2.3984   33.4133 C   0  0  0  0  0  0  0  0  0  0  0  0
    2.8659   -3.0860   34.5388 C   0  0  0  0  0  0  0  0  0  0  0  0
    3.6640   -4.3156   34.1028 C   0  0  0  0  0  0  0  0  0  0  0  0
    2.0055   -3.3364   35.7658 C   0  0  0  0  0  0  0  0  0  0  0  0
    2.3066   -2.5726   36.9162 C   0  0  0  0  0  0  0  0  0  0  0  0
    1.6600   -2.7961   38.1304 C   0  0  0  0  0  0  0  0  0  0  0  0
    0.7114   -3.7985   38.2153 C   0  0  0  0  0  0  0  0  0  0  0  0
    0.0790   -4.0086   39.3779 F   0  0  0  0  0  0  0  0  0  0  0  0
    0.3969   -4.5734   37.1076 C   0  0  0  0  0  0  0  0  0  0  0  0
    1.0230   -4.3366   35.8744 C   0  0  0  0  0  0  0  0  0  0  0  0
    0.5956   -5.1138   34.7983 N   0  0  0  0  0  0  0  0  0  0  0  0
    0.1639   -6.5922   34.7402 C   0  0  0  0  0  0  0  0  0  0  0  0
    0.1706   -7.4146   35.5674 O   0  0  0  0  0  0  0  0  0  0  0  0
   -0.4571   -7.0113   33.4356 C   0  0  0  0  0  0  0  0  0  0  0  0
   -0.0069   -6.6261   32.1673 C   0  0  0  0  0  0  0  0  0  0  0  0
    1.2168   -5.4683   31.8354 Cl  0  0  0  0  0  0  0  0  0  0  0  0
   -0.6000   -7.2052   31.0472 C   0  0  0  0  0  0  0  0  0  0  0  0
   -1.6070   -8.1049   31.0856 N   0  0  0  0  0  0  0  0  0  0  0  0
   -2.0448   -8.4443   32.3105 C   0  0  0  0  0  0  0  0  0  0  0  0
   -1.5358   -7.9221   33.4877 C   0  0  0  0  0  0  0  0  0  0  0  0
   -2.5096   -8.4279   35.0314 Br  0  0  0  0  0  0  0  0  0  0  0  0
  1  2  1  0
  2  3  1  0
  2  4  1  0
  4  5  2  0
  5  6  1  0
  6  7  2  0
  7  8  1  0
  7  9  1  0
  9 10  2  0
 10 11  1  0
 11 12  1  0
 12 13  2  0
 12 14  1  0
 14 15  2  0
 15 16  1  0
 15 17  1  0
 17 18  2  0
 18 19  1  0
 19 20  2  0
 20 21  1  0
 10  4  1  0
 20 14  1  0
M  END
>  <ref_mols>  (458) 
7gov-a

>  <gnina_score>  (458) 
5.325

>  <smina_score_min>  (458) 
-5.408

>  <ref_pdb>  (458) 
7gov-a

>  <inspiration_score>  (458) 
None

>  <inchikey>  (458) 
LSAQQGKMXFWZJD-UHFFFAOYSA-N

>  <tags>  (458) 
BulkDock Fragalysis export,openbind_d68ev3c_c2_elabs_scored,openbind_d68ev3c_c2_elabs_scored_4.5plus,openbind_d68ev3c_c2_elabs,openbind_d68ev3c_c2_elabs_scored_5plus,syndirella_product,openbind_d68ev3c_c2_elabs_scored_top80percent,syndirella_placed

>  <smiles>  (458) 
CC(C)c1ccc(F)cc1NC(=O)c1c(Cl)cncc1Br

>  <subsites>  (458) 
None

>  <rmsd(smina/fragmenstein)>  (458) 
1.411

>  <alias>  (458) 
None

>  <energy_score>  (458) 
-32.673629

>  <HIPPO Pose ID>  (458) 
65645

>  <distance_score>  (458) 
0.501805

>  <HIPPO Compound ID>  (458) 
103024

>  <gnina_score_min>  (458) 
5.291

>  <name>  (458) 
P65645

>  <exports>  (458) 
['/opt/xchem-fragalysis-2/maxwin/BulkDock/OUTPUTS/openbind_d68ev3c_c2_elabs_1LOTQJ3.sdf', '/opt/xchem-fragalysis-2/maxwin/BulkDock/OUTPUTS/openbind_d68ev3c_c2_elabs_1LSYEHW.sdf', '/opt/xchem-fragalysis-2/maxwin/BulkDock/OUTPUTS/openbind_d68ev3c_c2_elabs_1LSYI5W.sdf']

$$$$
P65647
     RDKit          3D

 21 22  0  0  0  0  0  0  0  0999 V2000
    3.7779   -2.3156   34.2688 C   0  0  0  0  0  0  0  0  0  0  0  0
    2.6129   -3.2906   34.4035 C   0  0  0  0  0  0  0  0  0  0  0  0
    1.9438   -3.4007   35.7565 C   0  0  0  0  0  0  0  0  0  0  0  0
    2.3903   -2.6548   36.8643 C   0  0  0  0  0  0  0  0  0  0  0  0
    1.8249   -2.8350   38.1300 C   0  0  0  0  0  0  0  0  0  0  0  0
    2.4579   -1.8078   39.5874 Br  0  0  0  0  0  0  0  0  0  0  0  0
    0.8119   -3.7655   38.3098 C   0  0  0  0  0  0  0  0  0  0  0  0
    0.2349   -3.9336   39.5093 F   0  0  0  0  0  0  0  0  0  0  0  0
    0.3663   -4.5279   37.2396 C   0  0  0  0  0  0  0  0  0  0  0  0
    0.9149   -4.3384   35.9654 C   0  0  0  0  0  0  0  0  0  0  0  0
    0.3887   -5.1020   34.9264 N   0  0  0  0  0  0  0  0  0  0  0  0
   -0.0649   -6.5732   34.8968 C   0  0  0  0  0  0  0  0  0  0  0  0
   -0.1416   -7.3573   35.7557 O   0  0  0  0  0  0  0  0  0  0  0  0
   -0.5836   -7.0313   33.5567 C   0  0  0  0  0  0  0  0  0  0  0  0
   -0.0689   -6.6241   32.3169 C   0  0  0  0  0  0  0  0  0  0  0  0
    1.1481   -5.4306   32.0723 Cl  0  0  0  0  0  0  0  0  0  0  0  0
   -0.5825   -7.2046   31.1575 C   0  0  0  0  0  0  0  0  0  0  0  0
   -1.5667   -8.1302   31.1293 N   0  0  0  0  0  0  0  0  0  0  0  0
   -2.0564   -8.5005   32.3261 C   0  0  0  0  0  0  0  0  0  0  0  0
   -1.6306   -7.9800   33.5380 C   0  0  0  0  0  0  0  0  0  0  0  0
   -2.6775   -8.5449   35.0151 Br  0  0  0  0  0  0  0  0  0  0  0  0
  1  2  1  0
  2  3  1  0
  3  4  2  0
  4  5  1  0
  5  6  1  0
  5  7  2  0
  7  8  1  0
  7  9  1  0
  9 10  2  0
 10 11  1  0
 11 12  1  0
 12 13  2  0
 12 14  1  0
 14 15  2  0
 15 16  1  0
 15 17  1  0
 17 18  2  0
 18 19  1  0
 19 20  2  0
 20 21  1  0
 10  3  1  0
 20 14  1  0
M  END
>  <ref_mols>  (459) 
7gov-a

>  <gnina_score>  (459) 
5.421

>  <smina_score_min>  (459) 
-5.469

>  <ref_pdb>  (459) 
7gov-a

>  <inspiration_score>  (459) 
None

>  <inchikey>  (459) 
RBDYNJNWZQAWPS-UHFFFAOYSA-N

>  <tags>  (459) 
BulkDock Fragalysis export,openbind_d68ev3c_c2_elabs_scored,openbind_d68ev3c_c2_elabs_scored_4.5plus,openbind_d68ev3c_c2_elabs,openbind_d68ev3c_c2_elabs_scored_5plus,syndirella_product,openbind_d68ev3c_c2_elabs_scored_top80percent,syndirella_placed

>  <smiles>  (459) 
CCc1cc(Br)c(F)cc1NC(=O)c1c(Cl)cncc1Br

>  <subsites>  (459) 
None

>  <rmsd(smina/fragmenstein)>  (459) 
1.24

>  <alias>  (459) 
None

>  <energy_score>  (459) 
-28.544805

>  <HIPPO Pose ID>  (459) 
65647

>  <distance_score>  (459) 
0.497033

>  <HIPPO Compound ID>  (459) 
103028

>  <gnina_score_min>  (459) 
5.295

>  <name>  (459) 
P65647

>  <exports>  (459) 
['/opt/xchem-fragalysis-2/maxwin/BulkDock/OUTPUTS/openbind_d68ev3c_c2_elabs_1LOTQJ3.sdf', '/opt/xchem-fragalysis-2/maxwin/BulkDock/OUTPUTS/openbind_d68ev3c_c2_elabs_1LSYEHW.sdf', '/opt/xchem-fragalysis-2/maxwin/BulkDock/OUTPUTS/openbind_d68ev3c_c2_elabs_1LSYI5W.sdf']

$$$$
P65648
     RDKit          3D

 21 23  0  0  0  0  0  0  0  0999 V2000
    1.0309   -6.8371   35.1471 O   0  0  0  0  0  0  0  0  0  0  0  0
    0.5559   -6.1396   34.3378 C   0  0  0  0  0  0  0  0  0  0  0  0
    0.6262   -4.6002   34.1721 N   0  0  0  0  0  0  0  0  0  0  0  0
    1.3325   -3.6646   34.8719 N   0  0  0  0  0  0  0  0  0  0  0  0
    2.7932   -3.8503   34.9332 C   0  0  0  0  0  0  0  0  0  0  0  0
    3.2890   -3.0068   36.1164 C   0  0  0  0  0  0  0  0  0  0  0  0
    2.1137   -3.1696   37.0158 C   0  0  0  0  0  0  0  0  0  0  0  0
    2.0232   -2.9837   38.3885 C   0  0  0  0  0  0  0  0  0  0  0  0
    0.7986   -3.2142   39.0019 C   0  0  0  0  0  0  0  0  0  0  0  0
   -0.2963   -3.5970   38.2301 C   0  0  0  0  0  0  0  0  0  0  0  0
   -1.4749   -3.8000   38.8348 F   0  0  0  0  0  0  0  0  0  0  0  0
   -0.2084   -3.7640   36.8523 C   0  0  0  0  0  0  0  0  0  0  0  0
    1.0109   -3.5597   36.2492 C   0  0  0  0  0  0  0  0  0  0  0  0
   -0.2200   -6.7580   33.2234 C   0  0  0  0  0  0  0  0  0  0  0  0
    0.1039   -6.5222   31.8832 C   0  0  0  0  0  0  0  0  0  0  0  0
    1.3233   -5.4222   31.3491 Cl  0  0  0  0  0  0  0  0  0  0  0  0
   -0.6068   -7.2134   30.9089 C   0  0  0  0  0  0  0  0  0  0  0  0
   -1.6063   -8.0927   31.1648 N   0  0  0  0  0  0  0  0  0  0  0  0
   -1.8897   -8.3056   32.4673 C   0  0  0  0  0  0  0  0  0  0  0  0
   -1.2438   -7.6644   33.5140 C   0  0  0  0  0  0  0  0  0  0  0  0
   -1.8855   -7.9991   35.2460 Br  0  0  0  0  0  0  0  0  0  0  0  0
  1  2  2  0
  2  3  1  0
  3  4  1  0
  4  5  1  0
  5  6  1  0
  6  7  1  0
  7  8  2  0
  8  9  1  0
  9 10  2  0
 10 11  1  0
 10 12  1  0
 12 13  2  0
  2 14  1  0
 14 15  2  0
 15 16  1  0
 15 17  1  0
 17 18  2  0
 18 19  1  0
 19 20  2  0
 20 21  1  0
 13  4  1  0
 20 14  1  0
 13  7  1  0
M  END
>  <ref_mols>  (460) 
7gov-a

>  <gnina_score>  (460) 
5.217

>  <smina_score_min>  (460) 
-5.336

>  <ref_pdb>  (460) 
7gov-a

>  <inspiration_score>  (460) 
None

>  <inchikey>  (460) 
FMLIMGQWMXGJKY-UHFFFAOYSA-N

>  <tags>  (460) 
BulkDock Fragalysis export,openbind_d68ev3c_c2_elabs_scored,openbind_d68ev3c_c2_elabs_scored_4.5plus,openbind_d68ev3c_c2_elabs,openbind_d68ev3c_c2_elabs_scored_5plus,syndirella_product,openbind_d68ev3c_c2_elabs_scored_top80percent,syndirella_placed

>  <smiles>  (460) 
O=C(NN1CCc2ccc(F)cc21)c1c(Cl)cncc1Br

>  <subsites>  (460) 
None

>  <rmsd(smina/fragmenstein)>  (460) 
1.049

>  <alias>  (460) 
None

>  <energy_score>  (460) 
-19.759706

>  <HIPPO Pose ID>  (460) 
65648

>  <distance_score>  (460) 
1.656332

>  <HIPPO Compound ID>  (460) 
103029

>  <gnina_score_min>  (460) 
5.191

>  <name>  (460) 
P65648

>  <exports>  (460) 
['/opt/xchem-fragalysis-2/maxwin/BulkDock/OUTPUTS/openbind_d68ev3c_c2_elabs_1LOTQJ3.sdf', '/opt/xchem-fragalysis-2/maxwin/BulkDock/OUTPUTS/openbind_d68ev3c_c2_elabs_1LSYEHW.sdf', '/opt/xchem-fragalysis-2/maxwin/BulkDock/OUTPUTS/openbind_d68ev3c_c2_elabs_1LSYI5W.sdf']

$$$$
P65649
     RDKit          3D

 21 22  0  0  0  0  0  0  0  0999 V2000
    3.4758   -2.2857   34.2365 O   0  0  0  0  0  0  0  0  0  0  0  0
    2.8720   -3.3112   34.5303 C   0  0  0  0  0  0  0  0  0  0  0  0
    2.0713   -3.4118   35.7634 C   0  0  0  0  0  0  0  0  0  0  0  0
    2.4283   -2.6019   36.8487 C   0  0  0  0  0  0  0  0  0  0  0  0
    1.7900   -2.7769   38.0703 C   0  0  0  0  0  0  0  0  0  0  0  0
    2.1304   -1.9987   39.1073 F   0  0  0  0  0  0  0  0  0  0  0  0
    0.8087   -3.7484   38.2186 C   0  0  0  0  0  0  0  0  0  0  0  0
    0.1835   -3.8997   39.3947 F   0  0  0  0  0  0  0  0  0  0  0  0
    0.4504   -4.5581   37.1444 C   0  0  0  0  0  0  0  0  0  0  0  0
    1.0684   -4.3802   35.9002 C   0  0  0  0  0  0  0  0  0  0  0  0
    0.6231   -5.1543   34.8305 N   0  0  0  0  0  0  0  0  0  0  0  0
    0.1410   -6.6143   34.7861 C   0  0  0  0  0  0  0  0  0  0  0  0
    0.1121   -7.4253   35.6216 O   0  0  0  0  0  0  0  0  0  0  0  0
   -0.4790   -7.0139   33.4733 C   0  0  0  0  0  0  0  0  0  0  0  0
   -0.0097   -6.6036   32.2172 C   0  0  0  0  0  0  0  0  0  0  0  0
    1.2182   -5.4264   31.9396 Cl  0  0  0  0  0  0  0  0  0  0  0  0
   -0.5838   -7.1644   31.0783 C   0  0  0  0  0  0  0  0  0  0  0  0
   -1.5890   -8.0683   31.0892 N   0  0  0  0  0  0  0  0  0  0  0  0
   -2.0433   -8.4306   32.3027 C   0  0  0  0  0  0  0  0  0  0  0  0
   -1.5537   -7.9284   33.4966 C   0  0  0  0  0  0  0  0  0  0  0  0
   -2.5449   -8.4620   35.0193 Br  0  0  0  0  0  0  0  0  0  0  0  0
  1  2  2  0
  2  3  1  0
  3  4  2  0
  4  5  1  0
  5  6  1  0
  5  7  2  0
  7  8  1  0
  7  9  1  0
  9 10  2  0
 10 11  1  0
 11 12  1  0
 12 13  2  0
 12 14  1  0
 14 15  2  0
 15 16  1  0
 15 17  1  0
 17 18  2  0
 18 19  1  0
 19 20  2  0
 20 21  1  0
 10  3  1  0
 20 14  1  0
M  END
>  <ref_mols>  (461) 
7gov-a

>  <gnina_score>  (461) 
5.205

>  <smina_score_min>  (461) 
-5.602

>  <ref_pdb>  (461) 
7gov-a

>  <inspiration_score>  (461) 
None

>  <inchikey>  (461) 
RPZGZFVFTMQHQQ-UHFFFAOYSA-N

>  <tags>  (461) 
BulkDock Fragalysis export,openbind_d68ev3c_c2_elabs_scored,openbind_d68ev3c_c2_elabs_scored_4.5plus,openbind_d68ev3c_c2_elabs,openbind_d68ev3c_c2_elabs_scored_5plus,syndirella_product,openbind_d68ev3c_c2_elabs_scored_top80percent,syndirella_placed

>  <smiles>  (461) 
O=Cc1cc(F)c(F)cc1NC(=O)c1c(Cl)cncc1Br

>  <subsites>  (461) 
None

>  <rmsd(smina/fragmenstein)>  (461) 
1.356

>  <alias>  (461) 
None

>  <energy_score>  (461) 
-29.834433

>  <HIPPO Pose ID>  (461) 
65649

>  <distance_score>  (461) 
0.479691

>  <HIPPO Compound ID>  (461) 
103032

>  <gnina_score_min>  (461) 
5.15

>  <name>  (461) 
P65649

>  <exports>  (461) 
['/opt/xchem-fragalysis-2/maxwin/BulkDock/OUTPUTS/openbind_d68ev3c_c2_elabs_1LOTQJ3.sdf', '/opt/xchem-fragalysis-2/maxwin/BulkDock/OUTPUTS/openbind_d68ev3c_c2_elabs_1LSYEHW.sdf', '/opt/xchem-fragalysis-2/maxwin/BulkDock/OUTPUTS/openbind_d68ev3c_c2_elabs_1LSYI5W.sdf']

$$$$
P65650
     RDKit          3D

 21 22  0  0  0  0  0  0  0  0999 V2000
   -1.6409   -6.3399   35.7543 O   0  0  0  0  0  0  0  0  0  0  0  0
   -0.7673   -6.2300   34.9917 C   0  0  0  0  0  0  0  0  0  0  0  0
    0.5586   -5.4505   35.0974 N   0  0  0  0  0  0  0  0  0  0  0  0
    1.0300   -4.5925   36.0945 C   0  0  0  0  0  0  0  0  0  0  0  0
    0.2307   -4.3699   37.2266 C   0  0  0  0  0  0  0  0  0  0  0  0
    0.6503   -3.5015   38.2273 C   0  0  0  0  0  0  0  0  0  0  0  0
   -0.1063   -3.3430   39.3221 F   0  0  0  0  0  0  0  0  0  0  0  0
    1.8380   -2.8062   38.0938 C   0  0  0  0  0  0  0  0  0  0  0  0
    2.2367   -1.9517   39.0464 F   0  0  0  0  0  0  0  0  0  0  0  0
    2.6328   -2.9997   36.9719 C   0  0  0  0  0  0  0  0  0  0  0  0
    2.2654   -3.9303   35.9747 C   0  0  0  0  0  0  0  0  0  0  0  0
    3.2488   -4.1676   34.8577 C   0  0  0  0  0  0  0  0  0  0  0  0
    4.5470   -4.4430   35.3829 O   0  0  0  0  0  0  0  0  0  0  0  0
   -0.9404   -6.9450   33.6659 C   0  0  0  0  0  0  0  0  0  0  0  0
   -0.3834   -6.4957   32.4531 C   0  0  0  0  0  0  0  0  0  0  0  0
    0.5433   -5.0532   32.2427 Cl  0  0  0  0  0  0  0  0  0  0  0  0
   -0.6539   -7.2043   31.2823 C   0  0  0  0  0  0  0  0  0  0  0  0
   -1.4584   -8.2860   31.2100 N   0  0  0  0  0  0  0  0  0  0  0  0
   -1.9934   -8.6959   32.3745 C   0  0  0  0  0  0  0  0  0  0  0  0
   -1.7882   -8.0719   33.5979 C   0  0  0  0  0  0  0  0  0  0  0  0
   -2.8309   -8.8008   35.0031 Br  0  0  0  0  0  0  0  0  0  0  0  0
  1  2  2  0
  2  3  1  0
  3  4  1  0
  4  5  2  0
  5  6  1  0
  6  7  1  0
  6  8  2  0
  8  9  1  0
  8 10  1  0
 10 11  2  0
 11 12  1  0
 12 13  1  0
  2 14  1  0
 14 15  2  0
 15 16  1  0
 15 17  1  0
 17 18  2  0
 18 19  1  0
 19 20  2  0
 20 21  1  0
 11  4  1  0
 20 14  1  0
M  END
>  <ref_mols>  (462) 
7gov-a

>  <gnina_score>  (462) 
5.296

>  <smina_score_min>  (462) 
-5.395

>  <ref_pdb>  (462) 
7gov-a

>  <inspiration_score>  (462) 
None

>  <inchikey>  (462) 
IJQXPIKSUAXDON-UHFFFAOYSA-N

>  <tags>  (462) 
BulkDock Fragalysis export,openbind_d68ev3c_c2_elabs_scored,openbind_d68ev3c_c2_elabs_scored_4.5plus,openbind_d68ev3c_c2_elabs,openbind_d68ev3c_c2_elabs_scored_5plus,syndirella_product,openbind_d68ev3c_c2_elabs_scored_top80percent,syndirella_placed

>  <smiles>  (462) 
O=C(Nc1cc(F)c(F)cc1CO)c1c(Cl)cncc1Br

>  <subsites>  (462) 
None

>  <rmsd(smina/fragmenstein)>  (462) 
1.337

>  <alias>  (462) 
None

>  <energy_score>  (462) 
-29.08268

>  <HIPPO Pose ID>  (462) 
65650

>  <distance_score>  (462) 
0.826311

>  <HIPPO Compound ID>  (462) 
103035

>  <gnina_score_min>  (462) 
5.102

>  <name>  (462) 
P65650

>  <exports>  (462) 
['/opt/xchem-fragalysis-2/maxwin/BulkDock/OUTPUTS/openbind_d68ev3c_c2_elabs_1LOTQJ3.sdf', '/opt/xchem-fragalysis-2/maxwin/BulkDock/OUTPUTS/openbind_d68ev3c_c2_elabs_1LSYEHW.sdf', '/opt/xchem-fragalysis-2/maxwin/BulkDock/OUTPUTS/openbind_d68ev3c_c2_elabs_1LSYI5W.sdf']

$$$$
P65651
     RDKit          3D

 21 22  0  0  0  0  0  0  0  0999 V2000
    3.5747   -3.1963   33.2881 N   0  0  0  0  0  0  0  0  0  0  0  0
    3.0228   -3.3156   34.3029 C   0  0  0  0  0  0  0  0  0  0  0  0
    2.3416   -3.3818   35.5622 C   0  0  0  0  0  0  0  0  0  0  0  0
    2.8365   -2.6004   36.6217 C   0  0  0  0  0  0  0  0  0  0  0  0
    2.2459   -2.6560   37.8824 C   0  0  0  0  0  0  0  0  0  0  0  0
    1.1601   -3.4925   38.0850 C   0  0  0  0  0  0  0  0  0  0  0  0
    0.5723   -3.4981   39.2933 F   0  0  0  0  0  0  0  0  0  0  0  0
    0.6630   -4.2815   37.0442 C   0  0  0  0  0  0  0  0  0  0  0  0
   -0.9142   -5.2434   37.4067 Br  0  0  0  0  0  0  0  0  0  0  0  0
    1.2502   -4.2384   35.7658 C   0  0  0  0  0  0  0  0  0  0  0  0
    0.7614   -5.0130   34.7017 N   0  0  0  0  0  0  0  0  0  0  0  0
    0.4252   -6.5192   34.6285 C   0  0  0  0  0  0  0  0  0  0  0  0
    0.5744   -7.3667   35.4174 O   0  0  0  0  0  0  0  0  0  0  0  0
   -0.2959   -6.9092   33.3714 C   0  0  0  0  0  0  0  0  0  0  0  0
    0.1129   -6.5234   32.0913 C   0  0  0  0  0  0  0  0  0  0  0  0
    1.3626   -5.3876   31.7566 Cl  0  0  0  0  0  0  0  0  0  0  0  0
   -0.5411   -7.0801   30.9935 C   0  0  0  0  0  0  0  0  0  0  0  0
   -1.5709   -7.9568   31.0694 N   0  0  0  0  0  0  0  0  0  0  0  0
   -1.9616   -8.2952   32.3127 C   0  0  0  0  0  0  0  0  0  0  0  0
   -1.3856   -7.7947   33.4698 C   0  0  0  0  0  0  0  0  0  0  0  0
   -2.2618   -8.2848   35.0670 Br  0  0  0  0  0  0  0  0  0  0  0  0
  1  2  3  0
  2  3  1  0
  3  4  2  0
  4  5  1  0
  5  6  2  0
  6  7  1  0
  6  8  1  0
  8  9  1  0
  8 10  2  0
 10 11  1  0
 11 12  1  0
 12 13  2  0
 12 14  1  0
 14 15  2  0
 15 16  1  0
 15 17  1  0
 17 18  2  0
 18 19  1  0
 19 20  2  0
 20 21  1  0
 10  3  1  0
 20 14  1  0
M  END
>  <ref_mols>  (463) 
7gov-a

>  <gnina_score>  (463) 
5.362

>  <smina_score_min>  (463) 
-4.349

>  <ref_pdb>  (463) 
7gov-a

>  <inspiration_score>  (463) 
None

>  <inchikey>  (463) 
PNLBACGWUDYBLV-UHFFFAOYSA-N

>  <tags>  (463) 
BulkDock Fragalysis export,openbind_d68ev3c_c2_elabs_scored,openbind_d68ev3c_c2_elabs_scored_4.5plus,openbind_d68ev3c_c2_elabs,openbind_d68ev3c_c2_elabs_scored_5plus,syndirella_product,openbind_d68ev3c_c2_elabs_scored_top80percent,syndirella_placed

>  <smiles>  (463) 
N#Cc1ccc(F)c(Br)c1NC(=O)c1c(Cl)cncc1Br

>  <subsites>  (463) 
None

>  <rmsd(smina/fragmenstein)>  (463) 
0.324

>  <alias>  (463) 
None

>  <energy_score>  (463) 
-15.23102

>  <HIPPO Pose ID>  (463) 
65651

>  <distance_score>  (463) 
0.581717

>  <HIPPO Compound ID>  (463) 
103036

>  <gnina_score_min>  (463) 
5.266

>  <name>  (463) 
P65651

>  <exports>  (463) 
['/opt/xchem-fragalysis-2/maxwin/BulkDock/OUTPUTS/openbind_d68ev3c_c2_elabs_1LOTQJ3.sdf', '/opt/xchem-fragalysis-2/maxwin/BulkDock/OUTPUTS/openbind_d68ev3c_c2_elabs_1LSYEHW.sdf', '/opt/xchem-fragalysis-2/maxwin/BulkDock/OUTPUTS/openbind_d68ev3c_c2_elabs_1LSYI5W.sdf']

$$$$
P65652
     RDKit          3D

 21 22  0  0  0  0  0  0  0  0999 V2000
    2.0779   -1.9434   39.3285 C   0  0  0  0  0  0  0  0  0  0  0  0
    1.7353   -2.7659   38.1185 C   0  0  0  0  0  0  0  0  0  0  0  0
    0.7725   -3.7688   38.2390 C   0  0  0  0  0  0  0  0  0  0  0  0
    0.1512   -3.9641   39.4124 F   0  0  0  0  0  0  0  0  0  0  0  0
    0.4133   -4.5660   37.1630 C   0  0  0  0  0  0  0  0  0  0  0  0
    1.0084   -4.3613   35.9195 C   0  0  0  0  0  0  0  0  0  0  0  0
    0.5794   -5.1446   34.8512 N   0  0  0  0  0  0  0  0  0  0  0  0
    0.0938   -6.6041   34.8134 C   0  0  0  0  0  0  0  0  0  0  0  0
    0.0483   -7.4068   35.6569 O   0  0  0  0  0  0  0  0  0  0  0  0
   -0.5024   -7.0156   33.4933 C   0  0  0  0  0  0  0  0  0  0  0  0
   -0.0202   -6.6065   32.2413 C   0  0  0  0  0  0  0  0  0  0  0  0
    1.2095   -5.4292   31.9696 Cl  0  0  0  0  0  0  0  0  0  0  0  0
   -0.5808   -7.1711   31.0969 C   0  0  0  0  0  0  0  0  0  0  0  0
   -1.5828   -8.0787   31.0965 N   0  0  0  0  0  0  0  0  0  0  0  0
   -2.0461   -8.4426   32.3061 C   0  0  0  0  0  0  0  0  0  0  0  0
   -1.5716   -7.9374   33.5053 C   0  0  0  0  0  0  0  0  0  0  0  0
   -2.5772   -8.4819   35.0158 Br  0  0  0  0  0  0  0  0  0  0  0  0
    2.0050   -3.3831   35.7497 C   0  0  0  0  0  0  0  0  0  0  0  0
    2.7091   -3.2886   34.4209 C   0  0  0  0  0  0  0  0  0  0  0  0
    2.3501   -2.5780   36.8621 C   0  0  0  0  0  0  0  0  0  0  0  0
    3.6507   -1.1823   36.6833 Br  0  0  0  0  0  0  0  0  0  0  0  0
  1  2  1  0
  2  3  2  0
  3  4  1  0
  3  5  1  0
  5  6  2  0
  6  7  1  0
  7  8  1  0
  8  9  2  0
  8 10  1  0
 10 11  2  0
 11 12  1  0
 11 13  1  0
 13 14  2  0
 14 15  1  0
 15 16  2  0
 16 17  1  0
  6 18  1  0
 18 19  1  0
 18 20  2  0
 20 21  1  0
 20  2  1  0
 16 10  1  0
M  END
>  <ref_mols>  (464) 
7gov-a

>  <gnina_score>  (464) 
5.347

>  <smina_score_min>  (464) 
-5.624

>  <ref_pdb>  (464) 
7gov-a

>  <inspiration_score>  (464) 
None

>  <inchikey>  (464) 
OWLOISYDOSCKSS-UHFFFAOYSA-N

>  <tags>  (464) 
BulkDock Fragalysis export,openbind_d68ev3c_c2_elabs_scored,openbind_d68ev3c_c2_elabs_scored_4.5plus,openbind_d68ev3c_c2_elabs,openbind_d68ev3c_c2_elabs_scored_5plus,syndirella_product,openbind_d68ev3c_c2_elabs_scored_top80percent,syndirella_placed

>  <smiles>  (464) 
Cc1c(F)cc(NC(=O)c2c(Cl)cncc2Br)c(C)c1Br

>  <subsites>  (464) 
None

>  <rmsd(smina/fragmenstein)>  (464) 
1.294

>  <alias>  (464) 
None

>  <energy_score>  (464) 
-17.555655

>  <HIPPO Pose ID>  (464) 
65652

>  <distance_score>  (464) 
0.490121

>  <HIPPO Compound ID>  (464) 
103038

>  <gnina_score_min>  (464) 
5.307

>  <name>  (464) 
P65652

>  <exports>  (464) 
['/opt/xchem-fragalysis-2/maxwin/BulkDock/OUTPUTS/openbind_d68ev3c_c2_elabs_1LOTQJ3.sdf', '/opt/xchem-fragalysis-2/maxwin/BulkDock/OUTPUTS/openbind_d68ev3c_c2_elabs_1LSYEHW.sdf', '/opt/xchem-fragalysis-2/maxwin/BulkDock/OUTPUTS/openbind_d68ev3c_c2_elabs_1LSYI5W.sdf']

$$$$
P65653
     RDKit          3D

 21 22  0  0  0  0  0  0  0  0999 V2000
    2.7126   -4.1706   34.8335 C   0  0  0  0  0  0  0  0  0  0  0  0
    1.8501   -3.8787   36.0358 C   0  0  0  0  0  0  0  0  0  0  0  0
    2.3531   -3.1260   37.1203 C   0  0  0  0  0  0  0  0  0  0  0  0
    3.6748   -2.5598   37.1238 C   0  0  0  0  0  0  0  0  0  0  0  0
    4.7211   -2.0549   37.1495 N   0  0  0  0  0  0  0  0  0  0  0  0
    1.5581   -2.9038   38.2494 C   0  0  0  0  0  0  0  0  0  0  0  0
    0.2581   -3.3825   38.2809 C   0  0  0  0  0  0  0  0  0  0  0  0
   -0.4718   -3.2116   39.3893 F   0  0  0  0  0  0  0  0  0  0  0  0
   -0.2935   -4.0429   37.1943 C   0  0  0  0  0  0  0  0  0  0  0  0
    0.5040   -4.3056   36.0838 C   0  0  0  0  0  0  0  0  0  0  0  0
   -0.0513   -5.0825   35.0765 N   0  0  0  0  0  0  0  0  0  0  0  0
    0.2520   -6.5292   34.6476 C   0  0  0  0  0  0  0  0  0  0  0  0
    0.9612   -7.3245   35.1199 O   0  0  0  0  0  0  0  0  0  0  0  0
   -0.4812   -6.9225   33.4257 C   0  0  0  0  0  0  0  0  0  0  0  0
   -0.0431   -6.5268   32.1617 C   0  0  0  0  0  0  0  0  0  0  0  0
    1.1615   -5.3322   31.8845 Cl  0  0  0  0  0  0  0  0  0  0  0  0
   -0.6399   -7.1211   31.0576 C   0  0  0  0  0  0  0  0  0  0  0  0
   -1.6367   -8.0384   31.1280 N   0  0  0  0  0  0  0  0  0  0  0  0
   -2.0415   -8.3881   32.3672 C   0  0  0  0  0  0  0  0  0  0  0  0
   -1.5123   -7.8545   33.5275 C   0  0  0  0  0  0  0  0  0  0  0  0
   -2.3180   -8.3462   35.1461 Br  0  0  0  0  0  0  0  0  0  0  0  0
  1  2  1  0
  2  3  2  0
  3  4  1  0
  4  5  3  0
  3  6  1  0
  6  7  2  0
  7  8  1  0
  7  9  1  0
  9 10  2  0
 10 11  1  0
 11 12  1  0
 12 13  2  0
 12 14  1  0
 14 15  2  0
 15 16  1  0
 15 17  1  0
 17 18  2  0
 18 19  1  0
 19 20  2  0
 20 21  1  0
 10  2  1  0
 20 14  1  0
M  END
>  <ref_mols>  (465) 
7gov-a

>  <gnina_score>  (465) 
5.267

>  <smina_score_min>  (465) 
-5.518

>  <ref_pdb>  (465) 
7gov-a

>  <inspiration_score>  (465) 
None

>  <inchikey>  (465) 
OULKHUCNGODFKL-UHFFFAOYSA-N

>  <tags>  (465) 
BulkDock Fragalysis export,openbind_d68ev3c_c2_elabs_scored,openbind_d68ev3c_c2_elabs_scored_4.5plus,openbind_d68ev3c_c2_elabs,openbind_d68ev3c_c2_elabs_scored_5plus,syndirella_product,openbind_d68ev3c_c2_elabs_scored_top80percent,syndirella_placed

>  <smiles>  (465) 
Cc1c(C#N)cc(F)cc1NC(=O)c1c(Cl)cncc1Br

>  <subsites>  (465) 
None

>  <rmsd(smina/fragmenstein)>  (465) 
1.179

>  <alias>  (465) 
None

>  <energy_score>  (465) 
-16.613116

>  <HIPPO Pose ID>  (465) 
65653

>  <distance_score>  (465) 
0.403811

>  <HIPPO Compound ID>  (465) 
103039

>  <gnina_score_min>  (465) 
5.149

>  <name>  (465) 
P65653

>  <exports>  (465) 
['/opt/xchem-fragalysis-2/maxwin/BulkDock/OUTPUTS/openbind_d68ev3c_c2_elabs_1LOTQJ3.sdf', '/opt/xchem-fragalysis-2/maxwin/BulkDock/OUTPUTS/openbind_d68ev3c_c2_elabs_1LSYEHW.sdf', '/opt/xchem-fragalysis-2/maxwin/BulkDock/OUTPUTS/openbind_d68ev3c_c2_elabs_1LSYI5W.sdf']

$$$$
P65654
     RDKit          3D

 21 22  0  0  0  0  0  0  0  0999 V2000
    1.0638   -7.2479   35.1042 O   0  0  0  0  0  0  0  0  0  0  0  0
    0.2605   -6.5031   34.7080 C   0  0  0  0  0  0  0  0  0  0  0  0
   -0.1132   -5.0919   35.1888 N   0  0  0  0  0  0  0  0  0  0  0  0
    0.4659   -4.2861   36.1660 C   0  0  0  0  0  0  0  0  0  0  0  0
    1.8360   -3.9530   36.1758 C   0  0  0  0  0  0  0  0  0  0  0  0
    2.7926   -4.3293   35.0654 C   0  0  0  0  0  0  0  0  0  0  0  0
    4.1531   -4.3186   35.4988 O   0  0  0  0  0  0  0  0  0  0  0  0
    2.3159   -3.1472   37.2320 C   0  0  0  0  0  0  0  0  0  0  0  0
    1.5035   -2.7983   38.3066 C   0  0  0  0  0  0  0  0  0  0  0  0
    0.1769   -3.1920   38.3021 C   0  0  0  0  0  0  0  0  0  0  0  0
   -0.5845   -2.9223   39.3694 F   0  0  0  0  0  0  0  0  0  0  0  0
   -0.3547   -3.8786   37.2200 C   0  0  0  0  0  0  0  0  0  0  0  0
   -1.6518   -4.2217   37.2293 F   0  0  0  0  0  0  0  0  0  0  0  0
   -0.5095   -6.9153   33.5161 C   0  0  0  0  0  0  0  0  0  0  0  0
   -1.5278   -7.8520   33.6714 C   0  0  0  0  0  0  0  0  0  0  0  0
   -2.2013   -8.2543   35.1911 Cl  0  0  0  0  0  0  0  0  0  0  0  0
   -2.0771   -8.4197   32.5336 C   0  0  0  0  0  0  0  0  0  0  0  0
   -1.7016   -8.1028   31.2729 N   0  0  0  0  0  0  0  0  0  0  0  0
   -0.7197   -7.1748   31.1546 C   0  0  0  0  0  0  0  0  0  0  0  0
   -0.1097   -6.5435   32.2306 C   0  0  0  0  0  0  0  0  0  0  0  0
    1.1793   -5.2124   31.8562 Br  0  0  0  0  0  0  0  0  0  0  0  0
  1  2  2  0
  2  3  1  0
  3  4  1  0
  4  5  2  0
  5  6  1  0
  6  7  1  0
  5  8  1  0
  8  9  2  0
  9 10  1  0
 10 11  1  0
 10 12  2  0
 12 13  1  0
  2 14  1  0
 14 15  2  0
 15 16  1  0
 15 17  1  0
 17 18  2  0
 18 19  1  0
 19 20  2  0
 20 21  1  0
 12  4  1  0
 20 14  1  0
M  END
>  <ref_mols>  (466) 
7gov-a

>  <gnina_score>  (466) 
5.111

>  <smina_score_min>  (466) 
-5.949

>  <ref_pdb>  (466) 
7gov-a

>  <inspiration_score>  (466) 
None

>  <inchikey>  (466) 
PNQNCKWGQBABBV-UHFFFAOYSA-N

>  <tags>  (466) 
BulkDock Fragalysis export,openbind_d68ev3c_c2_elabs_scored,openbind_d68ev3c_c2_elabs_scored_4.5plus,openbind_d68ev3c_c2_elabs,openbind_d68ev3c_c2_elabs_scored_5plus,syndirella_product,openbind_d68ev3c_c2_elabs_scored_top80percent,syndirella_placed

>  <smiles>  (466) 
O=C(Nc1c(CO)ccc(F)c1F)c1c(Cl)cncc1Br

>  <subsites>  (466) 
None

>  <rmsd(smina/fragmenstein)>  (466) 
0.513

>  <alias>  (466) 
None

>  <energy_score>  (466) 
-14.290936

>  <HIPPO Pose ID>  (466) 
65654

>  <distance_score>  (466) 
0.483831

>  <HIPPO Compound ID>  (466) 
103041

>  <gnina_score_min>  (466) 
5.032

>  <name>  (466) 
P65654

>  <exports>  (466) 
['/opt/xchem-fragalysis-2/maxwin/BulkDock/OUTPUTS/openbind_d68ev3c_c2_elabs_1LOTQJ3.sdf', '/opt/xchem-fragalysis-2/maxwin/BulkDock/OUTPUTS/openbind_d68ev3c_c2_elabs_1LSYEHW.sdf', '/opt/xchem-fragalysis-2/maxwin/BulkDock/OUTPUTS/openbind_d68ev3c_c2_elabs_1LSYI5W.sdf']

$$$$
P65657
     RDKit          3D

 21 22  0  0  0  0  0  0  0  0999 V2000
    4.0088   -4.4698   34.5203 C   0  0  0  0  0  0  0  0  0  0  0  0
    2.9804   -3.3542   34.6377 C   0  0  0  0  0  0  0  0  0  0  0  0
    2.2167   -3.4046   35.9413 C   0  0  0  0  0  0  0  0  0  0  0  0
    2.6311   -2.5783   37.0008 C   0  0  0  0  0  0  0  0  0  0  0  0
    1.9904   -2.6351   38.2407 C   0  0  0  0  0  0  0  0  0  0  0  0
    2.5849   -1.5175   39.6461 Br  0  0  0  0  0  0  0  0  0  0  0  0
    0.9279   -3.5088   38.4332 C   0  0  0  0  0  0  0  0  0  0  0  0
    0.2835   -3.5670   39.6085 F   0  0  0  0  0  0  0  0  0  0  0  0
    0.5101   -4.3408   37.4055 C   0  0  0  0  0  0  0  0  0  0  0  0
    1.1575   -4.2992   36.1674 C   0  0  0  0  0  0  0  0  0  0  0  0
    0.7429   -5.1559   35.1578 N   0  0  0  0  0  0  0  0  0  0  0  0
   -0.1482   -6.4064   35.2125 C   0  0  0  0  0  0  0  0  0  0  0  0
   -0.6149   -6.9630   36.1250 O   0  0  0  0  0  0  0  0  0  0  0  0
   -0.4793   -6.9217   33.8498 C   0  0  0  0  0  0  0  0  0  0  0  0
   -1.5331   -7.8207   33.7950 C   0  0  0  0  0  0  0  0  0  0  0  0
   -1.9481   -8.2358   32.5558 C   0  0  0  0  0  0  0  0  0  0  0  0
   -3.3069   -9.2232   32.4410 Cl  0  0  0  0  0  0  0  0  0  0  0  0
   -1.4218   -7.8678   31.3732 N   0  0  0  0  0  0  0  0  0  0  0  0
   -0.3599   -7.0429   31.4533 C   0  0  0  0  0  0  0  0  0  0  0  0
    0.1462   -6.5642   32.6548 C   0  0  0  0  0  0  0  0  0  0  0  0
    1.3033   -5.8391   32.6348 O   0  0  0  0  0  0  0  0  0  0  0  0
  1  2  1  0
  2  3  1  0
  3  4  2  0
  4  5  1  0
  5  6  1  0
  5  7  2  0
  7  8  1  0
  7  9  1  0
  9 10  2  0
 10 11  1  0
 11 12  1  0
 12 13  2  0
 12 14  1  0
 14 15  2  0
 15 16  1  0
 16 17  1  0
 16 18  2  0
 18 19  1  0
 19 20  2  0
 20 21  1  0
 10  3  1  0
 20 14  1  0
M  END
>  <ref_mols>  (467) 
7gov-a

>  <gnina_score>  (467) 
5.002

>  <smina_score_min>  (467) 
-5.257

>  <ref_pdb>  (467) 
7gov-a

>  <inspiration_score>  (467) 
None

>  <inchikey>  (467) 
LIIHKXGUCQFIDM-UHFFFAOYSA-N

>  <tags>  (467) 
BulkDock Fragalysis export,openbind_d68ev3c_c2_elabs_scored,openbind_d68ev3c_c2_elabs_scored_4.5plus,openbind_d68ev3c_c2_elabs,openbind_d68ev3c_c2_elabs_scored_5plus,syndirella_product,openbind_d68ev3c_c2_elabs_scored_top80percent,syndirella_placed

>  <smiles>  (467) 
CCc1cc(Br)c(F)cc1NC(=O)c1cc(Cl)ncc1O

>  <subsites>  (467) 
None

>  <rmsd(smina/fragmenstein)>  (467) 
0.693

>  <alias>  (467) 
None

>  <energy_score>  (467) 
-35.92261

>  <HIPPO Pose ID>  (467) 
65657

>  <distance_score>  (467) 
0.697187

>  <HIPPO Compound ID>  (467) 
103047

>  <gnina_score_min>  (467) 
5.0

>  <name>  (467) 
P65657

>  <exports>  (467) 
['/opt/xchem-fragalysis-2/maxwin/BulkDock/OUTPUTS/openbind_d68ev3c_c2_elabs_1LOTQJ3.sdf', '/opt/xchem-fragalysis-2/maxwin/BulkDock/OUTPUTS/openbind_d68ev3c_c2_elabs_1LSYEHW.sdf', '/opt/xchem-fragalysis-2/maxwin/BulkDock/OUTPUTS/openbind_d68ev3c_c2_elabs_1LSYI5W.sdf']

$$$$
P65662
     RDKit          3D

 21 22  0  0  0  0  0  0  0  0999 V2000
    2.1654   -1.9695   39.3441 C   0  0  0  0  0  0  0  0  0  0  0  0
    1.7472   -2.8558   38.2055 C   0  0  0  0  0  0  0  0  0  0  0  0
    0.7010   -3.7578   38.4023 C   0  0  0  0  0  0  0  0  0  0  0  0
    0.0762   -3.8117   39.5882 F   0  0  0  0  0  0  0  0  0  0  0  0
    0.2594   -4.5981   37.3911 C   0  0  0  0  0  0  0  0  0  0  0  0
    0.8716   -4.5602   36.1406 C   0  0  0  0  0  0  0  0  0  0  0  0
    0.3535   -5.3588   35.1227 N   0  0  0  0  0  0  0  0  0  0  0  0
   -0.4182   -6.6997   35.1902 C   0  0  0  0  0  0  0  0  0  0  0  0
   -0.8071   -7.3048   36.1127 O   0  0  0  0  0  0  0  0  0  0  0  0
   -0.8015   -7.2423   33.8358 C   0  0  0  0  0  0  0  0  0  0  0  0
   -0.2662   -6.7797   32.6285 C   0  0  0  0  0  0  0  0  0  0  0  0
   -0.8005   -7.2614   31.4460 C   0  0  0  0  0  0  0  0  0  0  0  0
   -0.3396   -6.5924   29.9391 Cl  0  0  0  0  0  0  0  0  0  0  0  0
   -1.7759   -8.1855   31.3608 N   0  0  0  0  0  0  0  0  0  0  0  0
   -2.2339   -8.6633   32.5347 C   0  0  0  0  0  0  0  0  0  0  0  0
   -1.7967   -8.2283   33.7735 C   0  0  0  0  0  0  0  0  0  0  0  0
   -2.4287   -8.7721   34.8537 O   0  0  0  0  0  0  0  0  0  0  0  0
    1.9564   -3.6921   35.8976 C   0  0  0  0  0  0  0  0  0  0  0  0
    2.6695   -3.7050   34.5666 C   0  0  0  0  0  0  0  0  0  0  0  0
    2.3660   -2.8222   36.9395 C   0  0  0  0  0  0  0  0  0  0  0  0
    3.7640   -1.5469   36.6331 Br  0  0  0  0  0  0  0  0  0  0  0  0
  1  2  1  0
  2  3  2  0
  3  4  1  0
  3  5  1  0
  5  6  2  0
  6  7  1  0
  7  8  1  0
  8  9  2  0
  8 10  1  0
 10 11  2  0
 11 12  1  0
 12 13  1  0
 12 14  2  0
 14 15  1  0
 15 16  2  0
 16 17  1  0
  6 18  1  0
 18 19  1  0
 18 20  2  0
 20 21  1  0
 20  2  1  0
 16 10  1  0
M  END
>  <ref_mols>  (468) 
7gov-a

>  <gnina_score>  (468) 
4.902

>  <smina_score_min>  (468) 
-6.596

>  <ref_pdb>  (468) 
7gov-a

>  <inspiration_score>  (468) 
None

>  <inchikey>  (468) 
RWOOSWVMODYNRF-UHFFFAOYSA-N

>  <tags>  (468) 
BulkDock Fragalysis export,openbind_d68ev3c_c2_elabs_scored,openbind_d68ev3c_c2_elabs_scored_4.5plus,openbind_d68ev3c_c2_elabs,openbind_d68ev3c_c2_elabs_scored_5plus,syndirella_product,openbind_d68ev3c_c2_elabs_scored_top80percent,syndirella_placed

>  <smiles>  (468) 
Cc1c(F)cc(NC(=O)c2cc(Cl)ncc2O)c(C)c1Br

>  <subsites>  (468) 
None

>  <rmsd(smina/fragmenstein)>  (468) 
1.082

>  <alias>  (468) 
None

>  <energy_score>  (468) 
-27.735989

>  <HIPPO Pose ID>  (468) 
65662

>  <distance_score>  (468) 
0.604944

>  <HIPPO Compound ID>  (468) 
103057

>  <gnina_score_min>  (468) 
5.042

>  <name>  (468) 
P65662

>  <exports>  (468) 
['/opt/xchem-fragalysis-2/maxwin/BulkDock/OUTPUTS/openbind_d68ev3c_c2_elabs_1LOTQJ3.sdf', '/opt/xchem-fragalysis-2/maxwin/BulkDock/OUTPUTS/openbind_d68ev3c_c2_elabs_1LSYEHW.sdf', '/opt/xchem-fragalysis-2/maxwin/BulkDock/OUTPUTS/openbind_d68ev3c_c2_elabs_1LSYI5W.sdf']

$$$$
P65665
     RDKit          3D

 21 22  0  0  0  0  0  0  0  0999 V2000
    3.7143   -4.0822   33.6613 C   0  0  0  0  0  0  0  0  0  0  0  0
    3.0442   -3.9678   34.6513 C   0  0  0  0  0  0  0  0  0  0  0  0
    2.2582   -3.8334   35.8439 C   0  0  0  0  0  0  0  0  0  0  0  0
    2.7135   -2.9650   36.8434 C   0  0  0  0  0  0  0  0  0  0  0  0
    1.9916   -2.8304   38.0242 C   0  0  0  0  0  0  0  0  0  0  0  0
    2.4469   -2.0102   38.9824 F   0  0  0  0  0  0  0  0  0  0  0  0
    0.8099   -3.5336   38.2097 C   0  0  0  0  0  0  0  0  0  0  0  0
    0.1199   -3.4068   39.3523 F   0  0  0  0  0  0  0  0  0  0  0  0
    0.3294   -4.3761   37.2143 C   0  0  0  0  0  0  0  0  0  0  0  0
    1.0575   -4.5432   36.0295 C   0  0  0  0  0  0  0  0  0  0  0  0
    0.5707   -5.3952   35.0352 N   0  0  0  0  0  0  0  0  0  0  0  0
   -0.7432   -6.1975   34.9591 C   0  0  0  0  0  0  0  0  0  0  0  0
   -1.5905   -6.3344   35.7468 O   0  0  0  0  0  0  0  0  0  0  0  0
   -0.9355   -6.9167   33.6366 C   0  0  0  0  0  0  0  0  0  0  0  0
   -0.4019   -6.4693   32.4132 C   0  0  0  0  0  0  0  0  0  0  0  0
    0.4804   -5.0057   32.1732 Cl  0  0  0  0  0  0  0  0  0  0  0  0
   -0.6702   -7.1943   31.2519 C   0  0  0  0  0  0  0  0  0  0  0  0
   -1.4579   -8.2888   31.1965 N   0  0  0  0  0  0  0  0  0  0  0  0
   -1.9782   -8.6932   32.3693 C   0  0  0  0  0  0  0  0  0  0  0  0
   -1.7706   -8.0546   33.5851 C   0  0  0  0  0  0  0  0  0  0  0  0
   -2.7999   -8.7829   35.0006 Br  0  0  0  0  0  0  0  0  0  0  0  0
  1  2  3  0
  2  3  1  0
  3  4  2  0
  4  5  1  0
  5  6  1  0
  5  7  2  0
  7  8  1  0
  7  9  1  0
  9 10  2  0
 10 11  1  0
 11 12  1  0
 12 13  2  0
 12 14  1  0
 14 15  2  0
 15 16  1  0
 15 17  1  0
 17 18  2  0
 18 19  1  0
 19 20  2  0
 20 21  1  0
 10  3  1  0
 20 14  1  0
M  END
>  <ref_mols>  (469) 
7gov-a

>  <gnina_score>  (469) 
5.515

>  <smina_score_min>  (469) 
-5.285

>  <ref_pdb>  (469) 
7gov-a

>  <inspiration_score>  (469) 
None

>  <inchikey>  (469) 
ATVQPORFZHSTSJ-UHFFFAOYSA-N

>  <tags>  (469) 
BulkDock Fragalysis export,openbind_d68ev3c_c2_elabs_scored,openbind_d68ev3c_c2_elabs_scored_4.5plus,openbind_d68ev3c_c2_elabs,openbind_d68ev3c_c2_elabs_scored_5plus,syndirella_product,openbind_d68ev3c_c2_elabs_scored_top80percent,syndirella_placed

>  <smiles>  (469) 
C#Cc1cc(F)c(F)cc1NC(=O)c1c(Cl)cncc1Br

>  <subsites>  (469) 
None

>  <rmsd(smina/fragmenstein)>  (469) 
1.282

>  <alias>  (469) 
None

>  <energy_score>  (469) 
-27.40192

>  <HIPPO Pose ID>  (469) 
65665

>  <distance_score>  (469) 
0.805853

>  <HIPPO Compound ID>  (469) 
103061

>  <gnina_score_min>  (469) 
5.34

>  <name>  (469) 
P65665

>  <exports>  (469) 
['/opt/xchem-fragalysis-2/maxwin/BulkDock/OUTPUTS/openbind_d68ev3c_c2_elabs_1LOTQJ3.sdf', '/opt/xchem-fragalysis-2/maxwin/BulkDock/OUTPUTS/openbind_d68ev3c_c2_elabs_1LSYEHW.sdf', '/opt/xchem-fragalysis-2/maxwin/BulkDock/OUTPUTS/openbind_d68ev3c_c2_elabs_1LSYI5W.sdf']

$$$$
P65670
     RDKit          3D

 21 22  0  0  0  0  0  0  0  0999 V2000
    0.0844   -7.3992   35.6291 O   0  0  0  0  0  0  0  0  0  0  0  0
    0.1114   -6.5919   34.7884 C   0  0  0  0  0  0  0  0  0  0  0  0
    0.5693   -5.1224   34.8305 N   0  0  0  0  0  0  0  0  0  0  0  0
    0.9866   -4.3362   35.8997 C   0  0  0  0  0  0  0  0  0  0  0  0
    0.4179   -4.5699   37.1569 C   0  0  0  0  0  0  0  0  0  0  0  0
    0.7815   -3.7799   38.2393 C   0  0  0  0  0  0  0  0  0  0  0  0
    0.2010   -3.9762   39.4309 F   0  0  0  0  0  0  0  0  0  0  0  0
    1.7290   -2.7776   38.1011 C   0  0  0  0  0  0  0  0  0  0  0  0
    2.3154   -2.5564   36.8550 C   0  0  0  0  0  0  0  0  0  0  0  0
    1.9430   -3.3260   35.7352 C   0  0  0  0  0  0  0  0  0  0  0  0
    2.6336   -3.1008   34.4208 C   0  0  0  0  0  0  0  0  0  0  0  0
    3.3434   -4.1738   33.9804 F   0  0  0  0  0  0  0  0  0  0  0  0
    1.7523   -2.7955   33.4239 F   0  0  0  0  0  0  0  0  0  0  0  0
   -0.4854   -7.0110   33.4733 C   0  0  0  0  0  0  0  0  0  0  0  0
   -0.0038   -6.6127   32.2192 C   0  0  0  0  0  0  0  0  0  0  0  0
    1.2414   -5.4576   31.9401 Cl  0  0  0  0  0  0  0  0  0  0  0  0
   -0.5749   -7.1766   31.0800 C   0  0  0  0  0  0  0  0  0  0  0  0
   -1.5844   -8.0765   31.0873 N   0  0  0  0  0  0  0  0  0  0  0  0
   -2.0432   -8.4337   32.3004 C   0  0  0  0  0  0  0  0  0  0  0  0
   -1.5594   -7.9268   33.4949 C   0  0  0  0  0  0  0  0  0  0  0  0
   -2.5554   -8.4637   35.0145 Br  0  0  0  0  0  0  0  0  0  0  0  0
  1  2  2  0
  2  3  1  0
  3  4  1  0
  4  5  2  0
  5  6  1  0
  6  7  1  0
  6  8  2  0
  8  9  1  0
  9 10  2  0
 10 11  1  0
 11 12  1  0
 11 13  1  0
  2 14  1  0
 14 15  2  0
 15 16  1  0
 15 17  1  0
 17 18  2  0
 18 19  1  0
 19 20  2  0
 20 21  1  0
 10  4  1  0
 20 14  1  0
M  END
>  <ref_mols>  (470) 
7gov-a

>  <gnina_score>  (470) 
5.233

>  <smina_score_min>  (470) 
-5.47

>  <ref_pdb>  (470) 
7gov-a

>  <inspiration_score>  (470) 
None

>  <inchikey>  (470) 
LDCYTRVGVMGVEV-UHFFFAOYSA-N

>  <tags>  (470) 
BulkDock Fragalysis export,openbind_d68ev3c_c2_elabs_scored,openbind_d68ev3c_c2_elabs_scored_4.5plus,openbind_d68ev3c_c2_elabs,openbind_d68ev3c_c2_elabs_scored_5plus,syndirella_product,openbind_d68ev3c_c2_elabs_scored_top80percent,syndirella_placed

>  <smiles>  (470) 
O=C(Nc1cc(F)ccc1C(F)F)c1c(Cl)cncc1Br

>  <subsites>  (470) 
None

>  <rmsd(smina/fragmenstein)>  (470) 
1.207

>  <alias>  (470) 
None

>  <energy_score>  (470) 
-8.923719

>  <HIPPO Pose ID>  (470) 
65670

>  <distance_score>  (470) 
0.514918

>  <HIPPO Compound ID>  (470) 
103069

>  <gnina_score_min>  (470) 
5.168

>  <name>  (470) 
P65670

>  <exports>  (470) 
['/opt/xchem-fragalysis-2/maxwin/BulkDock/OUTPUTS/openbind_d68ev3c_c2_elabs_1LOTQJ3.sdf', '/opt/xchem-fragalysis-2/maxwin/BulkDock/OUTPUTS/openbind_d68ev3c_c2_elabs_1LSYEHW.sdf', '/opt/xchem-fragalysis-2/maxwin/BulkDock/OUTPUTS/openbind_d68ev3c_c2_elabs_1LSYI5W.sdf']

$$$$
P65671
     RDKit          3D

 21 22  0  0  0  0  0  0  0  0999 V2000
    0.1772   -7.4095   35.6039 O   0  0  0  0  0  0  0  0  0  0  0  0
    0.1420   -6.5778   34.7877 C   0  0  0  0  0  0  0  0  0  0  0  0
    0.5458   -5.0944   34.8573 N   0  0  0  0  0  0  0  0  0  0  0  0
    0.9738   -4.3246   35.9325 C   0  0  0  0  0  0  0  0  0  0  0  0
    0.4169   -4.5730   37.1911 C   0  0  0  0  0  0  0  0  0  0  0  0
    0.7972   -3.8024   38.2836 C   0  0  0  0  0  0  0  0  0  0  0  0
    0.2096   -4.0246   39.4691 F   0  0  0  0  0  0  0  0  0  0  0  0
    1.7563   -2.8076   38.1419 C   0  0  0  0  0  0  0  0  0  0  0  0
    2.2994   -1.7723   39.6283 Br  0  0  0  0  0  0  0  0  0  0  0  0
    2.3272   -2.5660   36.8914 C   0  0  0  0  0  0  0  0  0  0  0  0
    1.9369   -3.3198   35.7697 C   0  0  0  0  0  0  0  0  0  0  0  0
    2.6211   -3.0867   34.4538 C   0  0  0  0  0  0  0  0  0  0  0  0
    1.7124   -2.4793   33.5415 O   0  0  0  0  0  0  0  0  0  0  0  0
   -0.4884   -6.9863   33.4890 C   0  0  0  0  0  0  0  0  0  0  0  0
   -1.5702   -7.8902   33.5629 C   0  0  0  0  0  0  0  0  0  0  0  0
   -2.4317   -8.3070   35.0016 Cl  0  0  0  0  0  0  0  0  0  0  0  0
   -2.0818   -8.4282   32.3935 C   0  0  0  0  0  0  0  0  0  0  0  0
   -1.6429   -8.1103   31.1605 N   0  0  0  0  0  0  0  0  0  0  0  0
   -0.6318   -7.2139   31.1048 C   0  0  0  0  0  0  0  0  0  0  0  0
   -0.0349   -6.6191   32.2153 C   0  0  0  0  0  0  0  0  0  0  0  0
    1.3302   -5.3703   31.8250 Br  0  0  0  0  0  0  0  0  0  0  0  0
  1  2  2  0
  2  3  1  0
  3  4  1  0
  4  5  2  0
  5  6  1  0
  6  7  1  0
  6  8  2  0
  8  9  1  0
  8 10  1  0
 10 11  2  0
 11 12  1  0
 12 13  1  0
  2 14  1  0
 14 15  2  0
 15 16  1  0
 15 17  1  0
 17 18  2  0
 18 19  1  0
 19 20  2  0
 20 21  1  0
 11  4  1  0
 20 14  1  0
M  END
>  <ref_mols>  (471) 
7gov-a

>  <gnina_score>  (471) 
5.2

>  <smina_score_min>  (471) 
-5.844

>  <ref_pdb>  (471) 
7gov-a

>  <inspiration_score>  (471) 
None

>  <inchikey>  (471) 
YYGQBFYWAUGBFY-UHFFFAOYSA-N

>  <tags>  (471) 
BulkDock Fragalysis export,openbind_d68ev3c_c2_elabs_scored,openbind_d68ev3c_c2_elabs_scored_4.5plus,openbind_d68ev3c_c2_elabs,openbind_d68ev3c_c2_elabs_scored_5plus,syndirella_product,openbind_d68ev3c_c2_elabs_scored_top80percent,syndirella_placed

>  <smiles>  (471) 
O=C(Nc1cc(F)c(Br)cc1CO)c1c(Cl)cncc1Br

>  <subsites>  (471) 
None

>  <rmsd(smina/fragmenstein)>  (471) 
1.771

>  <alias>  (471) 
None

>  <energy_score>  (471) 
-26.482547

>  <HIPPO Pose ID>  (471) 
65671

>  <distance_score>  (471) 
0.493077

>  <HIPPO Compound ID>  (471) 
103070

>  <gnina_score_min>  (471) 
5.232

>  <name>  (471) 
P65671

>  <exports>  (471) 
['/opt/xchem-fragalysis-2/maxwin/BulkDock/OUTPUTS/openbind_d68ev3c_c2_elabs_1LOTQJ3.sdf', '/opt/xchem-fragalysis-2/maxwin/BulkDock/OUTPUTS/openbind_d68ev3c_c2_elabs_1LSYEHW.sdf', '/opt/xchem-fragalysis-2/maxwin/BulkDock/OUTPUTS/openbind_d68ev3c_c2_elabs_1LSYI5W.sdf']

$$$$
P65697
     RDKit          3D

 21 22  0  0  0  0  0  0  0  0999 V2000
    3.4741   -2.2888   34.2371 O   0  0  0  0  0  0  0  0  0  0  0  0
    2.8680   -3.3134   34.5294 C   0  0  0  0  0  0  0  0  0  0  0  0
    2.0682   -3.4156   35.7635 C   0  0  0  0  0  0  0  0  0  0  0  0
    2.4320   -2.6124   36.8535 C   0  0  0  0  0  0  0  0  0  0  0  0
    1.7974   -2.7877   38.0821 C   0  0  0  0  0  0  0  0  0  0  0  0
    2.3023   -1.7120   39.5529 Br  0  0  0  0  0  0  0  0  0  0  0  0
    0.8088   -3.7575   38.2205 C   0  0  0  0  0  0  0  0  0  0  0  0
    0.1737   -3.9271   39.3900 F   0  0  0  0  0  0  0  0  0  0  0  0
    0.4471   -4.5594   37.1406 C   0  0  0  0  0  0  0  0  0  0  0  0
    1.0639   -4.3806   35.8972 C   0  0  0  0  0  0  0  0  0  0  0  0
    0.6184   -5.1540   34.8274 N   0  0  0  0  0  0  0  0  0  0  0  0
    0.1411   -6.6154   34.7814 C   0  0  0  0  0  0  0  0  0  0  0  0
    0.1169   -7.4281   35.6154 O   0  0  0  0  0  0  0  0  0  0  0  0
   -0.4802   -7.0145   33.4698 C   0  0  0  0  0  0  0  0  0  0  0  0
   -0.0112   -6.6046   32.2136 C   0  0  0  0  0  0  0  0  0  0  0  0
    1.2166   -5.4276   31.9355 Cl  0  0  0  0  0  0  0  0  0  0  0  0
   -0.5858   -7.1660   31.0754 C   0  0  0  0  0  0  0  0  0  0  0  0
   -1.5909   -8.0699   31.0874 N   0  0  0  0  0  0  0  0  0  0  0  0
   -2.0448   -8.4317   32.3013 C   0  0  0  0  0  0  0  0  0  0  0  0
   -1.5547   -7.9290   33.4946 C   0  0  0  0  0  0  0  0  0  0  0  0
   -2.5442   -8.4616   35.0187 Br  0  0  0  0  0  0  0  0  0  0  0  0
  1  2  2  0
  2  3  1  0
  3  4  2  0
  4  5  1  0
  5  6  1  0
  5  7  2  0
  7  8  1  0
  7  9  1  0
  9 10  2  0
 10 11  1  0
 11 12  1  0
 12 13  2  0
 12 14  1  0
 14 15  2  0
 15 16  1  0
 15 17  1  0
 17 18  2  0
 18 19  1  0
 19 20  2  0
 20 21  1  0
 10  3  1  0
 20 14  1  0
M  END
>  <ref_mols>  (472) 
7gov-a

>  <gnina_score>  (472) 
5.268

>  <smina_score_min>  (472) 
-5.599

>  <ref_pdb>  (472) 
7gov-a

>  <inspiration_score>  (472) 
None

>  <inchikey>  (472) 
DVBTULZHGCMYCC-UHFFFAOYSA-N

>  <tags>  (472) 
BulkDock Fragalysis export,openbind_d68ev3c_c2_elabs_scored,openbind_d68ev3c_c2_elabs_scored_4.5plus,openbind_d68ev3c_c2_elabs,openbind_d68ev3c_c2_elabs_scored_5plus,syndirella_product,openbind_d68ev3c_c2_elabs_scored_top80percent,syndirella_placed

>  <smiles>  (472) 
O=Cc1cc(Br)c(F)cc1NC(=O)c1c(Cl)cncc1Br

>  <subsites>  (472) 
None

>  <rmsd(smina/fragmenstein)>  (472) 
1.393

>  <alias>  (472) 
None

>  <energy_score>  (472) 
-3.108158

>  <HIPPO Pose ID>  (472) 
65697

>  <distance_score>  (472) 
0.477198

>  <HIPPO Compound ID>  (472) 
103109

>  <gnina_score_min>  (472) 
5.213

>  <name>  (472) 
P65697

>  <exports>  (472) 
['/opt/xchem-fragalysis-2/maxwin/BulkDock/OUTPUTS/openbind_d68ev3c_c2_elabs_1LOTQJ3.sdf', '/opt/xchem-fragalysis-2/maxwin/BulkDock/OUTPUTS/openbind_d68ev3c_c2_elabs_1LSYEHW.sdf', '/opt/xchem-fragalysis-2/maxwin/BulkDock/OUTPUTS/openbind_d68ev3c_c2_elabs_1LSYI5W.sdf']

$$$$
P65699
     RDKit          3D

 21 22  0  0  0  0  0  0  0  0999 V2000
    1.9000   -2.9842   33.4405 O   0  0  0  0  0  0  0  0  0  0  0  0
    2.5558   -2.9876   34.4745 C   0  0  0  0  0  0  0  0  0  0  0  0
    1.9389   -3.3096   35.7681 C   0  0  0  0  0  0  0  0  0  0  0  0
    2.3925   -2.6052   36.8906 C   0  0  0  0  0  0  0  0  0  0  0  0
    1.8348   -2.8710   38.1403 C   0  0  0  0  0  0  0  0  0  0  0  0
    2.3690   -1.9751   39.5106 Cl  0  0  0  0  0  0  0  0  0  0  0  0
    0.8467   -3.8430   38.2670 C   0  0  0  0  0  0  0  0  0  0  0  0
    0.2661   -4.0757   39.4538 F   0  0  0  0  0  0  0  0  0  0  0  0
    0.4375   -4.5843   37.1613 C   0  0  0  0  0  0  0  0  0  0  0  0
    0.9795   -4.3183   35.8994 C   0  0  0  0  0  0  0  0  0  0  0  0
    0.5665   -5.0957   34.8215 N   0  0  0  0  0  0  0  0  0  0  0  0
    0.1373   -6.5743   34.7600 C   0  0  0  0  0  0  0  0  0  0  0  0
    0.1354   -7.3957   35.5880 O   0  0  0  0  0  0  0  0  0  0  0  0
   -0.4662   -6.9937   33.4506 C   0  0  0  0  0  0  0  0  0  0  0  0
    0.0204   -6.6167   32.1936 C   0  0  0  0  0  0  0  0  0  0  0  0
    1.3103   -5.5189   31.9065 Cl  0  0  0  0  0  0  0  0  0  0  0  0
   -0.5682   -7.1747   31.0606 C   0  0  0  0  0  0  0  0  0  0  0  0
   -1.5925   -8.0578   31.0780 N   0  0  0  0  0  0  0  0  0  0  0  0
   -2.0483   -8.4042   32.2951 C   0  0  0  0  0  0  0  0  0  0  0  0
   -1.5502   -7.8979   33.4836 C   0  0  0  0  0  0  0  0  0  0  0  0
   -2.5283   -8.4313   35.0158 Br  0  0  0  0  0  0  0  0  0  0  0  0
  1  2  2  0
  2  3  1  0
  3  4  2  0
  4  5  1  0
  5  6  1  0
  5  7  2  0
  7  8  1  0
  7  9  1  0
  9 10  2  0
 10 11  1  0
 11 12  1  0
 12 13  2  0
 12 14  1  0
 14 15  2  0
 15 16  1  0
 15 17  1  0
 17 18  2  0
 18 19  1  0
 19 20  2  0
 20 21  1  0
 10  3  1  0
 20 14  1  0
M  END
>  <ref_mols>  (473) 
7gov-a

>  <gnina_score>  (473) 
5.328

>  <smina_score_min>  (473) 
-5.413

>  <ref_pdb>  (473) 
7gov-a

>  <inspiration_score>  (473) 
None

>  <inchikey>  (473) 
JKQOICLUCTVQOV-UHFFFAOYSA-N

>  <tags>  (473) 
BulkDock Fragalysis export,openbind_d68ev3c_c2_elabs_scored,openbind_d68ev3c_c2_elabs_scored_4.5plus,openbind_d68ev3c_c2_elabs,openbind_d68ev3c_c2_elabs_scored_5plus,syndirella_product,openbind_d68ev3c_c2_elabs_scored_top80percent,syndirella_placed

>  <smiles>  (473) 
O=Cc1cc(Cl)c(F)cc1NC(=O)c1c(Cl)cncc1Br

>  <subsites>  (473) 
None

>  <rmsd(smina/fragmenstein)>  (473) 
1.286

>  <alias>  (473) 
None

>  <energy_score>  (473) 
-32.724695

>  <HIPPO Pose ID>  (473) 
65699

>  <distance_score>  (473) 
0.527606

>  <HIPPO Compound ID>  (473) 
103111

>  <gnina_score_min>  (473) 
5.198

>  <name>  (473) 
P65699

>  <exports>  (473) 
['/opt/xchem-fragalysis-2/maxwin/BulkDock/OUTPUTS/openbind_d68ev3c_c2_elabs_1LOTQJ3.sdf', '/opt/xchem-fragalysis-2/maxwin/BulkDock/OUTPUTS/openbind_d68ev3c_c2_elabs_1LSYEHW.sdf', '/opt/xchem-fragalysis-2/maxwin/BulkDock/OUTPUTS/openbind_d68ev3c_c2_elabs_1LSYI5W.sdf']

$$$$
P65703
     RDKit          3D

 21 22  0  0  0  0  0  0  0  0999 V2000
    4.0262   -3.2528   34.3696 C   0  0  0  0  0  0  0  0  0  0  0  0
    2.5716   -3.6327   34.4645 C   0  0  0  0  0  0  0  0  0  0  0  0
    1.9168   -3.9191   33.4614 O   0  0  0  0  0  0  0  0  0  0  0  0
    1.9201   -3.6400   35.8077 C   0  0  0  0  0  0  0  0  0  0  0  0
    2.3912   -2.8002   36.8244 C   0  0  0  0  0  0  0  0  0  0  0  0
    1.8086   -2.8594   38.0870 C   0  0  0  0  0  0  0  0  0  0  0  0
    2.2586   -2.0434   39.0509 F   0  0  0  0  0  0  0  0  0  0  0  0
    0.7682   -3.7418   38.3485 C   0  0  0  0  0  0  0  0  0  0  0  0
    0.2033   -3.7755   39.5631 F   0  0  0  0  0  0  0  0  0  0  0  0
    0.2957   -4.5872   37.3523 C   0  0  0  0  0  0  0  0  0  0  0  0
    0.8651   -4.5344   36.0768 C   0  0  0  0  0  0  0  0  0  0  0  0
    0.3901   -5.3758   35.0776 N   0  0  0  0  0  0  0  0  0  0  0  0
   -0.3657   -6.7188   35.1727 C   0  0  0  0  0  0  0  0  0  0  0  0
   -0.6404   -7.3670   36.1025 O   0  0  0  0  0  0  0  0  0  0  0  0
   -0.8072   -7.2465   33.8237 C   0  0  0  0  0  0  0  0  0  0  0  0
   -0.1382   -6.8942   32.6402 C   0  0  0  0  0  0  0  0  0  0  0  0
   -0.5914   -7.3881   31.4268 C   0  0  0  0  0  0  0  0  0  0  0  0
   -1.6387   -8.2240   31.3060 N   0  0  0  0  0  0  0  0  0  0  0  0
   -2.2376   -8.5932   32.4602 C   0  0  0  0  0  0  0  0  0  0  0  0
   -1.8872   -8.1437   33.7301 C   0  0  0  0  0  0  0  0  0  0  0  0
   -2.9546   -8.7047   35.0440 S   0  0  0  0  0  0  0  0  0  0  0  0
  1  2  1  0
  2  3  2  0
  2  4  1  0
  4  5  2  0
  5  6  1  0
  6  7  1  0
  6  8  2  0
  8  9  1  0
  8 10  1  0
 10 11  2  0
 11 12  1  0
 12 13  1  0
 13 14  2  0
 13 15  1  0
 15 16  2  0
 16 17  1  0
 17 18  2  0
 18 19  1  0
 19 20  2  0
 20 21  1  0
 11  4  1  0
 20 15  1  0
M  END
>  <ref_mols>  (474) 
7gov-a

>  <gnina_score>  (474) 
5.136

>  <smina_score_min>  (474) 
-5.332

>  <ref_pdb>  (474) 
7gov-a

>  <inspiration_score>  (474) 
None

>  <inchikey>  (474) 
XLPJPQLXJZFGMZ-UHFFFAOYSA-N

>  <tags>  (474) 
BulkDock Fragalysis export,openbind_d68ev3c_c2_elabs_scored,openbind_d68ev3c_c2_elabs_scored_4.5plus,openbind_d68ev3c_c2_elabs,openbind_d68ev3c_c2_elabs_scored_5plus,syndirella_product,openbind_d68ev3c_c2_elabs_scored_top80percent,syndirella_placed

>  <smiles>  (474) 
CC(=O)c1cc(F)c(F)cc1NC(=O)c1ccncc1S

>  <subsites>  (474) 
None

>  <rmsd(smina/fragmenstein)>  (474) 
1.103

>  <alias>  (474) 
None

>  <energy_score>  (474) 
-0.163638

>  <HIPPO Pose ID>  (474) 
65703

>  <distance_score>  (474) 
0.588893

>  <HIPPO Compound ID>  (474) 
103118

>  <gnina_score_min>  (474) 
5.091

>  <name>  (474) 
P65703

>  <exports>  (474) 
['/opt/xchem-fragalysis-2/maxwin/BulkDock/OUTPUTS/openbind_d68ev3c_c2_elabs_1LOTQJ3.sdf', '/opt/xchem-fragalysis-2/maxwin/BulkDock/OUTPUTS/openbind_d68ev3c_c2_elabs_1LSYEHW.sdf', '/opt/xchem-fragalysis-2/maxwin/BulkDock/OUTPUTS/openbind_d68ev3c_c2_elabs_1LSYI5W.sdf']

$$$$
P65706
     RDKit          3D

 21 22  0  0  0  0  0  0  0  0999 V2000
    2.0926   -1.8554   39.3157 C   0  0  0  0  0  0  0  0  0  0  0  0
    1.7114   -2.7868   38.1999 C   0  0  0  0  0  0  0  0  0  0  0  0
    0.6638   -3.6860   38.4032 C   0  0  0  0  0  0  0  0  0  0  0  0
    0.0135   -3.7030   39.5767 F   0  0  0  0  0  0  0  0  0  0  0  0
    0.2534   -4.5672   37.4149 C   0  0  0  0  0  0  0  0  0  0  0  0
    0.9055   -4.5825   36.1847 C   0  0  0  0  0  0  0  0  0  0  0  0
    0.4678   -5.4602   35.1922 N   0  0  0  0  0  0  0  0  0  0  0  0
   -0.4724   -6.6818   35.2771 C   0  0  0  0  0  0  0  0  0  0  0  0
   -0.9678   -7.1927   36.2030 O   0  0  0  0  0  0  0  0  0  0  0  0
   -0.8026   -7.2567   33.9234 C   0  0  0  0  0  0  0  0  0  0  0  0
   -1.7888   -8.2503   33.8878 C   0  0  0  0  0  0  0  0  0  0  0  0
   -2.2381   -8.7023   32.6625 C   0  0  0  0  0  0  0  0  0  0  0  0
   -1.8011   -8.2253   31.4813 N   0  0  0  0  0  0  0  0  0  0  0  0
   -0.8130   -7.3002   31.5302 C   0  0  0  0  0  0  0  0  0  0  0  0
   -0.3070   -6.5345   29.8721 Br  0  0  0  0  0  0  0  0  0  0  0  0
   -0.2457   -6.8380   32.7144 C   0  0  0  0  0  0  0  0  0  0  0  0
    0.8626   -6.0338   32.6914 O   0  0  0  0  0  0  0  0  0  0  0  0
    1.9879   -3.7090   35.9342 C   0  0  0  0  0  0  0  0  0  0  0  0
    2.7107   -3.7803   34.6101 C   0  0  0  0  0  0  0  0  0  0  0  0
    2.3639   -2.7955   36.9497 C   0  0  0  0  0  0  0  0  0  0  0  0
    3.7609   -1.5199   36.6422 Br  0  0  0  0  0  0  0  0  0  0  0  0
  1  2  1  0
  2  3  2  0
  3  4  1  0
  3  5  1  0
  5  6  2  0
  6  7  1  0
  7  8  1  0
  8  9  2  0
  8 10  1  0
 10 11  2  0
 11 12  1  0
 12 13  2  0
 13 14  1  0
 14 15  1  0
 14 16  2  0
 16 17  1  0
  6 18  1  0
 18 19  1  0
 18 20  2  0
 20 21  1  0
 20  2  1  0
 16 10  1  0
M  END
>  <ref_mols>  (475) 
7gov-a

>  <gnina_score>  (475) 
5.041

>  <smina_score_min>  (475) 
-6.115

>  <ref_pdb>  (475) 
7gov-a

>  <inspiration_score>  (475) 
None

>  <inchikey>  (475) 
UOZIFCAORGVXRC-UHFFFAOYSA-N

>  <tags>  (475) 
BulkDock Fragalysis export,openbind_d68ev3c_c2_elabs_scored,openbind_d68ev3c_c2_elabs_scored_4.5plus,openbind_d68ev3c_c2_elabs,openbind_d68ev3c_c2_elabs_scored_5plus,syndirella_product,openbind_d68ev3c_c2_elabs_scored_top80percent,syndirella_placed

>  <smiles>  (475) 
Cc1c(F)cc(NC(=O)c2ccnc(Br)c2O)c(C)c1Br

>  <subsites>  (475) 
None

>  <rmsd(smina/fragmenstein)>  (475) 
1.096

>  <alias>  (475) 
None

>  <energy_score>  (475) 
-25.367088

>  <HIPPO Pose ID>  (475) 
65706

>  <distance_score>  (475) 
0.660863

>  <HIPPO Compound ID>  (475) 
103122

>  <gnina_score_min>  (475) 
5.025

>  <name>  (475) 
P65706

>  <exports>  (475) 
['/opt/xchem-fragalysis-2/maxwin/BulkDock/OUTPUTS/openbind_d68ev3c_c2_elabs_1LOTQJ3.sdf', '/opt/xchem-fragalysis-2/maxwin/BulkDock/OUTPUTS/openbind_d68ev3c_c2_elabs_1LSYEHW.sdf', '/opt/xchem-fragalysis-2/maxwin/BulkDock/OUTPUTS/openbind_d68ev3c_c2_elabs_1LSYI5W.sdf']

$$$$
P65711
     RDKit          3D

 21 22  0  0  0  0  0  0  0  0999 V2000
    2.5477   -2.6475   33.6362 C   0  0  0  0  0  0  0  0  0  0  0  0
    3.2491   -3.3403   34.8078 C   0  0  0  0  0  0  0  0  0  0  0  0
    3.8812   -4.6748   34.4013 C   0  0  0  0  0  0  0  0  0  0  0  0
    2.3758   -3.4059   36.0564 C   0  0  0  0  0  0  0  0  0  0  0  0
    2.7705   -2.6174   37.1582 C   0  0  0  0  0  0  0  0  0  0  0  0
    2.0520   -2.6235   38.3552 C   0  0  0  0  0  0  0  0  0  0  0  0
    0.9218   -3.4135   38.4656 C   0  0  0  0  0  0  0  0  0  0  0  0
    0.2255   -3.4252   39.6100 F   0  0  0  0  0  0  0  0  0  0  0  0
    0.4956   -4.1887   37.4017 C   0  0  0  0  0  0  0  0  0  0  0  0
    1.2190   -4.1938   36.2027 C   0  0  0  0  0  0  0  0  0  0  0  0
    0.7485   -4.9655   35.1501 N   0  0  0  0  0  0  0  0  0  0  0  0
   -0.3481   -6.0439   35.1132 C   0  0  0  0  0  0  0  0  0  0  0  0
   -1.0846   -6.4026   35.9441 O   0  0  0  0  0  0  0  0  0  0  0  0
   -0.5271   -6.6306   33.7503 C   0  0  0  0  0  0  0  0  0  0  0  0
   -0.0771   -6.0640   32.5556 C   0  0  0  0  0  0  0  0  0  0  0  0
   -0.4790   -6.6389   31.3618 C   0  0  0  0  0  0  0  0  0  0  0  0
   -0.0943   -6.0563   30.2178 F   0  0  0  0  0  0  0  0  0  0  0  0
   -1.3221   -7.6772   31.2717 N   0  0  0  0  0  0  0  0  0  0  0  0
   -1.7079   -8.1889   32.4491 C   0  0  0  0  0  0  0  0  0  0  0  0
   -2.8906   -9.3751   32.3241 Cl  0  0  0  0  0  0  0  0  0  0  0  0
   -1.3356   -7.7539   33.6927 C   0  0  0  0  0  0  0  0  0  0  0  0
  1  2  1  0
  2  3  1  0
  2  4  1  0
  4  5  2  0
  5  6  1  0
  6  7  2  0
  7  8  1  0
  7  9  1  0
  9 10  2  0
 10 11  1  0
 11 12  1  0
 12 13  2  0
 12 14  1  0
 14 15  2  0
 15 16  1  0
 16 17  1  0
 16 18  2  0
 18 19  1  0
 19 20  1  0
 19 21  2  0
 10  4  1  0
 21 14  1  0
M  END
>  <ref_mols>  (476) 
7gov-a

>  <gnina_score>  (476) 
4.967

>  <smina_score_min>  (476) 
-5.601

>  <ref_pdb>  (476) 
7gov-a

>  <inspiration_score>  (476) 
None

>  <inchikey>  (476) 
NKABUHTTXFEHJM-UHFFFAOYSA-N

>  <tags>  (476) 
BulkDock Fragalysis export,openbind_d68ev3c_c2_elabs_scored,openbind_d68ev3c_c2_elabs_scored_4.5plus,openbind_d68ev3c_c2_elabs,openbind_d68ev3c_c2_elabs_scored_5plus,syndirella_product,openbind_d68ev3c_c2_elabs_scored_top80percent,syndirella_placed

>  <smiles>  (476) 
CC(C)c1ccc(F)cc1NC(=O)c1cc(F)nc(Cl)c1

>  <subsites>  (476) 
None

>  <rmsd(smina/fragmenstein)>  (476) 
1.212

>  <alias>  (476) 
None

>  <energy_score>  (476) 
-20.667141

>  <HIPPO Pose ID>  (476) 
65711

>  <distance_score>  (476) 
0.870461

>  <HIPPO Compound ID>  (476) 
103132

>  <gnina_score_min>  (476) 
5.032

>  <name>  (476) 
P65711

>  <exports>  (476) 
['/opt/xchem-fragalysis-2/maxwin/BulkDock/OUTPUTS/openbind_d68ev3c_c2_elabs_1LOTQJ3.sdf', '/opt/xchem-fragalysis-2/maxwin/BulkDock/OUTPUTS/openbind_d68ev3c_c2_elabs_1LSYEHW.sdf', '/opt/xchem-fragalysis-2/maxwin/BulkDock/OUTPUTS/openbind_d68ev3c_c2_elabs_1LSYI5W.sdf']

$$$$
P65713
     RDKit          3D

 21 23  0  0  0  0  0  0  0  0999 V2000
   -1.1747   -6.3233   35.9420 O   0  0  0  0  0  0  0  0  0  0  0  0
   -0.3955   -5.9831   35.1428 C   0  0  0  0  0  0  0  0  0  0  0  0
    0.7232   -4.9301   35.2254 N   0  0  0  0  0  0  0  0  0  0  0  0
    1.1668   -4.1665   36.2976 C   0  0  0  0  0  0  0  0  0  0  0  0
    0.4345   -4.1624   37.4875 C   0  0  0  0  0  0  0  0  0  0  0  0
    0.8749   -3.4001   38.5539 C   0  0  0  0  0  0  0  0  0  0  0  0
    0.1804   -3.4086   39.6989 F   0  0  0  0  0  0  0  0  0  0  0  0
    2.0231   -2.6320   38.4510 C   0  0  0  0  0  0  0  0  0  0  0  0
    2.7452   -2.6302   37.2552 C   0  0  0  0  0  0  0  0  0  0  0  0
    2.3353   -3.3897   36.1435 C   0  0  0  0  0  0  0  0  0  0  0  0
    3.1702   -3.4056   34.8750 C   0  0  0  0  0  0  0  0  0  0  0  0
    3.7063   -2.1162   34.2924 C   0  0  0  0  0  0  0  0  0  0  0  0
    2.6096   -2.8485   33.5847 C   0  0  0  0  0  0  0  0  0  0  0  0
   -0.5295   -6.5665   33.7768 C   0  0  0  0  0  0  0  0  0  0  0  0
   -0.0994   -5.9486   32.6009 C   0  0  0  0  0  0  0  0  0  0  0  0
   -0.4577   -6.5199   31.3925 C   0  0  0  0  0  0  0  0  0  0  0  0
   -0.0916   -5.8959   30.2643 F   0  0  0  0  0  0  0  0  0  0  0  0
   -1.2403   -7.6021   31.2728 N   0  0  0  0  0  0  0  0  0  0  0  0
   -1.6070   -8.1624   32.4341 C   0  0  0  0  0  0  0  0  0  0  0  0
   -2.6688   -9.4528   32.2601 Cl  0  0  0  0  0  0  0  0  0  0  0  0
   -1.2788   -7.7286   33.6912 C   0  0  0  0  0  0  0  0  0  0  0  0
  1  2  2  0
  2  3  1  0
  3  4  1  0
  4  5  2  0
  5  6  1  0
  6  7  1  0
  6  8  2  0
  8  9  1  0
  9 10  2  0
 10 11  1  0
 11 12  1  0
 12 13  1  0
  2 14  1  0
 14 15  2  0
 15 16  1  0
 16 17  1  0
 16 18  2  0
 18 19  1  0
 19 20  1  0
 19 21  2  0
 10  4  1  0
 13 11  1  0
 21 14  1  0
M  END
>  <ref_mols>  (477) 
7gov-a

>  <gnina_score>  (477) 
4.997

>  <smina_score_min>  (477) 
-5.537

>  <ref_pdb>  (477) 
7gov-a

>  <inspiration_score>  (477) 
None

>  <inchikey>  (477) 
YDGXRBHYXZELLY-UHFFFAOYSA-N

>  <tags>  (477) 
BulkDock Fragalysis export,openbind_d68ev3c_c2_elabs_scored,openbind_d68ev3c_c2_elabs_scored_4.5plus,openbind_d68ev3c_c2_elabs,openbind_d68ev3c_c2_elabs_scored_5plus,syndirella_product,openbind_d68ev3c_c2_elabs_scored_top80percent,syndirella_placed

>  <smiles>  (477) 
O=C(Nc1cc(F)ccc1C1CC1)c1cc(F)nc(Cl)c1

>  <subsites>  (477) 
None

>  <rmsd(smina/fragmenstein)>  (477) 
1.247

>  <alias>  (477) 
None

>  <energy_score>  (477) 
-21.17385

>  <HIPPO Pose ID>  (477) 
65713

>  <distance_score>  (477) 
0.923836

>  <HIPPO Compound ID>  (477) 
103137

>  <gnina_score_min>  (477) 
5.014

>  <name>  (477) 
P65713

>  <exports>  (477) 
['/opt/xchem-fragalysis-2/maxwin/BulkDock/OUTPUTS/openbind_d68ev3c_c2_elabs_1LOTQJ3.sdf', '/opt/xchem-fragalysis-2/maxwin/BulkDock/OUTPUTS/openbind_d68ev3c_c2_elabs_1LSYEHW.sdf', '/opt/xchem-fragalysis-2/maxwin/BulkDock/OUTPUTS/openbind_d68ev3c_c2_elabs_1LSYI5W.sdf']

$$$$
P65717
     RDKit          3D

 21 22  0  0  0  0  0  0  0  0999 V2000
    2.0803   -1.8209   39.2921 C   0  0  0  0  0  0  0  0  0  0  0  0
    1.7420   -2.7786   38.1848 C   0  0  0  0  0  0  0  0  0  0  0  0
    0.6384   -3.6181   38.3353 C   0  0  0  0  0  0  0  0  0  0  0  0
   -0.0961   -3.5645   39.4567 F   0  0  0  0  0  0  0  0  0  0  0  0
    0.2578   -4.5121   37.3456 C   0  0  0  0  0  0  0  0  0  0  0  0
    1.0073   -4.6160   36.1757 C   0  0  0  0  0  0  0  0  0  0  0  0
    0.6020   -5.5034   35.1748 N   0  0  0  0  0  0  0  0  0  0  0  0
   -0.6336   -6.4297   35.0937 C   0  0  0  0  0  0  0  0  0  0  0  0
   -1.4650   -6.6536   35.8830 O   0  0  0  0  0  0  0  0  0  0  0  0
   -0.8114   -7.0429   33.7434 C   0  0  0  0  0  0  0  0  0  0  0  0
   -1.5945   -8.1935   33.6663 C   0  0  0  0  0  0  0  0  0  0  0  0
   -1.9209   -8.6608   32.4143 C   0  0  0  0  0  0  0  0  0  0  0  0
   -2.7394   -9.7099   32.3153 F   0  0  0  0  0  0  0  0  0  0  0  0
   -1.5180   -8.1089   31.2563 N   0  0  0  0  0  0  0  0  0  0  0  0
   -0.7222   -7.0325   31.3715 C   0  0  0  0  0  0  0  0  0  0  0  0
   -0.2552   -6.3246   29.8846 Cl  0  0  0  0  0  0  0  0  0  0  0  0
   -0.3631   -6.4434   32.5667 C   0  0  0  0  0  0  0  0  0  0  0  0
    2.1549   -3.8123   35.9876 C   0  0  0  0  0  0  0  0  0  0  0  0
    2.9794   -3.9548   34.7298 C   0  0  0  0  0  0  0  0  0  0  0  0
    2.4883   -2.8689   36.9924 C   0  0  0  0  0  0  0  0  0  0  0  0
    3.9577   -1.6629   36.7428 Br  0  0  0  0  0  0  0  0  0  0  0  0
  1  2  1  0
  2  3  2  0
  3  4  1  0
  3  5  1  0
  5  6  2  0
  6  7  1  0
  7  8  1  0
  8  9  2  0
  8 10  1  0
 10 11  2  0
 11 12  1  0
 12 13  1  0
 12 14  2  0
 14 15  1  0
 15 16  1  0
 15 17  2  0
  6 18  1  0
 18 19  1  0
 18 20  2  0
 20 21  1  0
 20  2  1  0
 17 10  1  0
M  END
>  <ref_mols>  (478) 
7gov-a

>  <gnina_score>  (478) 
5.172

>  <smina_score_min>  (478) 
-6.145

>  <ref_pdb>  (478) 
7gov-a

>  <inspiration_score>  (478) 
None

>  <inchikey>  (478) 
VSVWCBQFQGZAIO-UHFFFAOYSA-N

>  <tags>  (478) 
BulkDock Fragalysis export,openbind_d68ev3c_c2_elabs_scored,openbind_d68ev3c_c2_elabs_scored_4.5plus,openbind_d68ev3c_c2_elabs,openbind_d68ev3c_c2_elabs_scored_5plus,syndirella_product,openbind_d68ev3c_c2_elabs_scored_top80percent,syndirella_placed

>  <smiles>  (478) 
Cc1c(F)cc(NC(=O)c2cc(F)nc(Cl)c2)c(C)c1Br

>  <subsites>  (478) 
None

>  <rmsd(smina/fragmenstein)>  (478) 
1.04

>  <alias>  (478) 
None

>  <energy_score>  (478) 
-21.854747

>  <HIPPO Pose ID>  (478) 
65717

>  <distance_score>  (478) 
0.757011

>  <HIPPO Compound ID>  (478) 
103145

>  <gnina_score_min>  (478) 
5.096

>  <name>  (478) 
P65717

>  <exports>  (478) 
['/opt/xchem-fragalysis-2/maxwin/BulkDock/OUTPUTS/openbind_d68ev3c_c2_elabs_1LOTQJ3.sdf', '/opt/xchem-fragalysis-2/maxwin/BulkDock/OUTPUTS/openbind_d68ev3c_c2_elabs_1LSYEHW.sdf', '/opt/xchem-fragalysis-2/maxwin/BulkDock/OUTPUTS/openbind_d68ev3c_c2_elabs_1LSYI5W.sdf']

$$$$
P65720
     RDKit          3D

 21 22  0  0  0  0  0  0  0  0999 V2000
   -1.4864   -6.7210   35.9295 O   0  0  0  0  0  0  0  0  0  0  0  0
   -0.6862   -6.4585   35.1218 C   0  0  0  0  0  0  0  0  0  0  0  0
    0.5233   -5.5045   35.1863 N   0  0  0  0  0  0  0  0  0  0  0  0
    0.9327   -4.6346   36.1857 C   0  0  0  0  0  0  0  0  0  0  0  0
    0.1782   -4.4681   37.3485 C   0  0  0  0  0  0  0  0  0  0  0  0
    0.6105   -3.5769   38.3225 C   0  0  0  0  0  0  0  0  0  0  0  0
   -0.0975   -3.4414   39.4513 F   0  0  0  0  0  0  0  0  0  0  0  0
    1.7615   -2.8266   38.1482 C   0  0  0  0  0  0  0  0  0  0  0  0
    2.4991   -2.9930   36.9831 C   0  0  0  0  0  0  0  0  0  0  0  0
    3.6194   -2.2700   36.8273 F   0  0  0  0  0  0  0  0  0  0  0  0
    2.1153   -3.8986   35.9834 C   0  0  0  0  0  0  0  0  0  0  0  0
    3.0584   -4.0743   34.8154 C   0  0  0  0  0  0  0  0  0  0  0  0
    2.5222   -4.8722   33.7548 O   0  0  0  0  0  0  0  0  0  0  0  0
   -0.8620   -7.0564   33.7642 C   0  0  0  0  0  0  0  0  0  0  0  0
   -1.6286   -8.2150   33.6691 C   0  0  0  0  0  0  0  0  0  0  0  0
   -1.9318   -8.6742   32.4084 C   0  0  0  0  0  0  0  0  0  0  0  0
   -2.7334   -9.7341   32.2891 F   0  0  0  0  0  0  0  0  0  0  0  0
   -1.5198   -8.1090   31.2595 N   0  0  0  0  0  0  0  0  0  0  0  0
   -0.7401   -7.0226   31.3935 C   0  0  0  0  0  0  0  0  0  0  0  0
   -0.2487   -6.3059   29.9188 Cl  0  0  0  0  0  0  0  0  0  0  0  0
   -0.4091   -6.4388   32.5978 C   0  0  0  0  0  0  0  0  0  0  0  0
  1  2  2  0
  2  3  1  0
  3  4  1  0
  4  5  2  0
  5  6  1  0
  6  7  1  0
  6  8  2  0
  8  9  1  0
  9 10  1  0
  9 11  2  0
 11 12  1  0
 12 13  1  0
  2 14  1  0
 14 15  2  0
 15 16  1  0
 16 17  1  0
 16 18  2  0
 18 19  1  0
 19 20  1  0
 19 21  2  0
 11  4  1  0
 21 14  1  0
M  END
>  <ref_mols>  (479) 
7gov-a

>  <gnina_score>  (479) 
4.936

>  <smina_score_min>  (479) 
-6.316

>  <ref_pdb>  (479) 
7gov-a

>  <inspiration_score>  (479) 
None

>  <inchikey>  (479) 
GPUWEMNRQCPTPB-UHFFFAOYSA-N

>  <tags>  (479) 
BulkDock Fragalysis export,openbind_d68ev3c_c2_elabs_scored,openbind_d68ev3c_c2_elabs_scored_4.5plus,openbind_d68ev3c_c2_elabs,openbind_d68ev3c_c2_elabs_scored_5plus,syndirella_product,openbind_d68ev3c_c2_elabs_scored_top80percent,syndirella_placed

>  <smiles>  (479) 
O=C(Nc1cc(F)cc(F)c1CO)c1cc(F)nc(Cl)c1

>  <subsites>  (479) 
None

>  <rmsd(smina/fragmenstein)>  (479) 
0.986

>  <alias>  (479) 
None

>  <energy_score>  (479) 
-25.997652

>  <HIPPO Pose ID>  (479) 
65720

>  <distance_score>  (479) 
0.763118

>  <HIPPO Compound ID>  (479) 
103150

>  <gnina_score_min>  (479) 
5.025

>  <name>  (479) 
P65720

>  <exports>  (479) 
['/opt/xchem-fragalysis-2/maxwin/BulkDock/OUTPUTS/openbind_d68ev3c_c2_elabs_1LOTQJ3.sdf', '/opt/xchem-fragalysis-2/maxwin/BulkDock/OUTPUTS/openbind_d68ev3c_c2_elabs_1LSYEHW.sdf', '/opt/xchem-fragalysis-2/maxwin/BulkDock/OUTPUTS/openbind_d68ev3c_c2_elabs_1LSYI5W.sdf']

$$$$
P65722
     RDKit          3D

 21 22  0  0  0  0  0  0  0  0999 V2000
    4.0915   -4.5948   34.6169 C   0  0  0  0  0  0  0  0  0  0  0  0
    3.1639   -3.3980   34.7664 C   0  0  0  0  0  0  0  0  0  0  0  0
    2.3714   -3.4233   36.0544 C   0  0  0  0  0  0  0  0  0  0  0  0
    2.8271   -2.6650   37.1465 C   0  0  0  0  0  0  0  0  0  0  0  0
    2.1371   -2.6810   38.3613 C   0  0  0  0  0  0  0  0  0  0  0  0
    2.7960   -1.6689   39.8170 Br  0  0  0  0  0  0  0  0  0  0  0  0
    0.9797   -3.4381   38.4930 C   0  0  0  0  0  0  0  0  0  0  0  0
    0.2917   -3.4595   39.6444 F   0  0  0  0  0  0  0  0  0  0  0  0
    0.5100   -4.1907   37.4282 C   0  0  0  0  0  0  0  0  0  0  0  0
    1.2115   -4.1991   36.2199 C   0  0  0  0  0  0  0  0  0  0  0  0
    0.7413   -4.9643   35.1632 N   0  0  0  0  0  0  0  0  0  0  0  0
   -0.3881   -6.0059   35.1089 C   0  0  0  0  0  0  0  0  0  0  0  0
   -1.1553   -6.3328   35.9244 O   0  0  0  0  0  0  0  0  0  0  0  0
   -0.5463   -6.5928   33.7472 C   0  0  0  0  0  0  0  0  0  0  0  0
   -0.1118   -5.9952   32.5616 C   0  0  0  0  0  0  0  0  0  0  0  0
   -0.4843   -6.5745   31.3615 C   0  0  0  0  0  0  0  0  0  0  0  0
   -0.1133   -5.9699   30.2245 F   0  0  0  0  0  0  0  0  0  0  0  0
   -1.2867   -7.6433   31.2591 N   0  0  0  0  0  0  0  0  0  0  0  0
   -1.6592   -8.1807   32.4296 C   0  0  0  0  0  0  0  0  0  0  0  0
   -2.7693   -9.4312   32.2816 Cl  0  0  0  0  0  0  0  0  0  0  0  0
   -1.3146   -7.7420   33.6796 C   0  0  0  0  0  0  0  0  0  0  0  0
  1  2  1  0
  2  3  1  0
  3  4  2  0
  4  5  1  0
  5  6  1  0
  5  7  2  0
  7  8  1  0
  7  9  1  0
  9 10  2  0
 10 11  1  0
 11 12  1  0
 12 13  2  0
 12 14  1  0
 14 15  2  0
 15 16  1  0
 16 17  1  0
 16 18  2  0
 18 19  1  0
 19 20  1  0
 19 21  2  0
 10  3  1  0
 21 14  1  0
M  END
>  <ref_mols>  (480) 
7gov-a

>  <gnina_score>  (480) 
5.023

>  <smina_score_min>  (480) 
-5.494

>  <ref_pdb>  (480) 
7gov-a

>  <inspiration_score>  (480) 
None

>  <inchikey>  (480) 
RVAWTASHQSMGIS-UHFFFAOYSA-N

>  <tags>  (480) 
BulkDock Fragalysis export,openbind_d68ev3c_c2_elabs_scored,openbind_d68ev3c_c2_elabs_scored_4.5plus,openbind_d68ev3c_c2_elabs,openbind_d68ev3c_c2_elabs_scored_5plus,syndirella_product,openbind_d68ev3c_c2_elabs_scored_top80percent,syndirella_placed

>  <smiles>  (480) 
CCc1cc(Br)c(F)cc1NC(=O)c1cc(F)nc(Cl)c1

>  <subsites>  (480) 
None

>  <rmsd(smina/fragmenstein)>  (480) 
1.126

>  <alias>  (480) 
None

>  <energy_score>  (480) 
-19.558679

>  <HIPPO Pose ID>  (480) 
65722

>  <distance_score>  (480) 
0.894144

>  <HIPPO Compound ID>  (480) 
103154

>  <gnina_score_min>  (480) 
5.043

>  <name>  (480) 
P65722

>  <exports>  (480) 
['/opt/xchem-fragalysis-2/maxwin/BulkDock/OUTPUTS/openbind_d68ev3c_c2_elabs_1LOTQJ3.sdf', '/opt/xchem-fragalysis-2/maxwin/BulkDock/OUTPUTS/openbind_d68ev3c_c2_elabs_1LSYEHW.sdf', '/opt/xchem-fragalysis-2/maxwin/BulkDock/OUTPUTS/openbind_d68ev3c_c2_elabs_1LSYI5W.sdf']

$$$$
P65724
     RDKit          3D

 21 22  0  0  0  0  0  0  0  0999 V2000
    3.7492   -3.4386   33.8452 C   0  0  0  0  0  0  0  0  0  0  0  0
    3.1248   -3.4420   34.8712 C   0  0  0  0  0  0  0  0  0  0  0  0
    2.3821   -3.4427   36.1009 C   0  0  0  0  0  0  0  0  0  0  0  0
    2.8340   -2.6635   37.1680 C   0  0  0  0  0  0  0  0  0  0  0  0
    2.1308   -2.6686   38.3697 C   0  0  0  0  0  0  0  0  0  0  0  0
    2.5770   -1.9238   39.3915 F   0  0  0  0  0  0  0  0  0  0  0  0
    0.9754   -3.4268   38.5120 C   0  0  0  0  0  0  0  0  0  0  0  0
    0.2946   -3.4196   39.6663 F   0  0  0  0  0  0  0  0  0  0  0  0
    0.5072   -4.1952   37.4577 C   0  0  0  0  0  0  0  0  0  0  0  0
    1.2174   -4.2134   36.2545 C   0  0  0  0  0  0  0  0  0  0  0  0
    0.7516   -4.9734   35.1895 N   0  0  0  0  0  0  0  0  0  0  0  0
   -0.3807   -6.0101   35.1223 C   0  0  0  0  0  0  0  0  0  0  0  0
   -1.1551   -6.3375   35.9305 O   0  0  0  0  0  0  0  0  0  0  0  0
   -0.5337   -6.5924   33.7581 C   0  0  0  0  0  0  0  0  0  0  0  0
   -0.0980   -5.9882   32.5766 C   0  0  0  0  0  0  0  0  0  0  0  0
   -0.4703   -6.5609   31.3731 C   0  0  0  0  0  0  0  0  0  0  0  0
   -0.0993   -5.9500   30.2394 F   0  0  0  0  0  0  0  0  0  0  0  0
   -1.2720   -7.6301   31.2640 N   0  0  0  0  0  0  0  0  0  0  0  0
   -1.6440   -8.1754   32.4308 C   0  0  0  0  0  0  0  0  0  0  0  0
   -2.7447   -9.4339   32.2748 Cl  0  0  0  0  0  0  0  0  0  0  0  0
   -1.3016   -7.7419   33.6834 C   0  0  0  0  0  0  0  0  0  0  0  0
  1  2  3  0
  2  3  1  0
  3  4  2  0
  4  5  1  0
  5  6  1  0
  5  7  2  0
  7  8  1  0
  7  9  1  0
  9 10  2  0
 10 11  1  0
 11 12  1  0
 12 13  2  0
 12 14  1  0
 14 15  2  0
 15 16  1  0
 16 17  1  0
 16 18  2  0
 18 19  1  0
 19 20  1  0
 19 21  2  0
 10  3  1  0
 21 14  1  0
M  END
>  <ref_mols>  (481) 
7gov-a

>  <gnina_score>  (481) 
4.988

>  <smina_score_min>  (481) 
-5.539

>  <ref_pdb>  (481) 
7gov-a

>  <inspiration_score>  (481) 
None

>  <inchikey>  (481) 
YCDJJEYAJRRSDT-UHFFFAOYSA-N

>  <tags>  (481) 
BulkDock Fragalysis export,openbind_d68ev3c_c2_elabs_scored,openbind_d68ev3c_c2_elabs_scored_4.5plus,openbind_d68ev3c_c2_elabs,openbind_d68ev3c_c2_elabs_scored_5plus,syndirella_product,openbind_d68ev3c_c2_elabs_scored_top80percent,syndirella_placed

>  <smiles>  (481) 
C#Cc1cc(F)c(F)cc1NC(=O)c1cc(F)nc(Cl)c1

>  <subsites>  (481) 
None

>  <rmsd(smina/fragmenstein)>  (481) 
1.32

>  <alias>  (481) 
None

>  <energy_score>  (481) 
-13.615057

>  <HIPPO Pose ID>  (481) 
65724

>  <distance_score>  (481) 
0.901341

>  <HIPPO Compound ID>  (481) 
103156

>  <gnina_score_min>  (481) 
5.026

>  <name>  (481) 
P65724

>  <exports>  (481) 
['/opt/xchem-fragalysis-2/maxwin/BulkDock/OUTPUTS/openbind_d68ev3c_c2_elabs_1LOTQJ3.sdf', '/opt/xchem-fragalysis-2/maxwin/BulkDock/OUTPUTS/openbind_d68ev3c_c2_elabs_1LSYEHW.sdf', '/opt/xchem-fragalysis-2/maxwin/BulkDock/OUTPUTS/openbind_d68ev3c_c2_elabs_1LSYI5W.sdf']

$$$$
P65730
     RDKit          3D

 21 22  0  0  0  0  0  0  0  0999 V2000
    3.4235   -3.8932   33.7042 N   0  0  0  0  0  0  0  0  0  0  0  0
    2.8843   -3.8426   34.7309 C   0  0  0  0  0  0  0  0  0  0  0  0
    2.1478   -3.7857   35.9617 C   0  0  0  0  0  0  0  0  0  0  0  0
    2.5630   -2.8685   36.9419 C   0  0  0  0  0  0  0  0  0  0  0  0
    1.8741   -2.7705   38.1486 C   0  0  0  0  0  0  0  0  0  0  0  0
    0.7705   -3.5830   38.3672 C   0  0  0  0  0  0  0  0  0  0  0  0
    0.1143   -3.4908   39.5323 F   0  0  0  0  0  0  0  0  0  0  0  0
    0.3409   -4.4871   37.3989 C   0  0  0  0  0  0  0  0  0  0  0  0
   -0.7291   -5.2353   37.6908 F   0  0  0  0  0  0  0  0  0  0  0  0
    1.0232   -4.6111   36.1805 C   0  0  0  0  0  0  0  0  0  0  0  0
    0.6213   -5.4968   35.1613 N   0  0  0  0  0  0  0  0  0  0  0  0
   -0.5692   -6.4821   35.0984 C   0  0  0  0  0  0  0  0  0  0  0  0
   -1.3572   -6.7696   35.9104 O   0  0  0  0  0  0  0  0  0  0  0  0
   -0.7683   -7.0702   33.7389 C   0  0  0  0  0  0  0  0  0  0  0  0
   -1.5733   -8.2063   33.6540 C   0  0  0  0  0  0  0  0  0  0  0  0
   -1.9212   -8.6528   32.4009 C   0  0  0  0  0  0  0  0  0  0  0  0
   -2.7578   -9.6878   32.2989 F   0  0  0  0  0  0  0  0  0  0  0  0
   -1.5217   -8.0923   31.2462 N   0  0  0  0  0  0  0  0  0  0  0  0
   -0.7043   -7.0318   31.3668 C   0  0  0  0  0  0  0  0  0  0  0  0
   -0.2468   -6.3105   29.8832 Cl  0  0  0  0  0  0  0  0  0  0  0  0
   -0.3187   -6.4657   32.5655 C   0  0  0  0  0  0  0  0  0  0  0  0
  1  2  3  0
  2  3  1  0
  3  4  2  0
  4  5  1  0
  5  6  2  0
  6  7  1  0
  6  8  1  0
  8  9  1  0
  8 10  2  0
 10 11  1  0
 11 12  1  0
 12 13  2  0
 12 14  1  0
 14 15  2  0
 15 16  1  0
 16 17  1  0
 16 18  2  0
 18 19  1  0
 19 20  1  0
 19 21  2  0
 10  3  1  0
 21 14  1  0
M  END
>  <ref_mols>  (482) 
7gov-a

>  <gnina_score>  (482) 
5.158

>  <smina_score_min>  (482) 
-5.705

>  <ref_pdb>  (482) 
7gov-a

>  <inspiration_score>  (482) 
None

>  <inchikey>  (482) 
BCKIJDFTCUPENC-UHFFFAOYSA-N

>  <tags>  (482) 
BulkDock Fragalysis export,openbind_d68ev3c_c2_elabs_scored,openbind_d68ev3c_c2_elabs_scored_4.5plus,openbind_d68ev3c_c2_elabs,openbind_d68ev3c_c2_elabs_scored_5plus,syndirella_product,openbind_d68ev3c_c2_elabs_scored_top80percent,syndirella_placed

>  <smiles>  (482) 
N#Cc1ccc(F)c(F)c1NC(=O)c1cc(F)nc(Cl)c1

>  <subsites>  (482) 
None

>  <rmsd(smina/fragmenstein)>  (482) 
0.795

>  <alias>  (482) 
None

>  <energy_score>  (482) 
-5.663816

>  <HIPPO Pose ID>  (482) 
65730

>  <distance_score>  (482) 
0.730184

>  <HIPPO Compound ID>  (482) 
103162

>  <gnina_score_min>  (482) 
5.064

>  <name>  (482) 
P65730

>  <exports>  (482) 
['/opt/xchem-fragalysis-2/maxwin/BulkDock/OUTPUTS/openbind_d68ev3c_c2_elabs_1LOTQJ3.sdf', '/opt/xchem-fragalysis-2/maxwin/BulkDock/OUTPUTS/openbind_d68ev3c_c2_elabs_1LSYEHW.sdf', '/opt/xchem-fragalysis-2/maxwin/BulkDock/OUTPUTS/openbind_d68ev3c_c2_elabs_1LSYI5W.sdf']

$$$$
P65736
     RDKit          3D

 21 22  0  0  0  0  0  0  0  0999 V2000
   -1.6260   -6.5696   35.9129 O   0  0  0  0  0  0  0  0  0  0  0  0
   -0.7464   -6.4174   35.1614 C   0  0  0  0  0  0  0  0  0  0  0  0
    0.5253   -5.5433   35.2704 N   0  0  0  0  0  0  0  0  0  0  0  0
    0.9180   -4.6328   36.2529 C   0  0  0  0  0  0  0  0  0  0  0  0
    0.1153   -4.4387   37.3805 C   0  0  0  0  0  0  0  0  0  0  0  0
    0.5152   -3.5562   38.3780 C   0  0  0  0  0  0  0  0  0  0  0  0
   -0.2495   -3.4339   39.4724 F   0  0  0  0  0  0  0  0  0  0  0  0
    1.6899   -2.8272   38.2507 C   0  0  0  0  0  0  0  0  0  0  0  0
    2.2405   -1.6348   39.6105 Br  0  0  0  0  0  0  0  0  0  0  0  0
    2.4826   -2.9887   37.1173 C   0  0  0  0  0  0  0  0  0  0  0  0
    2.1148   -3.9039   36.1119 C   0  0  0  0  0  0  0  0  0  0  0  0
    3.0798   -4.1407   34.9826 C   0  0  0  0  0  0  0  0  0  0  0  0
    3.7620   -5.3663   35.2030 O   0  0  0  0  0  0  0  0  0  0  0  0
   -0.8811   -7.0780   33.8344 C   0  0  0  0  0  0  0  0  0  0  0  0
   -0.4123   -6.4783   32.6644 C   0  0  0  0  0  0  0  0  0  0  0  0
   -0.7443   -7.0586   31.4507 C   0  0  0  0  0  0  0  0  0  0  0  0
   -0.1734   -6.1805   29.8768 Br  0  0  0  0  0  0  0  0  0  0  0  0
   -1.5227   -8.1604   31.3265 N   0  0  0  0  0  0  0  0  0  0  0  0
   -1.9449   -8.7259   32.4807 C   0  0  0  0  0  0  0  0  0  0  0  0
   -1.6591   -8.2266   33.7345 C   0  0  0  0  0  0  0  0  0  0  0  0
   -2.1806   -8.8344   34.8046 F   0  0  0  0  0  0  0  0  0  0  0  0
  1  2  2  0
  2  3  1  0
  3  4  1  0
  4  5  2  0
  5  6  1  0
  6  7  1  0
  6  8  2  0
  8  9  1  0
  8 10  1  0
 10 11  2  0
 11 12  1  0
 12 13  1  0
  2 14  1  0
 14 15  2  0
 15 16  1  0
 16 17  1  0
 16 18  2  0
 18 19  1  0
 19 20  2  0
 20 21  1  0
 11  4  1  0
 20 14  1  0
M  END
>  <ref_mols>  (483) 
7gov-a

>  <gnina_score>  (483) 
5.028

>  <smina_score_min>  (483) 
-6.248

>  <ref_pdb>  (483) 
7gov-a

>  <inspiration_score>  (483) 
None

>  <inchikey>  (483) 
UNESHJZEHDBFOY-UHFFFAOYSA-N

>  <tags>  (483) 
BulkDock Fragalysis export,openbind_d68ev3c_c2_elabs_scored,openbind_d68ev3c_c2_elabs_scored_4.5plus,openbind_d68ev3c_c2_elabs,openbind_d68ev3c_c2_elabs_scored_5plus,syndirella_product,openbind_d68ev3c_c2_elabs_scored_top80percent,syndirella_placed

>  <smiles>  (483) 
O=C(Nc1cc(F)c(Br)cc1CO)c1cc(Br)ncc1F

>  <subsites>  (483) 
None

>  <rmsd(smina/fragmenstein)>  (483) 
0.91

>  <alias>  (483) 
None

>  <energy_score>  (483) 
-11.334375

>  <HIPPO Pose ID>  (483) 
65736

>  <distance_score>  (483) 
0.82109

>  <HIPPO Compound ID>  (483) 
103172

>  <gnina_score_min>  (483) 
5.162

>  <name>  (483) 
P65736

>  <exports>  (483) 
['/opt/xchem-fragalysis-2/maxwin/BulkDock/OUTPUTS/openbind_d68ev3c_c2_elabs_1LOTQJ3.sdf', '/opt/xchem-fragalysis-2/maxwin/BulkDock/OUTPUTS/openbind_d68ev3c_c2_elabs_1LSYEHW.sdf', '/opt/xchem-fragalysis-2/maxwin/BulkDock/OUTPUTS/openbind_d68ev3c_c2_elabs_1LSYI5W.sdf']

$$$$
P65737
     RDKit          3D

 21 22  0  0  0  0  0  0  0  0999 V2000
    2.4587   -4.4336   33.6967 O   0  0  0  0  0  0  0  0  0  0  0  0
    2.8945   -3.8838   34.7035 C   0  0  0  0  0  0  0  0  0  0  0  0
    2.1190   -3.8105   35.9642 C   0  0  0  0  0  0  0  0  0  0  0  0
    2.6109   -2.9874   36.9840 C   0  0  0  0  0  0  0  0  0  0  0  0
    1.9195   -2.9053   38.1922 C   0  0  0  0  0  0  0  0  0  0  0  0
    2.5431   -1.9120   39.4535 Cl  0  0  0  0  0  0  0  0  0  0  0  0
    0.7380   -3.6219   38.3706 C   0  0  0  0  0  0  0  0  0  0  0  0
    0.0623   -3.5470   39.5267 F   0  0  0  0  0  0  0  0  0  0  0  0
    0.2345   -4.4293   37.3548 C   0  0  0  0  0  0  0  0  0  0  0  0
    0.9301   -4.5397   36.1491 C   0  0  0  0  0  0  0  0  0  0  0  0
    0.4443   -5.3500   35.1259 N   0  0  0  0  0  0  0  0  0  0  0  0
   -0.7411   -6.3401   35.1070 C   0  0  0  0  0  0  0  0  0  0  0  0
   -1.5430   -6.5751   35.9213 O   0  0  0  0  0  0  0  0  0  0  0  0
   -0.9101   -7.0131   33.7823 C   0  0  0  0  0  0  0  0  0  0  0  0
   -0.4607   -6.4539   32.5830 C   0  0  0  0  0  0  0  0  0  0  0  0
   -0.7899   -7.0886   31.3953 C   0  0  0  0  0  0  0  0  0  0  0  0
   -0.2360   -6.2866   29.7757 Br  0  0  0  0  0  0  0  0  0  0  0  0
   -1.5547   -8.2035   31.3198 N   0  0  0  0  0  0  0  0  0  0  0  0
   -1.9586   -8.7300   32.4966 C   0  0  0  0  0  0  0  0  0  0  0  0
   -1.6680   -8.1807   33.7281 C   0  0  0  0  0  0  0  0  0  0  0  0
   -2.1644   -8.7678   34.8220 F   0  0  0  0  0  0  0  0  0  0  0  0
  1  2  2  0
  2  3  1  0
  3  4  2  0
  4  5  1  0
  5  6  1  0
  5  7  2  0
  7  8  1  0
  7  9  1  0
  9 10  2  0
 10 11  1  0
 11 12  1  0
 12 13  2  0
 12 14  1  0
 14 15  2  0
 15 16  1  0
 16 17  1  0
 16 18  2  0
 18 19  1  0
 19 20  2  0
 20 21  1  0
 10  3  1  0
 20 14  1  0
M  END
>  <ref_mols>  (484) 
7gov-a

>  <gnina_score>  (484) 
5.138

>  <smina_score_min>  (484) 
-5.914

>  <ref_pdb>  (484) 
7gov-a

>  <inspiration_score>  (484) 
None

>  <inchikey>  (484) 
SLEGIJVNPSMATM-UHFFFAOYSA-N

>  <tags>  (484) 
BulkDock Fragalysis export,openbind_d68ev3c_c2_elabs_scored,openbind_d68ev3c_c2_elabs_scored_4.5plus,openbind_d68ev3c_c2_elabs,openbind_d68ev3c_c2_elabs_scored_5plus,syndirella_product,openbind_d68ev3c_c2_elabs_scored_top80percent,syndirella_placed

>  <smiles>  (484) 
O=Cc1cc(Cl)c(F)cc1NC(=O)c1cc(Br)ncc1F

>  <subsites>  (484) 
None

>  <rmsd(smina/fragmenstein)>  (484) 
1.067

>  <alias>  (484) 
None

>  <energy_score>  (484) 
-18.369011

>  <HIPPO Pose ID>  (484) 
65737

>  <distance_score>  (484) 
0.770392

>  <HIPPO Compound ID>  (484) 
103173

>  <gnina_score_min>  (484) 
5.026

>  <name>  (484) 
P65737

>  <exports>  (484) 
['/opt/xchem-fragalysis-2/maxwin/BulkDock/OUTPUTS/openbind_d68ev3c_c2_elabs_1LOTQJ3.sdf', '/opt/xchem-fragalysis-2/maxwin/BulkDock/OUTPUTS/openbind_d68ev3c_c2_elabs_1LSYEHW.sdf', '/opt/xchem-fragalysis-2/maxwin/BulkDock/OUTPUTS/openbind_d68ev3c_c2_elabs_1LSYI5W.sdf']

$$$$
P65739
     RDKit          3D

 21 22  0  0  0  0  0  0  0  0999 V2000
    3.8175   -3.2096   33.8672 C   0  0  0  0  0  0  0  0  0  0  0  0
    3.1980   -3.2430   34.8955 C   0  0  0  0  0  0  0  0  0  0  0  0
    2.4613   -3.2781   36.1275 C   0  0  0  0  0  0  0  0  0  0  0  0
    2.8583   -2.4571   37.1844 C   0  0  0  0  0  0  0  0  0  0  0  0
    2.1628   -2.5013   38.3906 C   0  0  0  0  0  0  0  0  0  0  0  0
    2.5543   -1.7094   39.3995 F   0  0  0  0  0  0  0  0  0  0  0  0
    1.0710   -3.3444   38.5503 C   0  0  0  0  0  0  0  0  0  0  0  0
    0.3918   -3.3731   39.7053 F   0  0  0  0  0  0  0  0  0  0  0  0
    0.6657   -4.1641   37.5109 C   0  0  0  0  0  0  0  0  0  0  0  0
    1.3673   -4.1383   36.3020 C   0  0  0  0  0  0  0  0  0  0  0  0
    0.9711   -4.9672   35.2632 N   0  0  0  0  0  0  0  0  0  0  0  0
   -0.1370   -6.0253   35.1996 C   0  0  0  0  0  0  0  0  0  0  0  0
   -0.8472   -6.4272   36.0323 O   0  0  0  0  0  0  0  0  0  0  0  0
   -0.3429   -6.5575   33.8254 C   0  0  0  0  0  0  0  0  0  0  0  0
   -1.2474   -7.6027   33.7309 C   0  0  0  0  0  0  0  0  0  0  0  0
   -1.6103   -8.0244   32.4773 C   0  0  0  0  0  0  0  0  0  0  0  0
   -2.9834   -9.2550   32.4045 Br  0  0  0  0  0  0  0  0  0  0  0  0
   -1.1216   -7.5502   31.3182 N   0  0  0  0  0  0  0  0  0  0  0  0
   -0.1863   -6.5863   31.4381 C   0  0  0  0  0  0  0  0  0  0  0  0
    0.2105   -6.0502   32.6535 C   0  0  0  0  0  0  0  0  0  0  0  0
    1.0887   -5.0380   32.6645 F   0  0  0  0  0  0  0  0  0  0  0  0
  1  2  3  0
  2  3  1  0
  3  4  2  0
  4  5  1  0
  5  6  1  0
  5  7  2  0
  7  8  1  0
  7  9  1  0
  9 10  2  0
 10 11  1  0
 11 12  1  0
 12 13  2  0
 12 14  1  0
 14 15  2  0
 15 16  1  0
 16 17  1  0
 16 18  2  0
 18 19  1  0
 19 20  2  0
 20 21  1  0
 10  3  1  0
 20 14  1  0
M  END
>  <ref_mols>  (485) 
7gov-a

>  <gnina_score>  (485) 
5.094

>  <smina_score_min>  (485) 
-5.173

>  <ref_pdb>  (485) 
7gov-a

>  <inspiration_score>  (485) 
None

>  <inchikey>  (485) 
HOOGDGJAOJRXCV-UHFFFAOYSA-N

>  <tags>  (485) 
BulkDock Fragalysis export,openbind_d68ev3c_c2_elabs_scored,openbind_d68ev3c_c2_elabs_scored_4.5plus,openbind_d68ev3c_c2_elabs,openbind_d68ev3c_c2_elabs_scored_5plus,syndirella_product,openbind_d68ev3c_c2_elabs_scored_top80percent,syndirella_placed

>  <smiles>  (485) 
C#Cc1cc(F)c(F)cc1NC(=O)c1cc(Br)ncc1F

>  <subsites>  (485) 
None

>  <rmsd(smina/fragmenstein)>  (485) 
1.379

>  <alias>  (485) 
None

>  <energy_score>  (485) 
-12.105815

>  <HIPPO Pose ID>  (485) 
65739

>  <distance_score>  (485) 
0.959577

>  <HIPPO Compound ID>  (485) 
103175

>  <gnina_score_min>  (485) 
5.013

>  <name>  (485) 
P65739

>  <exports>  (485) 
['/opt/xchem-fragalysis-2/maxwin/BulkDock/OUTPUTS/openbind_d68ev3c_c2_elabs_1LOTQJ3.sdf', '/opt/xchem-fragalysis-2/maxwin/BulkDock/OUTPUTS/openbind_d68ev3c_c2_elabs_1LSYEHW.sdf', '/opt/xchem-fragalysis-2/maxwin/BulkDock/OUTPUTS/openbind_d68ev3c_c2_elabs_1LSYI5W.sdf']

$$$$
P65741
     RDKit          3D

 21 22  0  0  0  0  0  0  0  0999 V2000
    4.9051   -2.2412   37.1003 C   0  0  0  0  0  0  0  0  0  0  0  0
    3.5518   -1.7598   36.6020 C   0  0  0  0  0  0  0  0  0  0  0  0
    2.4475   -2.7708   36.8222 C   0  0  0  0  0  0  0  0  0  0  0  0
    1.7369   -2.6996   38.0327 C   0  0  0  0  0  0  0  0  0  0  0  0
    0.6745   -3.5562   38.2780 C   0  0  0  0  0  0  0  0  0  0  0  0
    0.0116   -3.4681   39.4391 F   0  0  0  0  0  0  0  0  0  0  0  0
    0.2763   -4.4856   37.3332 C   0  0  0  0  0  0  0  0  0  0  0  0
    0.9849   -4.6017   36.1362 C   0  0  0  0  0  0  0  0  0  0  0  0
    0.5557   -5.5189   35.1721 N   0  0  0  0  0  0  0  0  0  0  0  0
   -0.7177   -6.3973   35.1168 C   0  0  0  0  0  0  0  0  0  0  0  0
   -1.5670   -6.5485   35.9033 O   0  0  0  0  0  0  0  0  0  0  0  0
   -0.9012   -7.0646   33.7957 C   0  0  0  0  0  0  0  0  0  0  0  0
   -0.4615   -6.4929   32.5990 C   0  0  0  0  0  0  0  0  0  0  0  0
   -0.8003   -7.1157   31.4084 C   0  0  0  0  0  0  0  0  0  0  0  0
   -0.2452   -6.3051   29.7937 Br  0  0  0  0  0  0  0  0  0  0  0  0
   -1.5689   -8.2263   31.3296 N   0  0  0  0  0  0  0  0  0  0  0  0
   -1.9747   -8.7571   32.5050 C   0  0  0  0  0  0  0  0  0  0  0  0
   -1.6729   -8.2209   33.7394 C   0  0  0  0  0  0  0  0  0  0  0  0
   -2.1697   -8.8060   34.8337 F   0  0  0  0  0  0  0  0  0  0  0  0
    2.1029   -3.7696   35.8770 C   0  0  0  0  0  0  0  0  0  0  0  0
    2.8825   -3.9329   34.5953 C   0  0  0  0  0  0  0  0  0  0  0  0
  1  2  1  0
  2  3  1  0
  3  4  2  0
  4  5  1  0
  5  6  1  0
  5  7  2  0
  7  8  1  0
  8  9  1  0
  9 10  1  0
 10 11  2  0
 10 12  1  0
 12 13  2  0
 13 14  1  0
 14 15  1  0
 14 16  2  0
 16 17  1  0
 17 18  2  0
 18 19  1  0
  8 20  2  0
 20 21  1  0
 20  3  1  0
 18 12  1  0
M  END
>  <ref_mols>  (486) 
7gov-a

>  <gnina_score>  (486) 
5.138

>  <smina_score_min>  (486) 
-5.893

>  <ref_pdb>  (486) 
7gov-a

>  <inspiration_score>  (486) 
None

>  <inchikey>  (486) 
BRSUSAUXRGXUBY-UHFFFAOYSA-N

>  <tags>  (486) 
BulkDock Fragalysis export,openbind_d68ev3c_c2_elabs_scored,openbind_d68ev3c_c2_elabs_scored_4.5plus,openbind_d68ev3c_c2_elabs,openbind_d68ev3c_c2_elabs_scored_5plus,syndirella_product,openbind_d68ev3c_c2_elabs_scored_top80percent,syndirella_placed

>  <smiles>  (486) 
CCc1cc(F)cc(NC(=O)c2cc(Br)ncc2F)c1C

>  <subsites>  (486) 
None

>  <rmsd(smina/fragmenstein)>  (486) 
1.137

>  <alias>  (486) 
None

>  <energy_score>  (486) 
-16.328831

>  <HIPPO Pose ID>  (486) 
65741

>  <distance_score>  (486) 
0.789062

>  <HIPPO Compound ID>  (486) 
103182

>  <gnina_score_min>  (486) 
5.2

>  <name>  (486) 
P65741

>  <exports>  (486) 
['/opt/xchem-fragalysis-2/maxwin/BulkDock/OUTPUTS/openbind_d68ev3c_c2_elabs_1LOTQJ3.sdf', '/opt/xchem-fragalysis-2/maxwin/BulkDock/OUTPUTS/openbind_d68ev3c_c2_elabs_1LSYEHW.sdf', '/opt/xchem-fragalysis-2/maxwin/BulkDock/OUTPUTS/openbind_d68ev3c_c2_elabs_1LSYI5W.sdf']

$$$$
P65743
     RDKit          3D

 21 22  0  0  0  0  0  0  0  0999 V2000
    3.7853   -3.1036   33.8199 N   0  0  0  0  0  0  0  0  0  0  0  0
    3.2044   -3.1917   34.8214 C   0  0  0  0  0  0  0  0  0  0  0  0
    2.4545   -3.2652   36.0422 C   0  0  0  0  0  0  0  0  0  0  0  0
    2.8199   -2.4506   37.1242 C   0  0  0  0  0  0  0  0  0  0  0  0
    2.1246   -2.5271   38.3344 C   0  0  0  0  0  0  0  0  0  0  0  0
    1.0634   -3.4141   38.4607 C   0  0  0  0  0  0  0  0  0  0  0  0
    0.3742   -3.4614   39.6094 F   0  0  0  0  0  0  0  0  0  0  0  0
    0.6970   -4.2277   37.3993 C   0  0  0  0  0  0  0  0  0  0  0  0
   -0.3817   -5.0103   37.5472 F   0  0  0  0  0  0  0  0  0  0  0  0
    1.3926   -4.1655   36.1826 C   0  0  0  0  0  0  0  0  0  0  0  0
    1.0139   -4.9690   35.1097 N   0  0  0  0  0  0  0  0  0  0  0  0
    0.2689   -6.3090   35.0825 C   0  0  0  0  0  0  0  0  0  0  0  0
   -0.0814   -6.9965   35.9555 O   0  0  0  0  0  0  0  0  0  0  0  0
   -0.1378   -6.7140   33.7128 C   0  0  0  0  0  0  0  0  0  0  0  0
   -1.1186   -7.6935   33.6598 C   0  0  0  0  0  0  0  0  0  0  0  0
   -1.6185   -8.0367   32.4298 C   0  0  0  0  0  0  0  0  0  0  0  0
   -3.0427   -9.2148   32.4329 Br  0  0  0  0  0  0  0  0  0  0  0  0
   -1.2095   -7.5313   31.2517 N   0  0  0  0  0  0  0  0  0  0  0  0
   -0.2213   -6.6140   31.3276 C   0  0  0  0  0  0  0  0  0  0  0  0
    0.3181   -6.1620   32.5221 C   0  0  0  0  0  0  0  0  0  0  0  0
    1.2422   -5.1918   32.5038 F   0  0  0  0  0  0  0  0  0  0  0  0
  1  2  3  0
  2  3  1  0
  3  4  2  0
  4  5  1  0
  5  6  2  0
  6  7  1  0
  6  8  1  0
  8  9  1  0
  8 10  2  0
 10 11  1  0
 11 12  1  0
 12 13  2  0
 12 14  1  0
 14 15  2  0
 15 16  1  0
 16 17  1  0
 16 18  2  0
 18 19  1  0
 19 20  2  0
 20 21  1  0
 10  3  1  0
 20 14  1  0
M  END
>  <ref_mols>  (487) 
7gov-a

>  <gnina_score>  (487) 
5.173

>  <smina_score_min>  (487) 
-4.992

>  <ref_pdb>  (487) 
7gov-a

>  <inspiration_score>  (487) 
None

>  <inchikey>  (487) 
LSQQGPGOLNYNMN-UHFFFAOYSA-N

>  <tags>  (487) 
BulkDock Fragalysis export,openbind_d68ev3c_c2_elabs_scored,openbind_d68ev3c_c2_elabs_scored_4.5plus,openbind_d68ev3c_c2_elabs,openbind_d68ev3c_c2_elabs_scored_5plus,syndirella_product,openbind_d68ev3c_c2_elabs_scored_top80percent,syndirella_placed

>  <smiles>  (487) 
N#Cc1ccc(F)c(F)c1NC(=O)c1cc(Br)ncc1F

>  <subsites>  (487) 
None

>  <rmsd(smina/fragmenstein)>  (487) 
1.215

>  <alias>  (487) 
None

>  <energy_score>  (487) 
-2.587715

>  <HIPPO Pose ID>  (487) 
65743

>  <distance_score>  (487) 
0.812548

>  <HIPPO Compound ID>  (487) 
103186

>  <gnina_score_min>  (487) 
5.004

>  <name>  (487) 
P65743

>  <exports>  (487) 
['/opt/xchem-fragalysis-2/maxwin/BulkDock/OUTPUTS/openbind_d68ev3c_c2_elabs_1LOTQJ3.sdf', '/opt/xchem-fragalysis-2/maxwin/BulkDock/OUTPUTS/openbind_d68ev3c_c2_elabs_1LSYEHW.sdf', '/opt/xchem-fragalysis-2/maxwin/BulkDock/OUTPUTS/openbind_d68ev3c_c2_elabs_1LSYI5W.sdf']

$$$$
P65744
     RDKit          3D

 21 22  0  0  0  0  0  0  0  0999 V2000
    2.2063   -3.1141   33.4349 C   0  0  0  0  0  0  0  0  0  0  0  0
    2.9493   -3.6700   34.6520 C   0  0  0  0  0  0  0  0  0  0  0  0
    3.6527   -4.9935   34.3547 C   0  0  0  0  0  0  0  0  0  0  0  0
    2.0877   -3.7093   35.9096 C   0  0  0  0  0  0  0  0  0  0  0  0
    2.5027   -2.8782   36.9757 C   0  0  0  0  0  0  0  0  0  0  0  0
    1.8004   -2.8270   38.1781 C   0  0  0  0  0  0  0  0  0  0  0  0
    0.6644   -3.6000   38.3288 C   0  0  0  0  0  0  0  0  0  0  0  0
   -0.0146   -3.5560   39.4831 F   0  0  0  0  0  0  0  0  0  0  0  0
    0.2183   -4.4187   37.3011 C   0  0  0  0  0  0  0  0  0  0  0  0
    0.9270   -4.4931   36.0943 C   0  0  0  0  0  0  0  0  0  0  0  0
    0.4411   -5.3257   35.0833 N   0  0  0  0  0  0  0  0  0  0  0  0
   -0.7461   -6.3203   35.0833 C   0  0  0  0  0  0  0  0  0  0  0  0
   -1.5483   -6.5411   35.9027 O   0  0  0  0  0  0  0  0  0  0  0  0
   -0.9182   -7.0204   33.7738 C   0  0  0  0  0  0  0  0  0  0  0  0
   -0.4873   -6.4753   32.5617 C   0  0  0  0  0  0  0  0  0  0  0  0
   -0.8157   -7.1324   31.3864 C   0  0  0  0  0  0  0  0  0  0  0  0
   -0.2742   -6.3583   29.7494 Br  0  0  0  0  0  0  0  0  0  0  0  0
   -1.5681   -8.2546   31.3344 N   0  0  0  0  0  0  0  0  0  0  0  0
   -1.9633   -8.7635   32.5222 C   0  0  0  0  0  0  0  0  0  0  0  0
   -1.6682   -8.1934   33.7434 C   0  0  0  0  0  0  0  0  0  0  0  0
   -2.1546   -8.7651   34.8496 F   0  0  0  0  0  0  0  0  0  0  0  0
  1  2  1  0
  2  3  1  0
  2  4  1  0
  4  5  2  0
  5  6  1  0
  6  7  2  0
  7  8  1  0
  7  9  1  0
  9 10  2  0
 10 11  1  0
 11 12  1  0
 12 13  2  0
 12 14  1  0
 14 15  2  0
 15 16  1  0
 16 17  1  0
 16 18  2  0
 18 19  1  0
 19 20  2  0
 20 21  1  0
 10  4  1  0
 20 14  1  0
M  END
>  <ref_mols>  (488) 
7gov-a

>  <gnina_score>  (488) 
5.167

>  <smina_score_min>  (488) 
-5.992

>  <ref_pdb>  (488) 
7gov-a

>  <inspiration_score>  (488) 
None

>  <inchikey>  (488) 
VPHGNYJCGFAECY-UHFFFAOYSA-N

>  <tags>  (488) 
BulkDock Fragalysis export,openbind_d68ev3c_c2_elabs_scored,openbind_d68ev3c_c2_elabs_scored_4.5plus,openbind_d68ev3c_c2_elabs,openbind_d68ev3c_c2_elabs_scored_5plus,syndirella_product,openbind_d68ev3c_c2_elabs_scored_top80percent,syndirella_placed

>  <smiles>  (488) 
CC(C)c1ccc(F)cc1NC(=O)c1cc(Br)ncc1F

>  <subsites>  (488) 
None

>  <rmsd(smina/fragmenstein)>  (488) 
1.015

>  <alias>  (488) 
None

>  <energy_score>  (488) 
-6.704051

>  <HIPPO Pose ID>  (488) 
65744

>  <distance_score>  (488) 
0.775848

>  <HIPPO Compound ID>  (488) 
103188

>  <gnina_score_min>  (488) 
5.138

>  <name>  (488) 
P65744

>  <exports>  (488) 
['/opt/xchem-fragalysis-2/maxwin/BulkDock/OUTPUTS/openbind_d68ev3c_c2_elabs_1LOTQJ3.sdf', '/opt/xchem-fragalysis-2/maxwin/BulkDock/OUTPUTS/openbind_d68ev3c_c2_elabs_1LSYEHW.sdf', '/opt/xchem-fragalysis-2/maxwin/BulkDock/OUTPUTS/openbind_d68ev3c_c2_elabs_1LSYI5W.sdf']

$$$$
P65746
     RDKit          3D

 21 22  0  0  0  0  0  0  0  0999 V2000
    2.6598   -2.2489   33.8414 C   0  0  0  0  0  0  0  0  0  0  0  0
    3.2351   -3.2335   34.8487 C   0  0  0  0  0  0  0  0  0  0  0  0
    2.4314   -3.2706   36.1279 C   0  0  0  0  0  0  0  0  0  0  0  0
    2.8535   -2.5003   37.2240 C   0  0  0  0  0  0  0  0  0  0  0  0
    2.1646   -2.5541   38.4391 C   0  0  0  0  0  0  0  0  0  0  0  0
    2.7806   -1.5241   39.9012 Br  0  0  0  0  0  0  0  0  0  0  0  0
    1.0406   -3.3606   38.5672 C   0  0  0  0  0  0  0  0  0  0  0  0
    0.3526   -3.4193   39.7171 F   0  0  0  0  0  0  0  0  0  0  0  0
    0.6009   -4.1184   37.4959 C   0  0  0  0  0  0  0  0  0  0  0  0
    1.2953   -4.0764   36.2839 C   0  0  0  0  0  0  0  0  0  0  0  0
    0.8338   -4.8390   35.2256 N   0  0  0  0  0  0  0  0  0  0  0  0
   -0.1236   -6.0369   35.2031 C   0  0  0  0  0  0  0  0  0  0  0  0
   -0.7397   -6.5286   36.0623 O   0  0  0  0  0  0  0  0  0  0  0  0
   -0.3356   -6.5681   33.8280 C   0  0  0  0  0  0  0  0  0  0  0  0
   -1.2503   -7.6048   33.7343 C   0  0  0  0  0  0  0  0  0  0  0  0
   -1.6159   -8.0265   32.4813 C   0  0  0  0  0  0  0  0  0  0  0  0
   -2.9963   -9.2493   32.4095 Br  0  0  0  0  0  0  0  0  0  0  0  0
   -1.1229   -7.5584   31.3215 N   0  0  0  0  0  0  0  0  0  0  0  0
   -0.1776   -6.6043   31.4402 C   0  0  0  0  0  0  0  0  0  0  0  0
    0.2253   -6.0709   32.6549 C   0  0  0  0  0  0  0  0  0  0  0  0
    1.1252   -5.0772   32.6642 F   0  0  0  0  0  0  0  0  0  0  0  0
  1  2  1  0
  2  3  1  0
  3  4  2  0
  4  5  1  0
  5  6  1  0
  5  7  2  0
  7  8  1  0
  7  9  1  0
  9 10  2  0
 10 11  1  0
 11 12  1  0
 12 13  2  0
 12 14  1  0
 14 15  2  0
 15 16  1  0
 16 17  1  0
 16 18  2  0
 18 19  1  0
 19 20  2  0
 20 21  1  0
 10  3  1  0
 20 14  1  0
M  END
>  <ref_mols>  (489) 
7gov-a

>  <gnina_score>  (489) 
5.148

>  <smina_score_min>  (489) 
-4.425

>  <ref_pdb>  (489) 
7gov-a

>  <inspiration_score>  (489) 
None

>  <inchikey>  (489) 
OBISGKNSURTIMZ-UHFFFAOYSA-N

>  <tags>  (489) 
BulkDock Fragalysis export,openbind_d68ev3c_c2_elabs_scored,openbind_d68ev3c_c2_elabs_scored_4.5plus,openbind_d68ev3c_c2_elabs,openbind_d68ev3c_c2_elabs_scored_5plus,syndirella_product,openbind_d68ev3c_c2_elabs_scored_top80percent,syndirella_placed

>  <smiles>  (489) 
CCc1cc(Br)c(F)cc1NC(=O)c1cc(Br)ncc1F

>  <subsites>  (489) 
None

>  <rmsd(smina/fragmenstein)>  (489) 
1.355

>  <alias>  (489) 
None

>  <energy_score>  (489) 
-15.216324

>  <HIPPO Pose ID>  (489) 
65746

>  <distance_score>  (489) 
0.928208

>  <HIPPO Compound ID>  (489) 
103191

>  <gnina_score_min>  (489) 
5.052

>  <name>  (489) 
P65746

>  <exports>  (489) 
['/opt/xchem-fragalysis-2/maxwin/BulkDock/OUTPUTS/openbind_d68ev3c_c2_elabs_1LOTQJ3.sdf', '/opt/xchem-fragalysis-2/maxwin/BulkDock/OUTPUTS/openbind_d68ev3c_c2_elabs_1LSYEHW.sdf', '/opt/xchem-fragalysis-2/maxwin/BulkDock/OUTPUTS/openbind_d68ev3c_c2_elabs_1LSYI5W.sdf']

$$$$
P65749
     RDKit          3D

 21 22  0  0  0  0  0  0  0  0999 V2000
    2.1949   -1.8170   39.1780 C   0  0  0  0  0  0  0  0  0  0  0  0
    1.8109   -2.7799   38.0903 C   0  0  0  0  0  0  0  0  0  0  0  0
    0.6723   -3.5666   38.2603 C   0  0  0  0  0  0  0  0  0  0  0  0
   -0.0538   -3.4625   39.3837 F   0  0  0  0  0  0  0  0  0  0  0  0
    0.2507   -4.4618   37.2890 C   0  0  0  0  0  0  0  0  0  0  0  0
    0.9951   -4.6294   36.1224 C   0  0  0  0  0  0  0  0  0  0  0  0
    0.5482   -5.5311   35.1518 N   0  0  0  0  0  0  0  0  0  0  0  0
   -0.7175   -6.4203   35.1131 C   0  0  0  0  0  0  0  0  0  0  0  0
   -1.5433   -6.5956   35.9189 O   0  0  0  0  0  0  0  0  0  0  0  0
   -0.9139   -7.0716   33.7873 C   0  0  0  0  0  0  0  0  0  0  0  0
   -0.4680   -6.4908   32.5976 C   0  0  0  0  0  0  0  0  0  0  0  0
   -0.8021   -7.1043   31.4017 C   0  0  0  0  0  0  0  0  0  0  0  0
   -0.2354   -6.2838   29.7965 Br  0  0  0  0  0  0  0  0  0  0  0  0
   -1.5710   -8.2143   31.3127 N   0  0  0  0  0  0  0  0  0  0  0  0
   -1.9827   -8.7537   32.4825 C   0  0  0  0  0  0  0  0  0  0  0  0
   -1.6861   -8.2266   33.7214 C   0  0  0  0  0  0  0  0  0  0  0  0
   -2.1854   -8.8202   34.8097 F   0  0  0  0  0  0  0  0  0  0  0  0
    2.1738   -3.8780   35.9136 C   0  0  0  0  0  0  0  0  0  0  0  0
    2.9767   -4.0823   34.6514 C   0  0  0  0  0  0  0  0  0  0  0  0
    2.5492   -2.9273   36.8977 C   0  0  0  0  0  0  0  0  0  0  0  0
    4.0687   -1.7903   36.6239 Br  0  0  0  0  0  0  0  0  0  0  0  0
  1  2  1  0
  2  3  2  0
  3  4  1  0
  3  5  1  0
  5  6  2  0
  6  7  1  0
  7  8  1  0
  8  9  2  0
  8 10  1  0
 10 11  2  0
 11 12  1  0
 12 13  1  0
 12 14  2  0
 14 15  1  0
 15 16  2  0
 16 17  1  0
  6 18  1  0
 18 19  1  0
 18 20  2  0
 20 21  1  0
 20  2  1  0
 16 10  1  0
M  END
>  <ref_mols>  (490) 
7gov-a

>  <gnina_score>  (490) 
5.234

>  <smina_score_min>  (490) 
-6.184

>  <ref_pdb>  (490) 
7gov-a

>  <inspiration_score>  (490) 
None

>  <inchikey>  (490) 
OTCZHIGRLSVWSL-UHFFFAOYSA-N

>  <tags>  (490) 
BulkDock Fragalysis export,openbind_d68ev3c_c2_elabs_scored,openbind_d68ev3c_c2_elabs_scored_4.5plus,openbind_d68ev3c_c2_elabs,openbind_d68ev3c_c2_elabs_scored_5plus,syndirella_product,openbind_d68ev3c_c2_elabs_scored_top80percent,syndirella_placed

>  <smiles>  (490) 
Cc1c(F)cc(NC(=O)c2cc(Br)ncc2F)c(C)c1Br

>  <subsites>  (490) 
None

>  <rmsd(smina/fragmenstein)>  (490) 
1.068

>  <alias>  (490) 
None

>  <energy_score>  (490) 
-3.859527

>  <HIPPO Pose ID>  (490) 
65749

>  <distance_score>  (490) 
0.775409

>  <HIPPO Compound ID>  (490) 
103201

>  <gnina_score_min>  (490) 
5.271

>  <name>  (490) 
P65749

>  <exports>  (490) 
['/opt/xchem-fragalysis-2/maxwin/BulkDock/OUTPUTS/openbind_d68ev3c_c2_elabs_1LOTQJ3.sdf', '/opt/xchem-fragalysis-2/maxwin/BulkDock/OUTPUTS/openbind_d68ev3c_c2_elabs_1LSYEHW.sdf', '/opt/xchem-fragalysis-2/maxwin/BulkDock/OUTPUTS/openbind_d68ev3c_c2_elabs_1LSYI5W.sdf']

$$$$
P65794
     RDKit          3D

 21 22  0  0  0  0  0  0  0  0999 V2000
    2.9199   -3.3360   33.3228 C   0  0  0  0  0  0  0  0  0  0  0  0
    2.4373   -3.4173   34.4195 C   0  0  0  0  0  0  0  0  0  0  0  0
    1.8635   -3.5110   35.7317 C   0  0  0  0  0  0  0  0  0  0  0  0
    2.3671   -2.6941   36.7490 C   0  0  0  0  0  0  0  0  0  0  0  0
    1.8568   -2.8060   38.0390 C   0  0  0  0  0  0  0  0  0  0  0  0
    2.3284   -2.0013   39.0023 F   0  0  0  0  0  0  0  0  0  0  0  0
    0.8590   -3.7287   38.3260 C   0  0  0  0  0  0  0  0  0  0  0  0
    0.3440   -3.8050   39.5613 F   0  0  0  0  0  0  0  0  0  0  0  0
    0.3687   -4.5659   37.3317 C   0  0  0  0  0  0  0  0  0  0  0  0
    0.8627   -4.4516   36.0290 C   0  0  0  0  0  0  0  0  0  0  0  0
    0.3337   -5.2635   35.0310 N   0  0  0  0  0  0  0  0  0  0  0  0
   -0.2740   -6.6788   35.1084 C   0  0  0  0  0  0  0  0  0  0  0  0
   -0.4968   -7.3550   36.0301 O   0  0  0  0  0  0  0  0  0  0  0  0
   -0.7196   -7.1862   33.7553 C   0  0  0  0  0  0  0  0  0  0  0  0
   -0.0663   -6.7641   32.5873 C   0  0  0  0  0  0  0  0  0  0  0  0
   -0.5189   -7.2092   31.3571 C   0  0  0  0  0  0  0  0  0  0  0  0
   -1.5572   -8.0457   31.2083 N   0  0  0  0  0  0  0  0  0  0  0  0
   -2.1197   -8.4949   32.3467 C   0  0  0  0  0  0  0  0  0  0  0  0
   -3.1285   -9.3633   32.1931 F   0  0  0  0  0  0  0  0  0  0  0  0
   -1.7681   -8.1133   33.6337 C   0  0  0  0  0  0  0  0  0  0  0  0
   -2.5324   -8.7827   34.7331 C   0  0  0  0  0  0  0  0  0  0  0  0
  1  2  3  0
  2  3  1  0
  3  4  2  0
  4  5  1  0
  5  6  1  0
  5  7  2  0
  7  8  1  0
  7  9  1  0
  9 10  2  0
 10 11  1  0
 11 12  1  0
 12 13  2  0
 12 14  1  0
 14 15  2  0
 15 16  1  0
 16 17  2  0
 17 18  1  0
 18 19  1  0
 18 20  2  0
 20 21  1  0
 10  3  1  0
 20 14  1  0
M  END
>  <ref_mols>  (491) 
7gov-a

>  <gnina_score>  (491) 
5.01

>  <smina_score_min>  (491) 
-6.033

>  <ref_pdb>  (491) 
7gov-a

>  <inspiration_score>  (491) 
None

>  <inchikey>  (491) 
CZVSQCKCEKLQBQ-UHFFFAOYSA-N

>  <tags>  (491) 
BulkDock Fragalysis export,openbind_d68ev3c_c2_elabs_scored,openbind_d68ev3c_c2_elabs_scored_4.5plus,openbind_d68ev3c_c2_elabs,openbind_d68ev3c_c2_elabs_scored_5plus,syndirella_product,openbind_d68ev3c_c2_elabs_scored_top80percent,syndirella_placed

>  <smiles>  (491) 
C#Cc1cc(F)c(F)cc1NC(=O)c1ccnc(F)c1C

>  <subsites>  (491) 
None

>  <rmsd(smina/fragmenstein)>  (491) 
1.182

>  <alias>  (491) 
None

>  <energy_score>  (491) 
-10.186105

>  <HIPPO Pose ID>  (491) 
65794

>  <distance_score>  (491) 
0.584992

>  <HIPPO Compound ID>  (491) 
103283

>  <gnina_score_min>  (491) 
5.034

>  <name>  (491) 
P65794

>  <exports>  (491) 
['/opt/xchem-fragalysis-2/maxwin/BulkDock/OUTPUTS/openbind_d68ev3c_c2_elabs_1LOTQJ3.sdf', '/opt/xchem-fragalysis-2/maxwin/BulkDock/OUTPUTS/openbind_d68ev3c_c2_elabs_1LSYEHW.sdf', '/opt/xchem-fragalysis-2/maxwin/BulkDock/OUTPUTS/openbind_d68ev3c_c2_elabs_1LSYI5W.sdf']

$$$$
P65798
     RDKit          3D

 21 22  0  0  0  0  0  0  0  0999 V2000
   -2.3843   -8.6696   34.7328 C   0  0  0  0  0  0  0  0  0  0  0  0
   -1.6795   -8.0488   33.5688 C   0  0  0  0  0  0  0  0  0  0  0  0
   -0.5996   -7.1560   33.6168 C   0  0  0  0  0  0  0  0  0  0  0  0
   -0.0145   -6.7329   34.9279 C   0  0  0  0  0  0  0  0  0  0  0  0
   -0.0125   -7.5151   35.7892 O   0  0  0  0  0  0  0  0  0  0  0  0
    0.4535   -5.2671   34.9109 N   0  0  0  0  0  0  0  0  0  0  0  0
    0.9205   -4.4519   35.9444 C   0  0  0  0  0  0  0  0  0  0  0  0
    1.9240   -3.5038   35.7002 C   0  0  0  0  0  0  0  0  0  0  0  0
    2.5391   -3.4010   34.4084 C   0  0  0  0  0  0  0  0  0  0  0  0
    2.9926   -3.2980   33.3443 N   0  0  0  0  0  0  0  0  0  0  0  0
    2.3829   -2.6873   36.7462 C   0  0  0  0  0  0  0  0  0  0  0  0
    1.8323   -2.8028   38.0248 C   0  0  0  0  0  0  0  0  0  0  0  0
    0.8334   -3.7405   38.2583 C   0  0  0  0  0  0  0  0  0  0  0  0
    0.2839   -3.8211   39.4784 F   0  0  0  0  0  0  0  0  0  0  0  0
    0.3875   -4.5690   37.2347 C   0  0  0  0  0  0  0  0  0  0  0  0
   -0.6144   -5.4252   37.4872 F   0  0  0  0  0  0  0  0  0  0  0  0
   -0.0158   -6.7184   32.4217 C   0  0  0  0  0  0  0  0  0  0  0  0
   -0.5462   -7.1593   31.2243 C   0  0  0  0  0  0  0  0  0  0  0  0
   -1.6005   -7.9890   31.1410 N   0  0  0  0  0  0  0  0  0  0  0  0
   -2.1122   -8.4259   32.3101 C   0  0  0  0  0  0  0  0  0  0  0  0
   -3.1439   -9.2762   32.2163 F   0  0  0  0  0  0  0  0  0  0  0  0
  1  2  1  0
  2  3  2  0
  3  4  1  0
  4  5  2  0
  4  6  1  0
  6  7  1  0
  7  8  2  0
  8  9  1  0
  9 10  3  0
  8 11  1  0
 11 12  2  0
 12 13  1  0
 13 14  1  0
 13 15  2  0
 15 16  1  0
  3 17  1  0
 17 18  2  0
 18 19  1  0
 19 20  2  0
 20 21  1  0
 20  2  1  0
 15  7  1  0
M  END
>  <ref_mols>  (492) 
7gov-a

>  <gnina_score>  (492) 
5.031

>  <smina_score_min>  (492) 
-5.735

>  <ref_pdb>  (492) 
7gov-a

>  <inspiration_score>  (492) 
None

>  <inchikey>  (492) 
GGIBONHQGDGQDW-UHFFFAOYSA-N

>  <tags>  (492) 
BulkDock Fragalysis export,openbind_d68ev3c_c2_elabs_scored,openbind_d68ev3c_c2_elabs_scored_4.5plus,openbind_d68ev3c_c2_elabs,openbind_d68ev3c_c2_elabs_scored_5plus,syndirella_product,openbind_d68ev3c_c2_elabs_scored_top80percent,syndirella_placed

>  <smiles>  (492) 
Cc1c(C(=O)Nc2c(C#N)ccc(F)c2F)ccnc1F

>  <subsites>  (492) 
None

>  <rmsd(smina/fragmenstein)>  (492) 
1.033

>  <alias>  (492) 
None

>  <energy_score>  (492) 
-3.5205

>  <HIPPO Pose ID>  (492) 
65798

>  <distance_score>  (492) 
0.482556

>  <HIPPO Compound ID>  (492) 
103288

>  <gnina_score_min>  (492) 
5.1

>  <name>  (492) 
P65798

>  <exports>  (492) 
['/opt/xchem-fragalysis-2/maxwin/BulkDock/OUTPUTS/openbind_d68ev3c_c2_elabs_1LOTQJ3.sdf', '/opt/xchem-fragalysis-2/maxwin/BulkDock/OUTPUTS/openbind_d68ev3c_c2_elabs_1LSYEHW.sdf', '/opt/xchem-fragalysis-2/maxwin/BulkDock/OUTPUTS/openbind_d68ev3c_c2_elabs_1LSYI5W.sdf']

$$$$
P65800
     RDKit          3D

 21 22  0  0  0  0  0  0  0  0999 V2000
    2.9431   -0.3284   36.1724 C   0  0  0  0  0  0  0  0  0  0  0  0
    3.4505   -1.6953   36.6077 C   0  0  0  0  0  0  0  0  0  0  0  0
    2.3225   -2.6875   36.7850 C   0  0  0  0  0  0  0  0  0  0  0  0
    1.7616   -2.8090   38.0692 C   0  0  0  0  0  0  0  0  0  0  0  0
    0.7626   -3.7381   38.3162 C   0  0  0  0  0  0  0  0  0  0  0  0
    0.2362   -3.8313   39.5449 F   0  0  0  0  0  0  0  0  0  0  0  0
    0.2976   -4.5632   37.3082 C   0  0  0  0  0  0  0  0  0  0  0  0
    0.8113   -4.4311   36.0167 C   0  0  0  0  0  0  0  0  0  0  0  0
    0.2844   -5.2452   35.0196 N   0  0  0  0  0  0  0  0  0  0  0  0
   -0.2421   -6.6936   35.0829 C   0  0  0  0  0  0  0  0  0  0  0  0
   -0.3882   -7.4044   35.9941 O   0  0  0  0  0  0  0  0  0  0  0  0
   -0.7103   -7.1855   33.7376 C   0  0  0  0  0  0  0  0  0  0  0  0
   -0.0671   -6.7556   32.5680 C   0  0  0  0  0  0  0  0  0  0  0  0
   -0.5270   -7.2021   31.3419 C   0  0  0  0  0  0  0  0  0  0  0  0
   -1.5644   -8.0425   31.2014 N   0  0  0  0  0  0  0  0  0  0  0  0
   -2.1209   -8.4914   32.3436 C   0  0  0  0  0  0  0  0  0  0  0  0
   -3.1316   -9.3590   32.1975 F   0  0  0  0  0  0  0  0  0  0  0  0
   -1.7602   -8.1099   33.6267 C   0  0  0  0  0  0  0  0  0  0  0  0
   -2.5157   -8.7670   34.7384 C   0  0  0  0  0  0  0  0  0  0  0  0
    1.8201   -3.4869   35.7273 C   0  0  0  0  0  0  0  0  0  0  0  0
    2.4684   -3.4651   34.3651 C   0  0  0  0  0  0  0  0  0  0  0  0
  1  2  1  0
  2  3  1  0
  3  4  2  0
  4  5  1  0
  5  6  1  0
  5  7  2  0
  7  8  1  0
  8  9  1  0
  9 10  1  0
 10 11  2  0
 10 12  1  0
 12 13  2  0
 13 14  1  0
 14 15  2  0
 15 16  1  0
 16 17  1  0
 16 18  2  0
 18 19  1  0
  8 20  2  0
 20 21  1  0
 20  3  1  0
 18 12  1  0
M  END
>  <ref_mols>  (493) 
7gov-a

>  <gnina_score>  (493) 
4.985

>  <smina_score_min>  (493) 
-5.943

>  <ref_pdb>  (493) 
7gov-a

>  <inspiration_score>  (493) 
None

>  <inchikey>  (493) 
HFSNDKPCCSMYBJ-UHFFFAOYSA-N

>  <tags>  (493) 
BulkDock Fragalysis export,openbind_d68ev3c_c2_elabs_scored,openbind_d68ev3c_c2_elabs_scored_4.5plus,openbind_d68ev3c_c2_elabs,openbind_d68ev3c_c2_elabs_scored_5plus,syndirella_product,openbind_d68ev3c_c2_elabs_scored_top80percent,syndirella_placed

>  <smiles>  (493) 
CCc1cc(F)cc(NC(=O)c2ccnc(F)c2C)c1C

>  <subsites>  (493) 
None

>  <rmsd(smina/fragmenstein)>  (493) 
1.053

>  <alias>  (493) 
None

>  <energy_score>  (493) 
-18.524024

>  <HIPPO Pose ID>  (493) 
65800

>  <distance_score>  (493) 
0.554067

>  <HIPPO Compound ID>  (493) 
103292

>  <gnina_score_min>  (493) 
5.031

>  <name>  (493) 
P65800

>  <exports>  (493) 
['/opt/xchem-fragalysis-2/maxwin/BulkDock/OUTPUTS/openbind_d68ev3c_c2_elabs_1LOTQJ3.sdf', '/opt/xchem-fragalysis-2/maxwin/BulkDock/OUTPUTS/openbind_d68ev3c_c2_elabs_1LSYEHW.sdf', '/opt/xchem-fragalysis-2/maxwin/BulkDock/OUTPUTS/openbind_d68ev3c_c2_elabs_1LSYI5W.sdf']

$$$$
P65815
     RDKit          3D

 21 22  0  0  0  0  0  0  0  0999 V2000
   -2.1991   -8.6154   34.7475 C   0  0  0  0  0  0  0  0  0  0  0  0
   -1.5381   -7.9957   33.5552 C   0  0  0  0  0  0  0  0  0  0  0  0
   -2.0091   -8.4248   32.3179 C   0  0  0  0  0  0  0  0  0  0  0  0
   -1.5682   -7.9744   31.1255 N   0  0  0  0  0  0  0  0  0  0  0  0
   -0.5748   -7.0568   31.1703 C   0  0  0  0  0  0  0  0  0  0  0  0
   -0.0316   -6.5614   32.3433 C   0  0  0  0  0  0  0  0  0  0  0  0
    0.9146   -5.6150   32.2756 F   0  0  0  0  0  0  0  0  0  0  0  0
   -0.4975   -7.0429   33.5639 C   0  0  0  0  0  0  0  0  0  0  0  0
    0.1289   -6.5924   34.8503 C   0  0  0  0  0  0  0  0  0  0  0  0
    0.1594   -7.3757   35.7143 O   0  0  0  0  0  0  0  0  0  0  0  0
    0.5424   -5.1034   34.8336 N   0  0  0  0  0  0  0  0  0  0  0  0
    1.1520   -4.3143   35.8240 C   0  0  0  0  0  0  0  0  0  0  0  0
    2.2586   -3.5140   35.4998 C   0  0  0  0  0  0  0  0  0  0  0  0
    2.8419   -3.5349   34.1897 C   0  0  0  0  0  0  0  0  0  0  0  0
    3.3020   -3.4991   33.1240 N   0  0  0  0  0  0  0  0  0  0  0  0
    2.8564   -2.7009   36.4796 C   0  0  0  0  0  0  0  0  0  0  0  0
    2.3528   -2.6660   37.7787 C   0  0  0  0  0  0  0  0  0  0  0  0
    1.2525   -3.4443   38.0994 C   0  0  0  0  0  0  0  0  0  0  0  0
    0.7463   -3.3632   39.3417 F   0  0  0  0  0  0  0  0  0  0  0  0
    0.6531   -4.2640   37.1400 C   0  0  0  0  0  0  0  0  0  0  0  0
   -0.9371   -5.1191   37.6767 Br  0  0  0  0  0  0  0  0  0  0  0  0
  1  2  1  0
  2  3  2  0
  3  4  1  0
  4  5  2  0
  5  6  1  0
  6  7  1  0
  6  8  2  0
  8  9  1  0
  9 10  2  0
  9 11  1  0
 11 12  1  0
 12 13  2  0
 13 14  1  0
 14 15  3  0
 13 16  1  0
 16 17  2  0
 17 18  1  0
 18 19  1  0
 18 20  2  0
 20 21  1  0
  8  2  1  0
 20 12  1  0
M  END
>  <ref_mols>  (494) 
7gov-a

>  <gnina_score>  (494) 
5.121

>  <smina_score_min>  (494) 
-4.933

>  <ref_pdb>  (494) 
7gov-a

>  <inspiration_score>  (494) 
None

>  <inchikey>  (494) 
NSEDFWPWXNOIAB-UHFFFAOYSA-N

>  <tags>  (494) 
BulkDock Fragalysis export,openbind_d68ev3c_c2_elabs_scored,openbind_d68ev3c_c2_elabs_scored_4.5plus,openbind_d68ev3c_c2_elabs,openbind_d68ev3c_c2_elabs_scored_5plus,syndirella_product,openbind_d68ev3c_c2_elabs_scored_top80percent,syndirella_placed

>  <smiles>  (494) 
Cc1cncc(F)c1C(=O)Nc1c(C#N)ccc(F)c1Br

>  <subsites>  (494) 
None

>  <rmsd(smina/fragmenstein)>  (494) 
0.564

>  <alias>  (494) 
None

>  <energy_score>  (494) 
-3.65943

>  <HIPPO Pose ID>  (494) 
65815

>  <distance_score>  (494) 
0.568911

>  <HIPPO Compound ID>  (494) 
103318

>  <gnina_score_min>  (494) 
5.014

>  <name>  (494) 
P65815

>  <exports>  (494) 
['/opt/xchem-fragalysis-2/maxwin/BulkDock/OUTPUTS/openbind_d68ev3c_c2_elabs_1LOTQJ3.sdf', '/opt/xchem-fragalysis-2/maxwin/BulkDock/OUTPUTS/openbind_d68ev3c_c2_elabs_1LSYEHW.sdf', '/opt/xchem-fragalysis-2/maxwin/BulkDock/OUTPUTS/openbind_d68ev3c_c2_elabs_1LSYI5W.sdf']

$$$$
P65850
     RDKit          3D

 21 23  0  0  0  0  0  0  0  0999 V2000
    0.7999   -5.5967   31.9761 C   0  0  0  0  0  0  0  0  0  0  0  0
   -0.2277   -6.6263   32.3112 C   0  0  0  0  0  0  0  0  0  0  0  0
   -0.8974   -7.2920   31.2919 C   0  0  0  0  0  0  0  0  0  0  0  0
   -1.8577   -8.2266   31.4911 N   0  0  0  0  0  0  0  0  0  0  0  0
   -2.1474   -8.5282   32.7803 C   0  0  0  0  0  0  0  0  0  0  0  0
   -1.5371   -7.9338   33.8664 C   0  0  0  0  0  0  0  0  0  0  0  0
   -1.9165   -8.2499   35.1106 F   0  0  0  0  0  0  0  0  0  0  0  0
   -0.5622   -6.9792   33.6256 C   0  0  0  0  0  0  0  0  0  0  0  0
    0.2270   -6.5087   34.7786 C   0  0  0  0  0  0  0  0  0  0  0  0
    1.0578   -7.2174   35.1860 O   0  0  0  0  0  0  0  0  0  0  0  0
   -0.1878   -5.0964   35.2272 N   0  0  0  0  0  0  0  0  0  0  0  0
    0.3732   -4.2492   36.1758 C   0  0  0  0  0  0  0  0  0  0  0  0
   -0.4296   -3.9231   37.2689 C   0  0  0  0  0  0  0  0  0  0  0  0
    0.1421   -3.2925   38.3638 C   0  0  0  0  0  0  0  0  0  0  0  0
   -0.5899   -3.0895   39.4650 F   0  0  0  0  0  0  0  0  0  0  0  0
    1.4728   -2.9156   38.3621 C   0  0  0  0  0  0  0  0  0  0  0  0
    2.2542   -3.1944   37.2445 C   0  0  0  0  0  0  0  0  0  0  0  0
    1.7387   -3.8750   36.1225 C   0  0  0  0  0  0  0  0  0  0  0  0
    2.6396   -4.1641   34.9310 C   0  0  0  0  0  0  0  0  0  0  0  0
    3.8134   -3.2639   34.5935 C   0  0  0  0  0  0  0  0  0  0  0  0
    2.5944   -3.2405   33.7308 C   0  0  0  0  0  0  0  0  0  0  0  0
  1  2  1  0
  2  3  2  0
  3  4  1  0
  4  5  2  0
  5  6  1  0
  6  7  1  0
  6  8  2  0
  8  9  1  0
  9 10  2  0
  9 11  1  0
 11 12  1  0
 12 13  2  0
 13 14  1  0
 14 15  1  0
 14 16  2  0
 16 17  1  0
 17 18  2  0
 18 19  1  0
 19 20  1  0
 20 21  1  0
  8  2  1  0
 18 12  1  0
 21 19  1  0
M  END
>  <ref_mols>  (495) 
7gov-a

>  <gnina_score>  (495) 
5.062

>  <smina_score_min>  (495) 
-5.995

>  <ref_pdb>  (495) 
7gov-a

>  <inspiration_score>  (495) 
None

>  <inchikey>  (495) 
DEWNXJSYYJTYSD-UHFFFAOYSA-N

>  <tags>  (495) 
BulkDock Fragalysis export,openbind_d68ev3c_c2_elabs_scored,openbind_d68ev3c_c2_elabs_scored_4.5plus,openbind_d68ev3c_c2_elabs,openbind_d68ev3c_c2_elabs_scored_5plus,syndirella_product,openbind_d68ev3c_c2_elabs_scored_top80percent,syndirella_placed

>  <smiles>  (495) 
Cc1cncc(F)c1C(=O)Nc1cc(F)ccc1C1CC1

>  <subsites>  (495) 
None

>  <rmsd(smina/fragmenstein)>  (495) 
1.204

>  <alias>  (495) 
None

>  <energy_score>  (495) 
-4.661884

>  <HIPPO Pose ID>  (495) 
65850

>  <distance_score>  (495) 
0.448074

>  <HIPPO Compound ID>  (495) 
103372

>  <gnina_score_min>  (495) 
5.016

>  <name>  (495) 
P65850

>  <exports>  (495) 
['/opt/xchem-fragalysis-2/maxwin/BulkDock/OUTPUTS/openbind_d68ev3c_c2_elabs_1LOTQJ3.sdf', '/opt/xchem-fragalysis-2/maxwin/BulkDock/OUTPUTS/openbind_d68ev3c_c2_elabs_1LSYEHW.sdf', '/opt/xchem-fragalysis-2/maxwin/BulkDock/OUTPUTS/openbind_d68ev3c_c2_elabs_1LSYI5W.sdf']

$$$$
P65889
     RDKit          3D

 21 22  0  0  0  0  0  0  0  0999 V2000
   -1.7590   -8.3279   34.9529 C   0  0  0  0  0  0  0  0  0  0  0  0
   -1.2527   -7.7330   33.6833 C   0  0  0  0  0  0  0  0  0  0  0  0
   -0.2180   -6.8139   33.6147 C   0  0  0  0  0  0  0  0  0  0  0  0
    0.5110   -6.4102   34.8306 C   0  0  0  0  0  0  0  0  0  0  0  0
    1.3347   -7.1104   35.2573 O   0  0  0  0  0  0  0  0  0  0  0  0
    0.0736   -5.0087   35.2686 N   0  0  0  0  0  0  0  0  0  0  0  0
    0.5997   -4.1615   36.2295 C   0  0  0  0  0  0  0  0  0  0  0  0
    1.9421   -3.7503   36.1629 C   0  0  0  0  0  0  0  0  0  0  0  0
    2.7382   -3.9691   34.9843 C   0  0  0  0  0  0  0  0  0  0  0  0
    3.3473   -4.0549   33.9985 N   0  0  0  0  0  0  0  0  0  0  0  0
    2.4898   -3.0251   37.2295 C   0  0  0  0  0  0  0  0  0  0  0  0
    1.7270   -2.7704   38.3706 C   0  0  0  0  0  0  0  0  0  0  0  0
    0.4048   -3.1996   38.4228 C   0  0  0  0  0  0  0  0  0  0  0  0
   -0.3026   -3.0006   39.5415 F   0  0  0  0  0  0  0  0  0  0  0  0
   -0.1721   -3.8583   37.3465 C   0  0  0  0  0  0  0  0  0  0  0  0
   -1.4467   -4.2718   37.4188 F   0  0  0  0  0  0  0  0  0  0  0  0
    0.2295   -6.3205   32.3869 C   0  0  0  0  0  0  0  0  0  0  0  0
   -0.3904   -6.7748   31.2393 C   0  0  0  0  0  0  0  0  0  0  0  0
   -1.4229   -7.6378   31.2494 N   0  0  0  0  0  0  0  0  0  0  0  0
   -1.7966   -8.0933   32.4640 C   0  0  0  0  0  0  0  0  0  0  0  0
   -3.0882   -9.1900   32.3737 Cl  0  0  0  0  0  0  0  0  0  0  0  0
  1  2  1  0
  2  3  2  0
  3  4  1  0
  4  5  2  0
  4  6  1  0
  6  7  1  0
  7  8  2  0
  8  9  1  0
  9 10  3  0
  8 11  1  0
 11 12  2  0
 12 13  1  0
 13 14  1  0
 13 15  2  0
 15 16  1  0
  3 17  1  0
 17 18  2  0
 18 19  1  0
 19 20  2  0
 20 21  1  0
 20  2  1  0
 15  7  1  0
M  END
>  <ref_mols>  (496) 
7gov-a

>  <gnina_score>  (496) 
5.154

>  <smina_score_min>  (496) 
-5.394

>  <ref_pdb>  (496) 
7gov-a

>  <inspiration_score>  (496) 
None

>  <inchikey>  (496) 
BLECZQURDUJIEH-UHFFFAOYSA-N

>  <tags>  (496) 
BulkDock Fragalysis export,openbind_d68ev3c_c2_elabs_scored,openbind_d68ev3c_c2_elabs_scored_4.5plus,openbind_d68ev3c_c2_elabs,openbind_d68ev3c_c2_elabs_scored_5plus,syndirella_product,openbind_d68ev3c_c2_elabs_scored_top80percent,syndirella_placed

>  <smiles>  (496) 
Cc1c(C(=O)Nc2c(C#N)ccc(F)c2F)ccnc1Cl

>  <subsites>  (496) 
None

>  <rmsd(smina/fragmenstein)>  (496) 
0.982

>  <alias>  (496) 
None

>  <energy_score>  (496) 
-4.559745

>  <HIPPO Pose ID>  (496) 
65889

>  <distance_score>  (496) 
0.558791

>  <HIPPO Compound ID>  (496) 
103457

>  <gnina_score_min>  (496) 
5.212

>  <name>  (496) 
P65889

>  <exports>  (496) 
['/opt/xchem-fragalysis-2/maxwin/BulkDock/OUTPUTS/openbind_d68ev3c_c2_elabs_1LOTQJ3.sdf', '/opt/xchem-fragalysis-2/maxwin/BulkDock/OUTPUTS/openbind_d68ev3c_c2_elabs_1LSYEHW.sdf', '/opt/xchem-fragalysis-2/maxwin/BulkDock/OUTPUTS/openbind_d68ev3c_c2_elabs_1LSYI5W.sdf']

$$$$
P65890
     RDKit          3D

 21 22  0  0  0  0  0  0  0  0999 V2000
    2.8708   -0.2419   36.3464 C   0  0  0  0  0  0  0  0  0  0  0  0
    3.3854   -1.5990   36.8037 C   0  0  0  0  0  0  0  0  0  0  0  0
    2.2739   -2.6191   36.9148 C   0  0  0  0  0  0  0  0  0  0  0  0
    1.6978   -2.8104   38.1834 C   0  0  0  0  0  0  0  0  0  0  0  0
    0.7067   -3.7616   38.3724 C   0  0  0  0  0  0  0  0  0  0  0  0
    0.1676   -3.9191   39.5888 F   0  0  0  0  0  0  0  0  0  0  0  0
    0.2626   -4.5420   37.3208 C   0  0  0  0  0  0  0  0  0  0  0  0
    0.7900   -4.3401   36.0450 C   0  0  0  0  0  0  0  0  0  0  0  0
    0.2932   -5.1235   35.0074 N   0  0  0  0  0  0  0  0  0  0  0  0
   -0.1055   -6.6108   34.9791 C   0  0  0  0  0  0  0  0  0  0  0  0
   -0.1539   -7.3974   35.8396 O   0  0  0  0  0  0  0  0  0  0  0  0
   -0.5935   -7.0885   33.6341 C   0  0  0  0  0  0  0  0  0  0  0  0
   -1.5859   -8.0836   33.7337 C   0  0  0  0  0  0  0  0  0  0  0  0
   -2.1434   -8.6025   32.5896 C   0  0  0  0  0  0  0  0  0  0  0  0
   -1.8022   -8.1927   31.3607 N   0  0  0  0  0  0  0  0  0  0  0  0
   -0.8148   -7.2698   31.2777 C   0  0  0  0  0  0  0  0  0  0  0  0
   -0.5273   -6.8273   29.6369 Cl  0  0  0  0  0  0  0  0  0  0  0  0
   -0.1447   -6.6934   32.3594 C   0  0  0  0  0  0  0  0  0  0  0  0
    0.9840   -5.7419   32.0990 C   0  0  0  0  0  0  0  0  0  0  0  0
    1.7968   -3.3756   35.8157 C   0  0  0  0  0  0  0  0  0  0  0  0
    2.4435   -3.2804   34.4569 C   0  0  0  0  0  0  0  0  0  0  0  0
  1  2  1  0
  2  3  1  0
  3  4  2  0
  4  5  1  0
  5  6  1  0
  5  7  2  0
  7  8  1  0
  8  9  1  0
  9 10  1  0
 10 11  2  0
 10 12  1  0
 12 13  2  0
 13 14  1  0
 14 15  2  0
 15 16  1  0
 16 17  1  0
 16 18  2  0
 18 19  1  0
  8 20  2  0
 20 21  1  0
 20  3  1  0
 18 12  1  0
M  END
>  <ref_mols>  (497) 
7gov-a

>  <gnina_score>  (497) 
5.035

>  <smina_score_min>  (497) 
-5.881

>  <ref_pdb>  (497) 
7gov-a

>  <inspiration_score>  (497) 
None

>  <inchikey>  (497) 
RMOFRQGXIFNBQP-UHFFFAOYSA-N

>  <tags>  (497) 
BulkDock Fragalysis export,openbind_d68ev3c_c2_elabs_scored,openbind_d68ev3c_c2_elabs_scored_4.5plus,openbind_d68ev3c_c2_elabs,openbind_d68ev3c_c2_elabs_scored_5plus,syndirella_product,openbind_d68ev3c_c2_elabs_scored_top80percent,syndirella_placed

>  <smiles>  (497) 
CCc1cc(F)cc(NC(=O)c2ccnc(Cl)c2C)c1C

>  <subsites>  (497) 
None

>  <rmsd(smina/fragmenstein)>  (497) 
1.086

>  <alias>  (497) 
None

>  <energy_score>  (497) 
-19.638506

>  <HIPPO Pose ID>  (497) 
65890

>  <distance_score>  (497) 
0.48604

>  <HIPPO Compound ID>  (497) 
103461

>  <gnina_score_min>  (497) 
5.096

>  <name>  (497) 
P65890

>  <exports>  (497) 
['/opt/xchem-fragalysis-2/maxwin/BulkDock/OUTPUTS/openbind_d68ev3c_c2_elabs_1LOTQJ3.sdf', '/opt/xchem-fragalysis-2/maxwin/BulkDock/OUTPUTS/openbind_d68ev3c_c2_elabs_1LSYEHW.sdf', '/opt/xchem-fragalysis-2/maxwin/BulkDock/OUTPUTS/openbind_d68ev3c_c2_elabs_1LSYI5W.sdf']

$$$$
P65914
     RDKit          3D

 21 22  0  0  0  0  0  0  0  0999 V2000
    4.1425   -4.4461   35.0050 C   0  0  0  0  0  0  0  0  0  0  0  0
    2.7967   -3.7814   34.9274 C   0  0  0  0  0  0  0  0  0  0  0  0
    2.3154   -3.4052   33.8583 O   0  0  0  0  0  0  0  0  0  0  0  0
    2.0271   -3.5895   36.1880 C   0  0  0  0  0  0  0  0  0  0  0  0
    2.5964   -2.9084   37.2647 C   0  0  0  0  0  0  0  0  0  0  0  0
    1.8431   -2.7119   38.4237 C   0  0  0  0  0  0  0  0  0  0  0  0
    0.5238   -3.1593   38.4803 C   0  0  0  0  0  0  0  0  0  0  0  0
   -0.1666   -3.0217   39.6184 F   0  0  0  0  0  0  0  0  0  0  0  0
   -0.0799   -3.7795   37.3964 C   0  0  0  0  0  0  0  0  0  0  0  0
    0.6878   -4.0118   36.2638 C   0  0  0  0  0  0  0  0  0  0  0  0
    0.1901   -4.8415   35.2850 N   0  0  0  0  0  0  0  0  0  0  0  0
    0.6341   -6.2400   34.8456 C   0  0  0  0  0  0  0  0  0  0  0  0
    1.4420   -6.9490   35.2896 O   0  0  0  0  0  0  0  0  0  0  0  0
   -0.0550   -6.6198   33.6151 C   0  0  0  0  0  0  0  0  0  0  0  0
    0.3611   -6.1064   32.3865 C   0  0  0  0  0  0  0  0  0  0  0  0
   -0.2667   -6.5751   31.2473 C   0  0  0  0  0  0  0  0  0  0  0  0
   -1.2738   -7.4709   31.2732 N   0  0  0  0  0  0  0  0  0  0  0  0
   -1.6225   -7.9377   32.4961 C   0  0  0  0  0  0  0  0  0  0  0  0
   -3.0028   -9.1753   32.5392 Br  0  0  0  0  0  0  0  0  0  0  0  0
   -1.0577   -7.5505   33.6895 C   0  0  0  0  0  0  0  0  0  0  0  0
   -1.4751   -8.0299   34.8698 F   0  0  0  0  0  0  0  0  0  0  0  0
  1  2  1  0
  2  3  2  0
  2  4  1  0
  4  5  2  0
  5  6  1  0
  6  7  2  0
  7  8  1  0
  7  9  1  0
  9 10  2  0
 10 11  1  0
 11 12  1  0
 12 13  2  0
 12 14  1  0
 14 15  2  0
 15 16  1  0
 16 17  2  0
 17 18  1  0
 18 19  1  0
 18 20  2  0
 20 21  1  0
 10  4  1  0
 20 14  1  0
M  END
>  <ref_mols>  (498) 
7gov-a

>  <gnina_score>  (498) 
5.126

>  <smina_score_min>  (498) 
-5.373

>  <ref_pdb>  (498) 
7gov-a

>  <inspiration_score>  (498) 
None

>  <inchikey>  (498) 
AAHIXMGRUNJTTK-UHFFFAOYSA-N

>  <tags>  (498) 
BulkDock Fragalysis export,openbind_d68ev3c_c2_elabs_scored,openbind_d68ev3c_c2_elabs_scored_4.5plus,openbind_d68ev3c_c2_elabs,openbind_d68ev3c_c2_elabs_scored_5plus,syndirella_product,openbind_d68ev3c_c2_elabs_scored_top80percent,syndirella_placed

>  <smiles>  (498) 
CC(=O)c1ccc(F)cc1NC(=O)c1ccnc(Br)c1F

>  <subsites>  (498) 
None

>  <rmsd(smina/fragmenstein)>  (498) 
1.177

>  <alias>  (498) 
None

>  <energy_score>  (498) 
-2.301184

>  <HIPPO Pose ID>  (498) 
65914

>  <distance_score>  (498) 
0.691268

>  <HIPPO Compound ID>  (498) 
103500

>  <gnina_score_min>  (498) 
5.015

>  <name>  (498) 
P65914

>  <exports>  (498) 
['/opt/xchem-fragalysis-2/maxwin/BulkDock/OUTPUTS/openbind_d68ev3c_c2_elabs_1LOTQJ3.sdf', '/opt/xchem-fragalysis-2/maxwin/BulkDock/OUTPUTS/openbind_d68ev3c_c2_elabs_1LSYEHW.sdf', '/opt/xchem-fragalysis-2/maxwin/BulkDock/OUTPUTS/openbind_d68ev3c_c2_elabs_1LSYI5W.sdf']

$$$$
P65915
     RDKit          3D

 21 23  0  0  0  0  0  0  0  0999 V2000
    1.5985   -4.2870   32.7598 O   0  0  0  0  0  0  0  0  0  0  0  0
    0.8517   -4.9087   33.4112 C   0  0  0  0  0  0  0  0  0  0  0  0
    0.5401   -4.8360   34.9309 N   0  0  0  0  0  0  0  0  0  0  0  0
    1.1317   -4.0742   35.9449 C   0  0  0  0  0  0  0  0  0  0  0  0
    0.3971   -4.1093   37.1481 C   0  0  0  0  0  0  0  0  0  0  0  0
    0.8182   -3.3993   38.2595 C   0  0  0  0  0  0  0  0  0  0  0  0
    0.1028   -3.4542   39.3909 F   0  0  0  0  0  0  0  0  0  0  0  0
    1.9600   -2.6282   38.2022 C   0  0  0  0  0  0  0  0  0  0  0  0
    2.7038   -2.6079   37.0212 C   0  0  0  0  0  0  0  0  0  0  0  0
    2.3429   -3.3585   35.8752 C   0  0  0  0  0  0  0  0  0  0  0  0
    3.3081   -3.3844   34.7089 C   0  0  0  0  0  0  0  0  0  0  0  0
    4.0473   -4.6664   34.3794 C   0  0  0  0  0  0  0  0  0  0  0  0
    4.8042   -3.5047   34.9343 C   0  0  0  0  0  0  0  0  0  0  0  0
    0.0636   -5.9800   32.7221 C   0  0  0  0  0  0  0  0  0  0  0  0
    0.1065   -6.0602   31.3282 C   0  0  0  0  0  0  0  0  0  0  0  0
   -0.6294   -7.0449   30.6853 C   0  0  0  0  0  0  0  0  0  0  0  0
   -1.4274   -7.9274   31.3235 N   0  0  0  0  0  0  0  0  0  0  0  0
   -1.4106   -7.8483   32.6742 C   0  0  0  0  0  0  0  0  0  0  0  0
   -2.4402   -9.0539   33.6688 Br  0  0  0  0  0  0  0  0  0  0  0  0
   -0.6888   -6.9216   33.4024 C   0  0  0  0  0  0  0  0  0  0  0  0
   -0.7333   -6.9527   34.7454 F   0  0  0  0  0  0  0  0  0  0  0  0
  1  2  2  0
  2  3  1  0
  3  4  1  0
  4  5  2  0
  5  6  1  0
  6  7  1  0
  6  8  2  0
  8  9  1  0
  9 10  2  0
 10 11  1  0
 11 12  1  0
 12 13  1  0
  2 14  1  0
 14 15  2  0
 15 16  1  0
 16 17  2  0
 17 18  1  0
 18 19  1  0
 18 20  2  0
 20 21  1  0
 10  4  1  0
 13 11  1  0
 20 14  1  0
M  END
>  <ref_mols>  (499) 
7gov-a

>  <gnina_score>  (499) 
5.127

>  <smina_score_min>  (499) 
-4.985

>  <ref_pdb>  (499) 
7gov-a

>  <inspiration_score>  (499) 
None

>  <inchikey>  (499) 
CFFLOUFWGPKOBC-UHFFFAOYSA-N

>  <tags>  (499) 
BulkDock Fragalysis export,openbind_d68ev3c_c2_elabs_scored,openbind_d68ev3c_c2_elabs_scored_4.5plus,openbind_d68ev3c_c2_elabs,openbind_d68ev3c_c2_elabs_scored_5plus,syndirella_product,openbind_d68ev3c_c2_elabs_scored_top80percent,syndirella_placed

>  <smiles>  (499) 
O=C(Nc1cc(F)ccc1C1CC1)c1ccnc(Br)c1F

>  <subsites>  (499) 
None

>  <rmsd(smina/fragmenstein)>  (499) 
2.18

>  <alias>  (499) 
None

>  <energy_score>  (499) 
-11.026769

>  <HIPPO Pose ID>  (499) 
65915

>  <distance_score>  (499) 
1.370549

>  <HIPPO Compound ID>  (499) 
103501

>  <gnina_score_min>  (499) 
5.074

>  <name>  (499) 
P65915

>  <exports>  (499) 
['/opt/xchem-fragalysis-2/maxwin/BulkDock/OUTPUTS/openbind_d68ev3c_c2_elabs_1LOTQJ3.sdf', '/opt/xchem-fragalysis-2/maxwin/BulkDock/OUTPUTS/openbind_d68ev3c_c2_elabs_1LSYEHW.sdf', '/opt/xchem-fragalysis-2/maxwin/BulkDock/OUTPUTS/openbind_d68ev3c_c2_elabs_1LSYI5W.sdf']

$$$$
P65917
     RDKit          3D

 21 22  0  0  0  0  0  0  0  0999 V2000
    2.3390   -1.9589   33.8149 C   0  0  0  0  0  0  0  0  0  0  0  0
    2.9560   -3.0587   34.6815 C   0  0  0  0  0  0  0  0  0  0  0  0
    4.4723   -2.8564   34.7992 C   0  0  0  0  0  0  0  0  0  0  0  0
    2.2390   -3.1327   36.0239 C   0  0  0  0  0  0  0  0  0  0  0  0
    2.6266   -2.3215   37.1043 C   0  0  0  0  0  0  0  0  0  0  0  0
    2.0200   -2.4501   38.3580 C   0  0  0  0  0  0  0  0  0  0  0  0
    1.0215   -3.3930   38.5467 C   0  0  0  0  0  0  0  0  0  0  0  0
    0.4241   -3.5055   39.7403 F   0  0  0  0  0  0  0  0  0  0  0  0
    0.6129   -4.2022   37.5049 C   0  0  0  0  0  0  0  0  0  0  0  0
    1.2035   -4.0544   36.2474 C   0  0  0  0  0  0  0  0  0  0  0  0
    0.7107   -4.8220   35.2090 N   0  0  0  0  0  0  0  0  0  0  0  0
    0.0620   -6.2126   35.2176 C   0  0  0  0  0  0  0  0  0  0  0  0
   -0.2315   -6.9029   36.1079 O   0  0  0  0  0  0  0  0  0  0  0  0
   -0.3140   -6.6528   33.8509 C   0  0  0  0  0  0  0  0  0  0  0  0
    0.3425   -6.2754   32.6745 C   0  0  0  0  0  0  0  0  0  0  0  0
   -0.1217   -6.7728   31.4639 C   0  0  0  0  0  0  0  0  0  0  0  0
   -1.1654   -7.6135   31.3560 N   0  0  0  0  0  0  0  0  0  0  0  0
   -1.7372   -7.9805   32.5213 C   0  0  0  0  0  0  0  0  0  0  0  0
   -3.1317   -9.1948   32.4401 Br  0  0  0  0  0  0  0  0  0  0  0  0
   -1.3830   -7.5214   33.7670 C   0  0  0  0  0  0  0  0  0  0  0  0
   -2.1020   -7.8772   34.8445 F   0  0  0  0  0  0  0  0  0  0  0  0
  1  2  1  0
  2  3  1  0
  2  4  1  0
  4  5  2  0
  5  6  1  0
  6  7  2  0
  7  8  1  0
  7  9  1  0
  9 10  2  0
 10 11  1  0
 11 12  1  0
 12 13  2  0
 12 14  1  0
 14 15  2  0
 15 16  1  0
 16 17  2  0
 17 18  1  0
 18 19  1  0
 18 20  2  0
 20 21  1  0
 10  4  1  0
 20 14  1  0
M  END
>  <ref_mols>  (500) 
7gov-a

>  <gnina_score>  (500) 
5.179

>  <smina_score_min>  (500) 
-5.133

>  <ref_pdb>  (500) 
7gov-a

>  <inspiration_score>  (500) 
None

>  <inchikey>  (500) 
ZUHQYIBNOGRRRZ-UHFFFAOYSA-N

>  <tags>  (500) 
BulkDock Fragalysis export,openbind_d68ev3c_c2_elabs_scored,openbind_d68ev3c_c2_elabs_scored_4.5plus,openbind_d68ev3c_c2_elabs,openbind_d68ev3c_c2_elabs_scored_5plus,syndirella_product,openbind_d68ev3c_c2_elabs_scored_top80percent,syndirella_placed

>  <smiles>  (500) 
CC(C)c1ccc(F)cc1NC(=O)c1ccnc(Br)c1F

>  <subsites>  (500) 
None

>  <rmsd(smina/fragmenstein)>  (500) 
1.321

>  <alias>  (500) 
None

>  <energy_score>  (500) 
-9.440534

>  <HIPPO Pose ID>  (500) 
65917

>  <distance_score>  (500) 
0.843132

>  <HIPPO Compound ID>  (500) 
103503

>  <gnina_score_min>  (500) 
5.081

>  <name>  (500) 
P65917

>  <exports>  (500) 
['/opt/xchem-fragalysis-2/maxwin/BulkDock/OUTPUTS/openbind_d68ev3c_c2_elabs_1LOTQJ3.sdf', '/opt/xchem-fragalysis-2/maxwin/BulkDock/OUTPUTS/openbind_d68ev3c_c2_elabs_1LSYEHW.sdf', '/opt/xchem-fragalysis-2/maxwin/BulkDock/OUTPUTS/openbind_d68ev3c_c2_elabs_1LSYI5W.sdf']

$$$$
P65920
     RDKit          3D

 21 22  0  0  0  0  0  0  0  0999 V2000
    3.4330   -3.7637   33.3147 N   0  0  0  0  0  0  0  0  0  0  0  0
    2.9546   -3.7165   34.3714 C   0  0  0  0  0  0  0  0  0  0  0  0
    2.3378   -3.6162   35.6639 C   0  0  0  0  0  0  0  0  0  0  0  0
    2.9452   -2.7753   36.6130 C   0  0  0  0  0  0  0  0  0  0  0  0
    2.4169   -2.6592   37.8946 C   0  0  0  0  0  0  0  0  0  0  0  0
    1.2739   -3.3703   38.2193 C   0  0  0  0  0  0  0  0  0  0  0  0
    0.7492   -3.2115   39.4462 F   0  0  0  0  0  0  0  0  0  0  0  0
    0.6477   -4.2011   37.2836 C   0  0  0  0  0  0  0  0  0  0  0  0
   -1.0225   -4.8712   37.8351 Br  0  0  0  0  0  0  0  0  0  0  0  0
    1.1839   -4.3581   35.9916 C   0  0  0  0  0  0  0  0  0  0  0  0
    0.6044   -5.1708   34.9941 N   0  0  0  0  0  0  0  0  0  0  0  0
   -0.0895   -6.5508   35.0989 C   0  0  0  0  0  0  0  0  0  0  0  0
   -0.3578   -7.1940   36.0367 O   0  0  0  0  0  0  0  0  0  0  0  0
   -0.5743   -7.0849   33.7845 C   0  0  0  0  0  0  0  0  0  0  0  0
   -1.4627   -8.1722   33.8180 C   0  0  0  0  0  0  0  0  0  0  0  0
   -1.9693   -8.6607   32.6283 C   0  0  0  0  0  0  0  0  0  0  0  0
   -1.6512   -8.1583   31.4186 N   0  0  0  0  0  0  0  0  0  0  0  0
   -0.7599   -7.1319   31.4069 C   0  0  0  0  0  0  0  0  0  0  0  0
   -0.3106   -6.4103   29.7158 Br  0  0  0  0  0  0  0  0  0  0  0  0
   -0.2175   -6.5606   32.5495 C   0  0  0  0  0  0  0  0  0  0  0  0
    0.6034   -5.5034   32.4570 F   0  0  0  0  0  0  0  0  0  0  0  0
  1  2  3  0
  2  3  1  0
  3  4  2  0
  4  5  1  0
  5  6  2  0
  6  7  1  0
  6  8  1  0
  8  9  1  0
  8 10  2  0
 10 11  1  0
 11 12  1  0
 12 13  2  0
 12 14  1  0
 14 15  2  0
 15 16  1  0
 16 17  2  0
 17 18  1  0
 18 19  1  0
 18 20  2  0
 20 21  1  0
 10  3  1  0
 20 14  1  0
M  END
>  <ref_mols>  (501) 
7gov-a

>  <gnina_score>  (501) 
5.216

>  <smina_score_min>  (501) 
-5.192

>  <ref_pdb>  (501) 
7gov-a

>  <inspiration_score>  (501) 
None

>  <inchikey>  (501) 
RFYVLVIGCYMCHH-UHFFFAOYSA-N

>  <tags>  (501) 
BulkDock Fragalysis export,openbind_d68ev3c_c2_elabs_scored,openbind_d68ev3c_c2_elabs_scored_4.5plus,openbind_d68ev3c_c2_elabs,openbind_d68ev3c_c2_elabs_scored_5plus,syndirella_product,openbind_d68ev3c_c2_elabs_scored_top80percent,syndirella_placed

>  <smiles>  (501) 
N#Cc1ccc(F)c(Br)c1NC(=O)c1ccnc(Br)c1F

>  <subsites>  (501) 
None

>  <rmsd(smina/fragmenstein)>  (501) 
0.513

>  <alias>  (501) 
None

>  <energy_score>  (501) 
-0.075682

>  <HIPPO Pose ID>  (501) 
65920

>  <distance_score>  (501) 
0.615911

>  <HIPPO Compound ID>  (501) 
103511

>  <gnina_score_min>  (501) 
5.049

>  <name>  (501) 
P65920

>  <exports>  (501) 
['/opt/xchem-fragalysis-2/maxwin/BulkDock/OUTPUTS/openbind_d68ev3c_c2_elabs_1LOTQJ3.sdf', '/opt/xchem-fragalysis-2/maxwin/BulkDock/OUTPUTS/openbind_d68ev3c_c2_elabs_1LSYEHW.sdf', '/opt/xchem-fragalysis-2/maxwin/BulkDock/OUTPUTS/openbind_d68ev3c_c2_elabs_1LSYI5W.sdf']

$$$$
P65922
     RDKit          3D

 21 22  0  0  0  0  0  0  0  0999 V2000
    4.1777   -4.4608   34.5459 C   0  0  0  0  0  0  0  0  0  0  0  0
    3.2950   -3.2305   34.7041 C   0  0  0  0  0  0  0  0  0  0  0  0
    2.3370   -3.3418   35.8602 C   0  0  0  0  0  0  0  0  0  0  0  0
    2.7659   -2.7197   37.0615 C   0  0  0  0  0  0  0  0  0  0  0  0
    2.0216   -2.7919   38.2369 C   0  0  0  0  0  0  0  0  0  0  0  0
    2.6671   -1.9706   39.8114 Br  0  0  0  0  0  0  0  0  0  0  0  0
    0.8236   -3.4774   38.2336 C   0  0  0  0  0  0  0  0  0  0  0  0
    0.0753   -3.5754   39.3426 F   0  0  0  0  0  0  0  0  0  0  0  0
    0.3755   -4.0860   37.0682 C   0  0  0  0  0  0  0  0  0  0  0  0
    1.1199   -4.0374   35.8672 C   0  0  0  0  0  0  0  0  0  0  0  0
    0.5029   -4.7751   34.8451 N   0  0  0  0  0  0  0  0  0  0  0  0
    0.9476   -5.0366   33.3790 C   0  0  0  0  0  0  0  0  0  0  0  0
    1.8563   -4.6142   32.7758 O   0  0  0  0  0  0  0  0  0  0  0  0
    0.0868   -6.0503   32.7060 C   0  0  0  0  0  0  0  0  0  0  0  0
    0.1091   -6.1490   31.3152 C   0  0  0  0  0  0  0  0  0  0  0  0
   -0.6674   -7.1197   30.7023 C   0  0  0  0  0  0  0  0  0  0  0  0
   -1.4808   -7.9688   31.3691 N   0  0  0  0  0  0  0  0  0  0  0  0
   -1.4412   -7.8706   32.7192 C   0  0  0  0  0  0  0  0  0  0  0  0
   -2.4845   -9.0282   33.7582 Br  0  0  0  0  0  0  0  0  0  0  0  0
   -0.6809   -6.9541   33.4180 C   0  0  0  0  0  0  0  0  0  0  0  0
   -0.6974   -6.9538   34.7620 F   0  0  0  0  0  0  0  0  0  0  0  0
  1  2  1  0
  2  3  1  0
  3  4  2  0
  4  5  1  0
  5  6  1  0
  5  7  2  0
  7  8  1  0
  7  9  1  0
  9 10  2  0
 10 11  1  0
 11 12  1  0
 12 13  2  0
 12 14  1  0
 14 15  2  0
 15 16  1  0
 16 17  2  0
 17 18  1  0
 18 19  1  0
 18 20  2  0
 20 21  1  0
 10  3  1  0
 20 14  1  0
M  END
>  <ref_mols>  (502) 
7gov-a

>  <gnina_score>  (502) 
5.189

>  <smina_score_min>  (502) 
-4.955

>  <ref_pdb>  (502) 
7gov-a

>  <inspiration_score>  (502) 
None

>  <inchikey>  (502) 
KFGWYVVTTRQMOS-UHFFFAOYSA-N

>  <tags>  (502) 
BulkDock Fragalysis export,openbind_d68ev3c_c2_elabs_scored,openbind_d68ev3c_c2_elabs_scored_4.5plus,openbind_d68ev3c_c2_elabs,openbind_d68ev3c_c2_elabs_scored_5plus,syndirella_product,openbind_d68ev3c_c2_elabs_scored_top80percent,syndirella_placed

>  <smiles>  (502) 
CCc1cc(Br)c(F)cc1NC(=O)c1ccnc(Br)c1F

>  <subsites>  (502) 
None

>  <rmsd(smina/fragmenstein)>  (502) 
1.229

>  <alias>  (502) 
None

>  <energy_score>  (502) 
-13.834778

>  <HIPPO Pose ID>  (502) 
65922

>  <distance_score>  (502) 
1.321159

>  <HIPPO Compound ID>  (502) 
103519

>  <gnina_score_min>  (502) 
5.314

>  <name>  (502) 
P65922

>  <exports>  (502) 
['/opt/xchem-fragalysis-2/maxwin/BulkDock/OUTPUTS/openbind_d68ev3c_c2_elabs_1LOTQJ3.sdf', '/opt/xchem-fragalysis-2/maxwin/BulkDock/OUTPUTS/openbind_d68ev3c_c2_elabs_1LSYEHW.sdf', '/opt/xchem-fragalysis-2/maxwin/BulkDock/OUTPUTS/openbind_d68ev3c_c2_elabs_1LSYI5W.sdf']

$$$$
P65924
     RDKit          3D

 21 22  0  0  0  0  0  0  0  0999 V2000
    3.3466   -3.7975   33.6047 C   0  0  0  0  0  0  0  0  0  0  0  0
    2.7589   -3.7696   34.6516 C   0  0  0  0  0  0  0  0  0  0  0  0
    2.0515   -3.7403   35.9011 C   0  0  0  0  0  0  0  0  0  0  0  0
    2.4919   -2.8604   36.8948 C   0  0  0  0  0  0  0  0  0  0  0  0
    1.8372   -2.8259   38.1204 C   0  0  0  0  0  0  0  0  0  0  0  0
    2.2666   -1.9830   39.0707 F   0  0  0  0  0  0  0  0  0  0  0  0
    0.7428   -3.6473   38.3587 C   0  0  0  0  0  0  0  0  0  0  0  0
    0.1114   -3.6011   39.5402 F   0  0  0  0  0  0  0  0  0  0  0  0
    0.2883   -4.5228   37.3788 C   0  0  0  0  0  0  0  0  0  0  0  0
    0.9476   -4.5827   36.1479 C   0  0  0  0  0  0  0  0  0  0  0  0
    0.5170   -5.4672   35.1570 N   0  0  0  0  0  0  0  0  0  0  0  0
   -0.6435   -6.4857   35.1569 C   0  0  0  0  0  0  0  0  0  0  0  0
   -1.3743   -6.8008   36.0118 O   0  0  0  0  0  0  0  0  0  0  0  0
   -0.8704   -7.1199   33.8241 C   0  0  0  0  0  0  0  0  0  0  0  0
   -1.6555   -8.2787   33.7847 C   0  0  0  0  0  0  0  0  0  0  0  0
   -1.9997   -8.7995   32.5532 C   0  0  0  0  0  0  0  0  0  0  0  0
   -1.6135   -8.2639   31.3768 N   0  0  0  0  0  0  0  0  0  0  0  0
   -0.8118   -7.1698   31.4422 C   0  0  0  0  0  0  0  0  0  0  0  0
   -0.2816   -6.3860   29.8037 Br  0  0  0  0  0  0  0  0  0  0  0  0
   -0.4305   -6.5650   32.6283 C   0  0  0  0  0  0  0  0  0  0  0  0
    0.3007   -5.4400   32.6110 F   0  0  0  0  0  0  0  0  0  0  0  0
  1  2  3  0
  2  3  1  0
  3  4  2  0
  4  5  1  0
  5  6  1  0
  5  7  2  0
  7  8  1  0
  7  9  1  0
  9 10  2  0
 10 11  1  0
 11 12  1  0
 12 13  2  0
 12 14  1  0
 14 15  2  0
 15 16  1  0
 16 17  2  0
 17 18  1  0
 18 19  1  0
 18 20  2  0
 20 21  1  0
 10  3  1  0
 20 14  1  0
M  END
>  <ref_mols>  (503) 
7gov-a

>  <gnina_score>  (503) 
5.135

>  <smina_score_min>  (503) 
-5.756

>  <ref_pdb>  (503) 
7gov-a

>  <inspiration_score>  (503) 
None

>  <inchikey>  (503) 
SSUJUTXMBMQTJW-UHFFFAOYSA-N

>  <tags>  (503) 
BulkDock Fragalysis export,openbind_d68ev3c_c2_elabs_scored,openbind_d68ev3c_c2_elabs_scored_4.5plus,openbind_d68ev3c_c2_elabs,openbind_d68ev3c_c2_elabs_scored_5plus,syndirella_product,openbind_d68ev3c_c2_elabs_scored_top80percent,syndirella_placed

>  <smiles>  (503) 
C#Cc1cc(F)c(F)cc1NC(=O)c1ccnc(Br)c1F

>  <subsites>  (503) 
None

>  <rmsd(smina/fragmenstein)>  (503) 
1.101

>  <alias>  (503) 
None

>  <energy_score>  (503) 
-16.866132

>  <HIPPO Pose ID>  (503) 
65924

>  <distance_score>  (503) 
0.728209

>  <HIPPO Compound ID>  (503) 
103521

>  <gnina_score_min>  (503) 
5.042

>  <name>  (503) 
P65924

>  <exports>  (503) 
['/opt/xchem-fragalysis-2/maxwin/BulkDock/OUTPUTS/openbind_d68ev3c_c2_elabs_1LOTQJ3.sdf', '/opt/xchem-fragalysis-2/maxwin/BulkDock/OUTPUTS/openbind_d68ev3c_c2_elabs_1LSYEHW.sdf', '/opt/xchem-fragalysis-2/maxwin/BulkDock/OUTPUTS/openbind_d68ev3c_c2_elabs_1LSYI5W.sdf']

$$$$
P65925
     RDKit          3D

 21 22  0  0  0  0  0  0  0  0999 V2000
    2.5513   -3.5986   33.7572 O   0  0  0  0  0  0  0  0  0  0  0  0
    3.0273   -3.1452   34.7937 C   0  0  0  0  0  0  0  0  0  0  0  0
    2.3321   -3.2279   36.1003 C   0  0  0  0  0  0  0  0  0  0  0  0
    2.8328   -2.4949   37.1789 C   0  0  0  0  0  0  0  0  0  0  0  0
    2.2125   -2.5986   38.4280 C   0  0  0  0  0  0  0  0  0  0  0  0
    2.8366   -1.6882   39.7510 Cl  0  0  0  0  0  0  0  0  0  0  0  0
    1.1036   -3.4257   38.5986 C   0  0  0  0  0  0  0  0  0  0  0  0
    0.4791   -3.5139   39.7818 F   0  0  0  0  0  0  0  0  0  0  0  0
    0.6164   -4.1705   37.5376 C   0  0  0  0  0  0  0  0  0  0  0  0
    1.2319   -4.0692   36.2892 C   0  0  0  0  0  0  0  0  0  0  0  0
    0.7433   -4.8258   35.2437 N   0  0  0  0  0  0  0  0  0  0  0  0
   -0.0189   -6.1562   35.2476 C   0  0  0  0  0  0  0  0  0  0  0  0
   -0.4248   -6.7907   36.1351 O   0  0  0  0  0  0  0  0  0  0  0  0
   -0.3448   -6.6225   33.8685 C   0  0  0  0  0  0  0  0  0  0  0  0
    0.3236   -6.2548   32.6943 C   0  0  0  0  0  0  0  0  0  0  0  0
   -0.1170   -6.7675   31.4799 C   0  0  0  0  0  0  0  0  0  0  0  0
   -1.1495   -7.6195   31.3608 N   0  0  0  0  0  0  0  0  0  0  0  0
   -1.7333   -7.9799   32.5203 C   0  0  0  0  0  0  0  0  0  0  0  0
   -3.1199   -9.2024   32.4308 Br  0  0  0  0  0  0  0  0  0  0  0  0
   -1.4022   -7.5069   33.7681 C   0  0  0  0  0  0  0  0  0  0  0  0
   -2.1390   -7.8697   34.8317 F   0  0  0  0  0  0  0  0  0  0  0  0
  1  2  2  0
  2  3  1  0
  3  4  2  0
  4  5  1  0
  5  6  1  0
  5  7  2  0
  7  8  1  0
  7  9  1  0
  9 10  2  0
 10 11  1  0
 11 12  1  0
 12 13  2  0
 12 14  1  0
 14 15  2  0
 15 16  1  0
 16 17  2  0
 17 18  1  0
 18 19  1  0
 18 20  2  0
 20 21  1  0
 10  3  1  0
 20 14  1  0
M  END
>  <ref_mols>  (504) 
7gov-a

>  <gnina_score>  (504) 
5.146

>  <smina_score_min>  (504) 
-5.222

>  <ref_pdb>  (504) 
7gov-a

>  <inspiration_score>  (504) 
None

>  <inchikey>  (504) 
VJSOIZSQMWERIF-UHFFFAOYSA-N

>  <tags>  (504) 
BulkDock Fragalysis export,openbind_d68ev3c_c2_elabs_scored,openbind_d68ev3c_c2_elabs_scored_4.5plus,openbind_d68ev3c_c2_elabs,openbind_d68ev3c_c2_elabs_scored_5plus,syndirella_product,openbind_d68ev3c_c2_elabs_scored_top80percent,syndirella_placed

>  <smiles>  (504) 
O=Cc1cc(Cl)c(F)cc1NC(=O)c1ccnc(Br)c1F

>  <subsites>  (504) 
None

>  <rmsd(smina/fragmenstein)>  (504) 
1.372

>  <alias>  (504) 
None

>  <energy_score>  (504) 
-12.787376

>  <HIPPO Pose ID>  (504) 
65925

>  <distance_score>  (504) 
0.870895

>  <HIPPO Compound ID>  (504) 
103523

>  <gnina_score_min>  (504) 
5.034

>  <name>  (504) 
P65925

>  <exports>  (504) 
['/opt/xchem-fragalysis-2/maxwin/BulkDock/OUTPUTS/openbind_d68ev3c_c2_elabs_1LOTQJ3.sdf', '/opt/xchem-fragalysis-2/maxwin/BulkDock/OUTPUTS/openbind_d68ev3c_c2_elabs_1LSYEHW.sdf', '/opt/xchem-fragalysis-2/maxwin/BulkDock/OUTPUTS/openbind_d68ev3c_c2_elabs_1LSYI5W.sdf']

$$$$
P65927
     RDKit          3D

 21 22  0  0  0  0  0  0  0  0999 V2000
    3.8085   -2.0904   34.4693 O   0  0  0  0  0  0  0  0  0  0  0  0
    3.1337   -3.0789   34.7331 C   0  0  0  0  0  0  0  0  0  0  0  0
    2.3424   -3.1724   35.9751 C   0  0  0  0  0  0  0  0  0  0  0  0
    2.6907   -2.3706   37.0675 C   0  0  0  0  0  0  0  0  0  0  0  0
    2.0299   -2.5394   38.2861 C   0  0  0  0  0  0  0  0  0  0  0  0
    2.5146   -1.4598   39.7614 Br  0  0  0  0  0  0  0  0  0  0  0  0
    1.0295   -3.4997   38.4125 C   0  0  0  0  0  0  0  0  0  0  0  0
    0.3662   -3.6606   39.5671 F   0  0  0  0  0  0  0  0  0  0  0  0
    0.6855   -4.3006   37.3317 C   0  0  0  0  0  0  0  0  0  0  0  0
    1.3335   -4.1277   36.1045 C   0  0  0  0  0  0  0  0  0  0  0  0
    0.9159   -4.9023   35.0339 N   0  0  0  0  0  0  0  0  0  0  0  0
    0.3894   -6.3417   34.9911 C   0  0  0  0  0  0  0  0  0  0  0  0
    0.2935   -7.1352   35.8366 O   0  0  0  0  0  0  0  0  0  0  0  0
   -0.1522   -6.6951   33.6596 C   0  0  0  0  0  0  0  0  0  0  0  0
    0.3918   -6.2877   32.4390 C   0  0  0  0  0  0  0  0  0  0  0  0
   -0.1912   -6.7563   31.2694 C   0  0  0  0  0  0  0  0  0  0  0  0
   -1.2510   -7.5861   31.2441 N   0  0  0  0  0  0  0  0  0  0  0  0
   -1.7233   -7.9679   32.4497 C   0  0  0  0  0  0  0  0  0  0  0  0
   -3.1291   -9.1752   32.4731 Br  0  0  0  0  0  0  0  0  0  0  0  0
   -1.2455   -7.5381   33.6634 C   0  0  0  0  0  0  0  0  0  0  0  0
   -1.8545   -7.9051   34.8025 F   0  0  0  0  0  0  0  0  0  0  0  0
  1  2  2  0
  2  3  1  0
  3  4  2  0
  4  5  1  0
  5  6  1  0
  5  7  2  0
  7  8  1  0
  7  9  1  0
  9 10  2  0
 10 11  1  0
 11 12  1  0
 12 13  2  0
 12 14  1  0
 14 15  2  0
 15 16  1  0
 16 17  2  0
 17 18  1  0
 18 19  1  0
 18 20  2  0
 20 21  1  0
 10  3  1  0
 20 14  1  0
M  END
>  <ref_mols>  (505) 
7gov-a

>  <gnina_score>  (505) 
5.159

>  <smina_score_min>  (505) 
-5.442

>  <ref_pdb>  (505) 
7gov-a

>  <inspiration_score>  (505) 
None

>  <inchikey>  (505) 
XIRPCPOLWULGQT-UHFFFAOYSA-N

>  <tags>  (505) 
BulkDock Fragalysis export,openbind_d68ev3c_c2_elabs_scored,openbind_d68ev3c_c2_elabs_scored_4.5plus,openbind_d68ev3c_c2_elabs,openbind_d68ev3c_c2_elabs_scored_5plus,syndirella_product,openbind_d68ev3c_c2_elabs_scored_top80percent,syndirella_placed

>  <smiles>  (505) 
O=Cc1cc(Br)c(F)cc1NC(=O)c1ccnc(Br)c1F

>  <subsites>  (505) 
None

>  <rmsd(smina/fragmenstein)>  (505) 
1.503

>  <alias>  (505) 
None

>  <energy_score>  (505) 
-5.3113

>  <HIPPO Pose ID>  (505) 
65927

>  <distance_score>  (505) 
0.757751

>  <HIPPO Compound ID>  (505) 
103525

>  <gnina_score_min>  (505) 
5.071

>  <name>  (505) 
P65927

>  <exports>  (505) 
['/opt/xchem-fragalysis-2/maxwin/BulkDock/OUTPUTS/openbind_d68ev3c_c2_elabs_1LOTQJ3.sdf', '/opt/xchem-fragalysis-2/maxwin/BulkDock/OUTPUTS/openbind_d68ev3c_c2_elabs_1LSYEHW.sdf', '/opt/xchem-fragalysis-2/maxwin/BulkDock/OUTPUTS/openbind_d68ev3c_c2_elabs_1LSYI5W.sdf']

$$$$
P65928
     RDKit          3D

 21 22  0  0  0  0  0  0  0  0999 V2000
    3.1091    0.0835   36.3623 C   0  0  0  0  0  0  0  0  0  0  0  0
    3.6465   -1.1946   36.9896 C   0  0  0  0  0  0  0  0  0  0  0  0
    2.5968   -2.2810   37.0569 C   0  0  0  0  0  0  0  0  0  0  0  0
    1.9403   -2.4762   38.2884 C   0  0  0  0  0  0  0  0  0  0  0  0
    0.9778   -3.4654   38.4326 C   0  0  0  0  0  0  0  0  0  0  0  0
    0.3553   -3.6218   39.6088 F   0  0  0  0  0  0  0  0  0  0  0  0
    0.6408   -4.2780   37.3699 C   0  0  0  0  0  0  0  0  0  0  0  0
    1.2612   -4.0787   36.1362 C   0  0  0  0  0  0  0  0  0  0  0  0
    0.8695   -4.8731   35.0718 N   0  0  0  0  0  0  0  0  0  0  0  0
    0.3239   -6.3068   35.0458 C   0  0  0  0  0  0  0  0  0  0  0  0
    0.1880   -7.0784   35.9069 O   0  0  0  0  0  0  0  0  0  0  0  0
   -0.1791   -6.6830   33.7048 C   0  0  0  0  0  0  0  0  0  0  0  0
    0.3884   -6.2803   32.4930 C   0  0  0  0  0  0  0  0  0  0  0  0
   -0.1691   -6.7543   31.3131 C   0  0  0  0  0  0  0  0  0  0  0  0
   -1.2254   -7.5874   31.2680 N   0  0  0  0  0  0  0  0  0  0  0  0
   -1.7184   -7.9674   32.4660 C   0  0  0  0  0  0  0  0  0  0  0  0
   -3.1213   -9.1783   32.4648 Br  0  0  0  0  0  0  0  0  0  0  0  0
   -1.2671   -7.5325   33.6885 C   0  0  0  0  0  0  0  0  0  0  0  0
   -1.9006   -7.8998   34.8142 F   0  0  0  0  0  0  0  0  0  0  0  0
    2.2450   -3.0896   35.9526 C   0  0  0  0  0  0  0  0  0  0  0  0
    2.9432   -3.0013   34.6194 C   0  0  0  0  0  0  0  0  0  0  0  0
  1  2  1  0
  2  3  1  0
  3  4  2  0
  4  5  1  0
  5  6  1  0
  5  7  2  0
  7  8  1  0
  8  9  1  0
  9 10  1  0
 10 11  2  0
 10 12  1  0
 12 13  2  0
 13 14  1  0
 14 15  2  0
 15 16  1  0
 16 17  1  0
 16 18  2  0
 18 19  1  0
  8 20  2  0
 20 21  1  0
 20  3  1  0
 18 12  1  0
M  END
>  <ref_mols>  (506) 
7gov-a

>  <gnina_score>  (506) 
5.126

>  <smina_score_min>  (506) 
-5.17

>  <ref_pdb>  (506) 
7gov-a

>  <inspiration_score>  (506) 
None

>  <inchikey>  (506) 
ZHTOEWAINWNKRZ-UHFFFAOYSA-N

>  <tags>  (506) 
BulkDock Fragalysis export,openbind_d68ev3c_c2_elabs_scored,openbind_d68ev3c_c2_elabs_scored_4.5plus,openbind_d68ev3c_c2_elabs,openbind_d68ev3c_c2_elabs_scored_5plus,syndirella_product,openbind_d68ev3c_c2_elabs_scored_top80percent,syndirella_placed

>  <smiles>  (506) 
CCc1cc(F)cc(NC(=O)c2ccnc(Br)c2F)c1C

>  <subsites>  (506) 
None

>  <rmsd(smina/fragmenstein)>  (506) 
1.454

>  <alias>  (506) 
None

>  <energy_score>  (506) 
-9.288257

>  <HIPPO Pose ID>  (506) 
65928

>  <distance_score>  (506) 
0.778993

>  <HIPPO Compound ID>  (506) 
103527

>  <gnina_score_min>  (506) 
5.066

>  <name>  (506) 
P65928

>  <exports>  (506) 
['/opt/xchem-fragalysis-2/maxwin/BulkDock/OUTPUTS/openbind_d68ev3c_c2_elabs_1LOTQJ3.sdf', '/opt/xchem-fragalysis-2/maxwin/BulkDock/OUTPUTS/openbind_d68ev3c_c2_elabs_1LSYEHW.sdf', '/opt/xchem-fragalysis-2/maxwin/BulkDock/OUTPUTS/openbind_d68ev3c_c2_elabs_1LSYI5W.sdf']

$$$$
P65932
     RDKit          3D

 21 22  0  0  0  0  0  0  0  0999 V2000
    3.4850   -3.6164   33.2740 N   0  0  0  0  0  0  0  0  0  0  0  0
    3.0035   -3.6068   34.3308 C   0  0  0  0  0  0  0  0  0  0  0  0
    2.3842   -3.5434   35.6235 C   0  0  0  0  0  0  0  0  0  0  0  0
    2.9674   -2.7149   36.5979 C   0  0  0  0  0  0  0  0  0  0  0  0
    2.4256   -2.6372   37.8790 C   0  0  0  0  0  0  0  0  0  0  0  0
    1.2940   -3.3770   38.1819 C   0  0  0  0  0  0  0  0  0  0  0  0
    0.7532   -3.2521   39.4057 F   0  0  0  0  0  0  0  0  0  0  0  0
    0.6973   -4.2006   37.2237 C   0  0  0  0  0  0  0  0  0  0  0  0
   -0.9635   -4.9381   37.7292 Br  0  0  0  0  0  0  0  0  0  0  0  0
    1.2483   -4.3122   35.9314 C   0  0  0  0  0  0  0  0  0  0  0  0
    0.6709   -5.1157   34.9317 N   0  0  0  0  0  0  0  0  0  0  0  0
    0.0925   -6.5458   35.0038 C   0  0  0  0  0  0  0  0  0  0  0  0
   -0.0660   -7.2525   35.9194 O   0  0  0  0  0  0  0  0  0  0  0  0
   -0.4289   -7.0428   33.6987 C   0  0  0  0  0  0  0  0  0  0  0  0
   -1.4269   -8.0201   33.7585 C   0  0  0  0  0  0  0  0  0  0  0  0
   -2.0382   -8.3798   32.5826 C   0  0  0  0  0  0  0  0  0  0  0  0
   -3.1600   -9.1354   32.6351 O   0  0  0  0  0  0  0  0  0  0  0  0
   -1.7242   -7.9214   31.3601 N   0  0  0  0  0  0  0  0  0  0  0  0
   -0.6939   -7.0379   31.3264 C   0  0  0  0  0  0  0  0  0  0  0  0
   -0.0539   -6.5493   32.4563 C   0  0  0  0  0  0  0  0  0  0  0  0
    0.8694   -5.5872   32.3296 F   0  0  0  0  0  0  0  0  0  0  0  0
  1  2  3  0
  2  3  1  0
  3  4  2  0
  4  5  1  0
  5  6  2  0
  6  7  1  0
  6  8  1  0
  8  9  1  0
  8 10  2  0
 10 11  1  0
 11 12  1  0
 12 13  2  0
 12 14  1  0
 14 15  2  0
 15 16  1  0
 16 17  1  0
 16 18  2  0
 18 19  1  0
 19 20  2  0
 20 21  1  0
 10  3  1  0
 20 14  1  0
M  END
>  <ref_mols>  (507) 
7gov-a

>  <gnina_score>  (507) 
4.737

>  <smina_score_min>  (507) 
-6.407

>  <ref_pdb>  (507) 
7gov-a

>  <inspiration_score>  (507) 
None

>  <inchikey>  (507) 
YKUZIRPDBOJHNZ-UHFFFAOYSA-N

>  <tags>  (507) 
BulkDock Fragalysis export,openbind_d68ev3c_c2_elabs_scored,openbind_d68ev3c_c2_elabs_scored_4.5plus,openbind_d68ev3c_c2_elabs,openbind_d68ev3c_c2_elabs_scored_5plus,syndirella_product,openbind_d68ev3c_c2_elabs_scored_top80percent,syndirella_placed

>  <smiles>  (507) 
N#Cc1ccc(F)c(Br)c1NC(=O)c1cc(O)ncc1F

>  <subsites>  (507) 
None

>  <rmsd(smina/fragmenstein)>  (507) 
2.143

>  <alias>  (507) 
None

>  <energy_score>  (507) 
-12.112942

>  <HIPPO Pose ID>  (507) 
65932

>  <distance_score>  (507) 
0.605258

>  <HIPPO Compound ID>  (507) 
103535

>  <gnina_score_min>  (507) 
5.067

>  <name>  (507) 
P65932

>  <exports>  (507) 
['/opt/xchem-fragalysis-2/maxwin/BulkDock/OUTPUTS/openbind_d68ev3c_c2_elabs_1LOTQJ3.sdf', '/opt/xchem-fragalysis-2/maxwin/BulkDock/OUTPUTS/openbind_d68ev3c_c2_elabs_1LSYEHW.sdf', '/opt/xchem-fragalysis-2/maxwin/BulkDock/OUTPUTS/openbind_d68ev3c_c2_elabs_1LSYI5W.sdf']

$$$$
P65942
     RDKit          3D

 21 22  0  0  0  0  0  0  0  0999 V2000
    3.2844   -3.7557   33.6360 N   0  0  0  0  0  0  0  0  0  0  0  0
    2.7447   -3.7553   34.6637 C   0  0  0  0  0  0  0  0  0  0  0  0
    2.0462   -3.7330   35.9184 C   0  0  0  0  0  0  0  0  0  0  0  0
    2.5222   -2.8688   36.9201 C   0  0  0  0  0  0  0  0  0  0  0  0
    1.8961   -2.8189   38.1635 C   0  0  0  0  0  0  0  0  0  0  0  0
    0.7980   -3.6326   38.4015 C   0  0  0  0  0  0  0  0  0  0  0  0
    0.1939   -3.5797   39.5970 F   0  0  0  0  0  0  0  0  0  0  0  0
    0.3132   -4.4900   37.4173 C   0  0  0  0  0  0  0  0  0  0  0  0
   -0.7661   -5.2213   37.7192 F   0  0  0  0  0  0  0  0  0  0  0  0
    0.9251   -4.5561   36.1576 C   0  0  0  0  0  0  0  0  0  0  0  0
    0.4418   -5.3751   35.1206 N   0  0  0  0  0  0  0  0  0  0  0  0
   -0.6299   -6.4910   35.1377 C   0  0  0  0  0  0  0  0  0  0  0  0
   -1.3332   -6.8522   35.9976 O   0  0  0  0  0  0  0  0  0  0  0  0
   -0.8494   -7.1273   33.8037 C   0  0  0  0  0  0  0  0  0  0  0  0
   -1.6306   -8.2897   33.7662 C   0  0  0  0  0  0  0  0  0  0  0  0
   -1.9813   -8.8101   32.5369 C   0  0  0  0  0  0  0  0  0  0  0  0
   -1.6031   -8.2723   31.3596 N   0  0  0  0  0  0  0  0  0  0  0  0
   -0.8026   -7.1770   31.4211 C   0  0  0  0  0  0  0  0  0  0  0  0
   -0.2872   -6.3914   29.7789 Br  0  0  0  0  0  0  0  0  0  0  0  0
   -0.4173   -6.5712   32.6057 C   0  0  0  0  0  0  0  0  0  0  0  0
    0.3047   -5.4405   32.5860 F   0  0  0  0  0  0  0  0  0  0  0  0
  1  2  3  0
  2  3  1  0
  3  4  2  0
  4  5  1  0
  5  6  2  0
  6  7  1  0
  6  8  1  0
  8  9  1  0
  8 10  2  0
 10 11  1  0
 11 12  1  0
 12 13  2  0
 12 14  1  0
 14 15  2  0
 15 16  1  0
 16 17  2  0
 17 18  1  0
 18 19  1  0
 18 20  2  0
 20 21  1  0
 10  3  1  0
 20 14  1  0
M  END
>  <ref_mols>  (508) 
7gov-a

>  <gnina_score>  (508) 
5.144

>  <smina_score_min>  (508) 
-5.602

>  <ref_pdb>  (508) 
7gov-a

>  <inspiration_score>  (508) 
None

>  <inchikey>  (508) 
VVDQISWFZNRMDH-UHFFFAOYSA-N

>  <tags>  (508) 
BulkDock Fragalysis export,openbind_d68ev3c_c2_elabs_scored,openbind_d68ev3c_c2_elabs_scored_4.5plus,openbind_d68ev3c_c2_elabs,openbind_d68ev3c_c2_elabs_scored_5plus,syndirella_product,openbind_d68ev3c_c2_elabs_scored_top80percent,syndirella_placed

>  <smiles>  (508) 
N#Cc1ccc(F)c(F)c1NC(=O)c1ccnc(Br)c1F

>  <subsites>  (508) 
None

>  <rmsd(smina/fragmenstein)>  (508) 
0.853

>  <alias>  (508) 
None

>  <energy_score>  (508) 
-7.174481

>  <HIPPO Pose ID>  (508) 
65942

>  <distance_score>  (508) 
0.713794

>  <HIPPO Compound ID>  (508) 
103551

>  <gnina_score_min>  (508) 
5.001

>  <name>  (508) 
P65942

>  <exports>  (508) 
['/opt/xchem-fragalysis-2/maxwin/BulkDock/OUTPUTS/openbind_d68ev3c_c2_elabs_1LOTQJ3.sdf', '/opt/xchem-fragalysis-2/maxwin/BulkDock/OUTPUTS/openbind_d68ev3c_c2_elabs_1LSYEHW.sdf', '/opt/xchem-fragalysis-2/maxwin/BulkDock/OUTPUTS/openbind_d68ev3c_c2_elabs_1LSYI5W.sdf']

$$$$
P65949
     RDKit          3D

 21 22  0  0  0  0  0  0  0  0999 V2000
   -0.1128   -6.3528   30.0514 C   0  0  0  0  0  0  0  0  0  0  0  0
   -0.6409   -7.0050   31.2942 C   0  0  0  0  0  0  0  0  0  0  0  0
   -0.1166   -6.6361   32.5258 C   0  0  0  0  0  0  0  0  0  0  0  0
   -0.6840   -7.1479   33.6975 C   0  0  0  0  0  0  0  0  0  0  0  0
   -0.1565   -6.7164   35.0362 C   0  0  0  0  0  0  0  0  0  0  0  0
   -0.1683   -7.5011   35.8963 O   0  0  0  0  0  0  0  0  0  0  0  0
    0.2564   -5.2309   35.0447 N   0  0  0  0  0  0  0  0  0  0  0  0
    0.8131   -4.4505   36.0596 C   0  0  0  0  0  0  0  0  0  0  0  0
    1.8454   -3.5403   35.7859 C   0  0  0  0  0  0  0  0  0  0  0  0
    2.4231   -3.4523   34.4760 C   0  0  0  0  0  0  0  0  0  0  0  0
    2.8366   -3.3679   33.3945 N   0  0  0  0  0  0  0  0  0  0  0  0
    2.3658   -2.7443   36.8185 C   0  0  0  0  0  0  0  0  0  0  0  0
    1.8488   -2.8422   38.1124 C   0  0  0  0  0  0  0  0  0  0  0  0
    0.8250   -3.7451   38.3747 C   0  0  0  0  0  0  0  0  0  0  0  0
    0.3076   -3.8084   39.6094 F   0  0  0  0  0  0  0  0  0  0  0  0
    0.3192   -4.5553   37.3652 C   0  0  0  0  0  0  0  0  0  0  0  0
   -0.7024   -5.3787   37.6472 F   0  0  0  0  0  0  0  0  0  0  0  0
   -1.7232   -8.0831   33.5937 C   0  0  0  0  0  0  0  0  0  0  0  0
   -2.4180   -8.7805   34.7198 C   0  0  0  0  0  0  0  0  0  0  0  0
   -2.1369   -8.4239   32.3145 C   0  0  0  0  0  0  0  0  0  0  0  0
   -1.6607   -7.8838   31.1721 N   0  0  0  0  0  0  0  0  0  0  0  0
  1  2  1  0
  2  3  2  0
  3  4  1  0
  4  5  1  0
  5  6  2  0
  5  7  1  0
  7  8  1  0
  8  9  2  0
  9 10  1  0
 10 11  3  0
  9 12  1  0
 12 13  2  0
 13 14  1  0
 14 15  1  0
 14 16  2  0
 16 17  1  0
  4 18  2  0
 18 19  1  0
 18 20  1  0
 20 21  2  0
 21  2  1  0
 16  8  1  0
M  END
>  <ref_mols>  (509) 
7gov-a

>  <gnina_score>  (509) 
5.037

>  <smina_score_min>  (509) 
-5.433

>  <ref_pdb>  (509) 
7gov-a

>  <inspiration_score>  (509) 
None

>  <inchikey>  (509) 
KGDKOHUQTHXOCH-UHFFFAOYSA-N

>  <tags>  (509) 
BulkDock Fragalysis export,openbind_d68ev3c_c2_elabs_scored,openbind_d68ev3c_c2_elabs_scored_4.5plus,openbind_d68ev3c_c2_elabs,openbind_d68ev3c_c2_elabs_scored_5plus,syndirella_product,openbind_d68ev3c_c2_elabs_scored_top80percent,syndirella_placed

>  <smiles>  (509) 
Cc1cc(C(=O)Nc2c(C#N)ccc(F)c2F)c(C)cn1

>  <subsites>  (509) 
None

>  <rmsd(smina/fragmenstein)>  (509) 
1.178

>  <alias>  (509) 
None

>  <energy_score>  (509) 
-5.016319

>  <HIPPO Pose ID>  (509) 
65949

>  <distance_score>  (509) 
0.518348

>  <HIPPO Compound ID>  (509) 
103562

>  <gnina_score_min>  (509) 
5.085

>  <name>  (509) 
P65949

>  <exports>  (509) 
['/opt/xchem-fragalysis-2/maxwin/BulkDock/OUTPUTS/openbind_d68ev3c_c2_elabs_1LOTQJ3.sdf', '/opt/xchem-fragalysis-2/maxwin/BulkDock/OUTPUTS/openbind_d68ev3c_c2_elabs_1LSYEHW.sdf', '/opt/xchem-fragalysis-2/maxwin/BulkDock/OUTPUTS/openbind_d68ev3c_c2_elabs_1LSYI5W.sdf']

$$$$
P65977
     RDKit          3D

 21 23  0  0  0  0  0  0  0  0999 V2000
   -1.9063   -8.0907   34.9203 C   0  0  0  0  0  0  0  0  0  0  0  0
   -1.3065   -7.6225   33.6317 C   0  0  0  0  0  0  0  0  0  0  0  0
   -0.1929   -6.7782   33.5757 C   0  0  0  0  0  0  0  0  0  0  0  0
    0.4503   -6.3871   34.8618 C   0  0  0  0  0  0  0  0  0  0  0  0
    0.5737   -7.2099   35.6766 O   0  0  0  0  0  0  0  0  0  0  0  0
    0.7558   -4.8847   34.9112 N   0  0  0  0  0  0  0  0  0  0  0  0
    1.1733   -4.0851   35.9627 C   0  0  0  0  0  0  0  0  0  0  0  0
    0.6701   -4.3622   37.2383 C   0  0  0  0  0  0  0  0  0  0  0  0
    1.0046   -3.5371   38.2970 C   0  0  0  0  0  0  0  0  0  0  0  0
    0.4717   -3.7604   39.5063 F   0  0  0  0  0  0  0  0  0  0  0  0
    1.8603   -2.4638   38.1087 C   0  0  0  0  0  0  0  0  0  0  0  0
    2.3750   -2.2070   36.8335 C   0  0  0  0  0  0  0  0  0  0  0  0
    2.0414   -3.0073   35.7244 C   0  0  0  0  0  0  0  0  0  0  0  0
    2.6317   -2.7259   34.3572 C   0  0  0  0  0  0  0  0  0  0  0  0
    4.1260   -2.5469   34.2005 C   0  0  0  0  0  0  0  0  0  0  0  0
    3.4665   -3.7754   33.6562 C   0  0  0  0  0  0  0  0  0  0  0  0
    0.3151   -6.3690   32.3423 C   0  0  0  0  0  0  0  0  0  0  0  0
   -0.2962   -6.8443   31.1948 C   0  0  0  0  0  0  0  0  0  0  0  0
   -1.3499   -7.6816   31.2007 N   0  0  0  0  0  0  0  0  0  0  0  0
   -1.7889   -8.0625   32.4169 C   0  0  0  0  0  0  0  0  0  0  0  0
   -3.0419   -9.2014   32.3297 Cl  0  0  0  0  0  0  0  0  0  0  0  0
  1  2  1  0
  2  3  2  0
  3  4  1  0
  4  5  2  0
  4  6  1  0
  6  7  1  0
  7  8  2  0
  8  9  1  0
  9 10  1  0
  9 11  2  0
 11 12  1  0
 12 13  2  0
 13 14  1  0
 14 15  1  0
 15 16  1  0
  3 17  1  0
 17 18  2  0
 18 19  1  0
 19 20  2  0
 20 21  1  0
 20  2  1  0
 13  7  1  0
 16 14  1  0
M  END
>  <ref_mols>  (510) 
7gov-a

>  <gnina_score>  (510) 
5.069

>  <smina_score_min>  (510) 
-5.265

>  <ref_pdb>  (510) 
7gov-a

>  <inspiration_score>  (510) 
None

>  <inchikey>  (510) 
MMSYJRCKLBWSFS-UHFFFAOYSA-N

>  <tags>  (510) 
BulkDock Fragalysis export,openbind_d68ev3c_c2_elabs_scored,openbind_d68ev3c_c2_elabs_scored_4.5plus,openbind_d68ev3c_c2_elabs,openbind_d68ev3c_c2_elabs_scored_5plus,syndirella_product,openbind_d68ev3c_c2_elabs_scored_top80percent,syndirella_placed

>  <smiles>  (510) 
Cc1c(C(=O)Nc2cc(F)ccc2C2CC2)ccnc1Cl

>  <subsites>  (510) 
None

>  <rmsd(smina/fragmenstein)>  (510) 
1.354

>  <alias>  (510) 
None

>  <energy_score>  (510) 
-26.238861

>  <HIPPO Pose ID>  (510) 
65977

>  <distance_score>  (510) 
0.729078

>  <HIPPO Compound ID>  (510) 
103612

>  <gnina_score_min>  (510) 
5.047

>  <name>  (510) 
P65977

>  <exports>  (510) 
['/opt/xchem-fragalysis-2/maxwin/BulkDock/OUTPUTS/openbind_d68ev3c_c2_elabs_1LOTQJ3.sdf', '/opt/xchem-fragalysis-2/maxwin/BulkDock/OUTPUTS/openbind_d68ev3c_c2_elabs_1LSYEHW.sdf', '/opt/xchem-fragalysis-2/maxwin/BulkDock/OUTPUTS/openbind_d68ev3c_c2_elabs_1LSYI5W.sdf']

$$$$
P65994
     RDKit          3D

 21 22  0  0  0  0  0  0  0  0999 V2000
    0.0864   -5.3579   29.8650 C   0  0  0  0  0  0  0  0  0  0  0  0
   -0.5499   -6.7400   29.9280 C   0  0  0  0  0  0  0  0  0  0  0  0
   -0.9322   -7.2539   31.2933 C   0  0  0  0  0  0  0  0  0  0  0  0
   -0.6308   -6.6002   32.4804 C   0  0  0  0  0  0  0  0  0  0  0  0
   -1.0239   -7.1771   33.6962 C   0  0  0  0  0  0  0  0  0  0  0  0
   -0.8410   -6.5031   35.0192 C   0  0  0  0  0  0  0  0  0  0  0  0
   -1.6173   -6.7422   35.8573 O   0  0  0  0  0  0  0  0  0  0  0  0
    0.3363   -5.5082   35.0019 N   0  0  0  0  0  0  0  0  0  0  0  0
    0.8456   -4.6979   36.0046 C   0  0  0  0  0  0  0  0  0  0  0  0
    0.1302   -4.4921   37.1866 C   0  0  0  0  0  0  0  0  0  0  0  0
    0.6388   -3.6418   38.1612 C   0  0  0  0  0  0  0  0  0  0  0  0
   -0.0518   -3.4798   39.3002 F   0  0  0  0  0  0  0  0  0  0  0  0
    1.8405   -2.9736   37.9580 C   0  0  0  0  0  0  0  0  0  0  0  0
    2.5392   -1.8197   39.2837 Br  0  0  0  0  0  0  0  0  0  0  0  0
    2.5540   -3.1706   36.7741 C   0  0  0  0  0  0  0  0  0  0  0  0
    2.0795   -4.0546   35.7844 C   0  0  0  0  0  0  0  0  0  0  0  0
    2.9916   -4.3228   34.6009 C   0  0  0  0  0  0  0  0  0  0  0  0
    2.3968   -5.1078   33.5651 O   0  0  0  0  0  0  0  0  0  0  0  0
   -1.7141   -8.3845   33.6935 C   0  0  0  0  0  0  0  0  0  0  0  0
   -2.0020   -8.9456   32.4738 C   0  0  0  0  0  0  0  0  0  0  0  0
   -1.6358   -8.4103   31.2899 N   0  0  0  0  0  0  0  0  0  0  0  0
  1  2  1  0
  2  3  1  0
  3  4  2  0
  4  5  1  0
  5  6  1  0
  6  7  2  0
  6  8  1  0
  8  9  1  0
  9 10  2  0
 10 11  1  0
 11 12  1  0
 11 13  2  0
 13 14  1  0
 13 15  1  0
 15 16  2  0
 16 17  1  0
 17 18  1  0
  5 19  2  0
 19 20  1  0
 20 21  2  0
 21  3  1  0
 16  9  1  0
M  END
>  <ref_mols>  (511) 
7gov-a

>  <gnina_score>  (511) 
4.875

>  <smina_score_min>  (511) 
-6.247

>  <ref_pdb>  (511) 
7gov-a

>  <inspiration_score>  (511) 
None

>  <inchikey>  (511) 
CFDZRSRSDJIDBB-UHFFFAOYSA-N

>  <tags>  (511) 
BulkDock Fragalysis export,openbind_d68ev3c_c2_elabs_scored,openbind_d68ev3c_c2_elabs_scored_4.5plus,openbind_d68ev3c_c2_elabs,openbind_d68ev3c_c2_elabs_scored_5plus,syndirella_product,openbind_d68ev3c_c2_elabs_scored_top80percent,syndirella_placed

>  <smiles>  (511) 
CCc1cc(C(=O)Nc2cc(F)c(Br)cc2CO)ccn1

>  <subsites>  (511) 
None

>  <rmsd(smina/fragmenstein)>  (511) 
0.981

>  <alias>  (511) 
None

>  <energy_score>  (511) 
-17.20114

>  <HIPPO Pose ID>  (511) 
65994

>  <distance_score>  (511) 
0.775132

>  <HIPPO Compound ID>  (511) 
103640

>  <gnina_score_min>  (511) 
5.014

>  <name>  (511) 
P65994

>  <exports>  (511) 
['/opt/xchem-fragalysis-2/maxwin/BulkDock/OUTPUTS/openbind_d68ev3c_c2_elabs_1LOTQJ3.sdf', '/opt/xchem-fragalysis-2/maxwin/BulkDock/OUTPUTS/openbind_d68ev3c_c2_elabs_1LSYEHW.sdf', '/opt/xchem-fragalysis-2/maxwin/BulkDock/OUTPUTS/openbind_d68ev3c_c2_elabs_1LSYI5W.sdf']

$$$$
P66003
     RDKit          3D

 21 22  0  0  0  0  0  0  0  0999 V2000
   -0.7922   -6.2985   28.7166 C   0  0  0  0  0  0  0  0  0  0  0  0
   -0.1854   -7.0096   29.9020 C   0  0  0  0  0  0  0  0  0  0  0  0
   -0.9046   -7.2349   31.2075 C   0  0  0  0  0  0  0  0  0  0  0  0
   -0.5534   -6.5392   32.3636 C   0  0  0  0  0  0  0  0  0  0  0  0
   -1.0000   -7.0215   33.6038 C   0  0  0  0  0  0  0  0  0  0  0  0
   -0.7770   -6.3497   34.9299 C   0  0  0  0  0  0  0  0  0  0  0  0
   -1.5693   -6.5763   35.7593 O   0  0  0  0  0  0  0  0  0  0  0  0
    0.4286   -5.3802   34.9331 N   0  0  0  0  0  0  0  0  0  0  0  0
    0.9506   -4.5830   35.9570 C   0  0  0  0  0  0  0  0  0  0  0  0
    0.2608   -4.4961   37.1666 C   0  0  0  0  0  0  0  0  0  0  0  0
    0.7219   -3.6637   38.1766 C   0  0  0  0  0  0  0  0  0  0  0  0
    0.0308   -3.6167   39.3259 F   0  0  0  0  0  0  0  0  0  0  0  0
    1.8577   -2.8721   38.0143 C   0  0  0  0  0  0  0  0  0  0  0  0
    2.2885   -1.9795   39.1429 C   0  0  0  0  0  0  0  0  0  0  0  0
    2.5515   -2.9525   36.7899 C   0  0  0  0  0  0  0  0  0  0  0  0
    4.0696   -1.8108   36.5231 Br  0  0  0  0  0  0  0  0  0  0  0  0
    2.1325   -3.8362   35.7606 C   0  0  0  0  0  0  0  0  0  0  0  0
    2.9097   -3.9618   34.4729 C   0  0  0  0  0  0  0  0  0  0  0  0
   -1.7813   -8.1783   33.6414 C   0  0  0  0  0  0  0  0  0  0  0  0
   -2.1329   -8.7620   32.4499 C   0  0  0  0  0  0  0  0  0  0  0  0
   -1.7271   -8.3086   31.2467 N   0  0  0  0  0  0  0  0  0  0  0  0
  1  2  1  0
  2  3  1  0
  3  4  2  0
  4  5  1  0
  5  6  1  0
  6  7  2  0
  6  8  1  0
  8  9  1  0
  9 10  2  0
 10 11  1  0
 11 12  1  0
 11 13  2  0
 13 14  1  0
 13 15  1  0
 15 16  1  0
 15 17  2  0
 17 18  1  0
  5 19  2  0
 19 20  1  0
 20 21  2  0
 21  3  1  0
 17  9  1  0
M  END
>  <ref_mols>  (512) 
7gov-a

>  <gnina_score>  (512) 
4.971

>  <smina_score_min>  (512) 
-5.882

>  <ref_pdb>  (512) 
7gov-a

>  <inspiration_score>  (512) 
None

>  <inchikey>  (512) 
XUXUUBCBZXWGJX-UHFFFAOYSA-N

>  <tags>  (512) 
BulkDock Fragalysis export,openbind_d68ev3c_c2_elabs_scored,openbind_d68ev3c_c2_elabs_scored_4.5plus,openbind_d68ev3c_c2_elabs,openbind_d68ev3c_c2_elabs_scored_5plus,syndirella_product,openbind_d68ev3c_c2_elabs_scored_top80percent,syndirella_placed

>  <smiles>  (512) 
CCc1cc(C(=O)Nc2cc(F)c(C)c(Br)c2C)ccn1

>  <subsites>  (512) 
None

>  <rmsd(smina/fragmenstein)>  (512) 
1.151

>  <alias>  (512) 
None

>  <energy_score>  (512) 
-15.512206

>  <HIPPO Pose ID>  (512) 
66003

>  <distance_score>  (512) 
0.760924

>  <HIPPO Compound ID>  (512) 
103655

>  <gnina_score_min>  (512) 
5.005

>  <name>  (512) 
P66003

>  <exports>  (512) 
['/opt/xchem-fragalysis-2/maxwin/BulkDock/OUTPUTS/openbind_d68ev3c_c2_elabs_1LOTQJ3.sdf', '/opt/xchem-fragalysis-2/maxwin/BulkDock/OUTPUTS/openbind_d68ev3c_c2_elabs_1LSYEHW.sdf', '/opt/xchem-fragalysis-2/maxwin/BulkDock/OUTPUTS/openbind_d68ev3c_c2_elabs_1LSYI5W.sdf']

$$$$
P66013
     RDKit          3D

 21 22  0  0  0  0  0  0  0  0999 V2000
    2.4092   -1.7354   39.4531 C   0  0  0  0  0  0  0  0  0  0  0  0
    1.9981   -2.5958   38.2921 C   0  0  0  0  0  0  0  0  0  0  0  0
    0.9567   -3.5079   38.4661 C   0  0  0  0  0  0  0  0  0  0  0  0
    0.3233   -3.5965   39.6453 F   0  0  0  0  0  0  0  0  0  0  0  0
    0.5274   -4.3211   37.4332 C   0  0  0  0  0  0  0  0  0  0  0  0
    1.1394   -4.2361   36.1840 C   0  0  0  0  0  0  0  0  0  0  0  0
    0.6222   -5.0187   35.1617 N   0  0  0  0  0  0  0  0  0  0  0  0
   -0.0559   -6.3993   35.2047 C   0  0  0  0  0  0  0  0  0  0  0  0
   -0.3579   -7.0664   36.1142 O   0  0  0  0  0  0  0  0  0  0  0  0
   -0.4677   -6.8929   33.8587 C   0  0  0  0  0  0  0  0  0  0  0  0
    0.1527   -6.5255   32.6581 C   0  0  0  0  0  0  0  0  0  0  0  0
   -0.3492   -7.0224   31.4624 C   0  0  0  0  0  0  0  0  0  0  0  0
   -1.4106   -7.8425   31.3836 N   0  0  0  0  0  0  0  0  0  0  0  0
   -1.9554   -8.1967   32.5661 C   0  0  0  0  0  0  0  0  0  0  0  0
   -3.2918   -9.2178   32.4082 Cl  0  0  0  0  0  0  0  0  0  0  0  0
   -1.5465   -7.7704   33.8134 C   0  0  0  0  0  0  0  0  0  0  0  0
   -2.2349   -8.1815   34.9263 O   0  0  0  0  0  0  0  0  0  0  0  0
    2.2141   -3.3614   35.9587 C   0  0  0  0  0  0  0  0  0  0  0  0
    2.9208   -3.3488   34.6264 C   0  0  0  0  0  0  0  0  0  0  0  0
    2.6194   -2.5248   37.0262 C   0  0  0  0  0  0  0  0  0  0  0  0
    4.0185   -1.2429   36.7572 Br  0  0  0  0  0  0  0  0  0  0  0  0
  1  2  1  0
  2  3  2  0
  3  4  1  0
  3  5  1  0
  5  6  2  0
  6  7  1  0
  7  8  1  0
  8  9  2  0
  8 10  1  0
 10 11  2  0
 11 12  1  0
 12 13  2  0
 13 14  1  0
 14 15  1  0
 14 16  2  0
 16 17  1  0
  6 18  1  0
 18 19  1  0
 18 20  2  0
 20 21  1  0
 20  2  1  0
 16 10  1  0
M  END
>  <ref_mols>  (513) 
7gov-a

>  <gnina_score>  (513) 
4.983

>  <smina_score_min>  (513) 
-6.306

>  <ref_pdb>  (513) 
7gov-a

>  <inspiration_score>  (513) 
None

>  <inchikey>  (513) 
PNXGQOJRKADZGR-UHFFFAOYSA-N

>  <tags>  (513) 
BulkDock Fragalysis export,openbind_d68ev3c_c2_elabs_scored,openbind_d68ev3c_c2_elabs_scored_4.5plus,openbind_d68ev3c_c2_elabs,openbind_d68ev3c_c2_elabs_scored_5plus,syndirella_product,openbind_d68ev3c_c2_elabs_scored_top80percent,syndirella_placed

>  <smiles>  (513) 
Cc1c(F)cc(NC(=O)c2ccnc(Cl)c2O)c(C)c1Br

>  <subsites>  (513) 
None

>  <rmsd(smina/fragmenstein)>  (513) 
1.11

>  <alias>  (513) 
None

>  <energy_score>  (513) 
-25.961623

>  <HIPPO Pose ID>  (513) 
66013

>  <distance_score>  (513) 
0.674739

>  <HIPPO Compound ID>  (513) 
103674

>  <gnina_score_min>  (513) 
5.064

>  <name>  (513) 
P66013

>  <exports>  (513) 
['/opt/xchem-fragalysis-2/maxwin/BulkDock/OUTPUTS/openbind_d68ev3c_c2_elabs_1LOTQJ3.sdf', '/opt/xchem-fragalysis-2/maxwin/BulkDock/OUTPUTS/openbind_d68ev3c_c2_elabs_1LSYEHW.sdf', '/opt/xchem-fragalysis-2/maxwin/BulkDock/OUTPUTS/openbind_d68ev3c_c2_elabs_1LSYI5W.sdf']

$$$$
P66014
     RDKit          3D

 21 22  0  0  0  0  0  0  0  0999 V2000
    3.3985   -3.3985   33.3723 N   0  0  0  0  0  0  0  0  0  0  0  0
    2.9694   -3.3876   34.4513 C   0  0  0  0  0  0  0  0  0  0  0  0
    2.3696   -3.3605   35.7541 C   0  0  0  0  0  0  0  0  0  0  0  0
    2.9455   -2.5657   36.7558 C   0  0  0  0  0  0  0  0  0  0  0  0
    2.4055   -2.5529   38.0418 C   0  0  0  0  0  0  0  0  0  0  0  0
    1.2903   -3.3295   38.3234 C   0  0  0  0  0  0  0  0  0  0  0  0
    0.7547   -3.2668   39.5533 F   0  0  0  0  0  0  0  0  0  0  0  0
    0.7080   -4.1278   37.3397 C   0  0  0  0  0  0  0  0  0  0  0  0
   -0.9111   -4.9745   37.8126 Br  0  0  0  0  0  0  0  0  0  0  0  0
    1.2500   -4.1567   36.0427 C   0  0  0  0  0  0  0  0  0  0  0  0
    0.6891   -4.9332   35.0217 N   0  0  0  0  0  0  0  0  0  0  0  0
    0.2527   -6.4095   35.0127 C   0  0  0  0  0  0  0  0  0  0  0  0
    0.2193   -7.1939   35.8761 O   0  0  0  0  0  0  0  0  0  0  0  0
   -0.2964   -6.8414   33.7066 C   0  0  0  0  0  0  0  0  0  0  0  0
    0.2380   -6.4392   32.4793 C   0  0  0  0  0  0  0  0  0  0  0  0
   -0.3432   -6.9240   31.3168 C   0  0  0  0  0  0  0  0  0  0  0  0
   -1.4047   -7.7522   31.3004 N   0  0  0  0  0  0  0  0  0  0  0  0
   -1.8697   -8.1281   32.5120 C   0  0  0  0  0  0  0  0  0  0  0  0
   -3.1850   -9.1895   32.4220 Cl  0  0  0  0  0  0  0  0  0  0  0  0
   -1.3784   -7.7141   33.7330 C   0  0  0  0  0  0  0  0  0  0  0  0
   -1.9807   -8.1317   34.8899 O   0  0  0  0  0  0  0  0  0  0  0  0
  1  2  3  0
  2  3  1  0
  3  4  2  0
  4  5  1  0
  5  6  2  0
  6  7  1  0
  6  8  1  0
  8  9  1  0
  8 10  2  0
 10 11  1  0
 11 12  1  0
 12 13  2  0
 12 14  1  0
 14 15  2  0
 15 16  1  0
 16 17  2  0
 17 18  1  0
 18 19  1  0
 18 20  2  0
 20 21  1  0
 10  3  1  0
 20 14  1  0
M  END
>  <ref_mols>  (514) 
7gov-a

>  <gnina_score>  (514) 
5.048

>  <smina_score_min>  (514) 
-5.768

>  <ref_pdb>  (514) 
7gov-a

>  <inspiration_score>  (514) 
None

>  <inchikey>  (514) 
KYCAHNKFFWCVBL-UHFFFAOYSA-N

>  <tags>  (514) 
BulkDock Fragalysis export,openbind_d68ev3c_c2_elabs_scored,openbind_d68ev3c_c2_elabs_scored_4.5plus,openbind_d68ev3c_c2_elabs,openbind_d68ev3c_c2_elabs_scored_5plus,syndirella_product,openbind_d68ev3c_c2_elabs_scored_top80percent,syndirella_placed

>  <smiles>  (514) 
N#Cc1ccc(F)c(Br)c1NC(=O)c1ccnc(Cl)c1O

>  <subsites>  (514) 
None

>  <rmsd(smina/fragmenstein)>  (514) 
0.825

>  <alias>  (514) 
None

>  <energy_score>  (514) 
-10.841746

>  <HIPPO Pose ID>  (514) 
66014

>  <distance_score>  (514) 
0.682073

>  <HIPPO Compound ID>  (514) 
103676

>  <gnina_score_min>  (514) 
5.078

>  <name>  (514) 
P66014

>  <exports>  (514) 
['/opt/xchem-fragalysis-2/maxwin/BulkDock/OUTPUTS/openbind_d68ev3c_c2_elabs_1LOTQJ3.sdf', '/opt/xchem-fragalysis-2/maxwin/BulkDock/OUTPUTS/openbind_d68ev3c_c2_elabs_1LSYEHW.sdf', '/opt/xchem-fragalysis-2/maxwin/BulkDock/OUTPUTS/openbind_d68ev3c_c2_elabs_1LSYI5W.sdf']

$$$$
P66017
     RDKit          3D

 21 22  0  0  0  0  0  0  0  0999 V2000
    2.1937   -2.7433   33.5785 C   0  0  0  0  0  0  0  0  0  0  0  0
    2.7779   -3.7269   34.5815 C   0  0  0  0  0  0  0  0  0  0  0  0
    2.0122   -3.7239   35.8852 C   0  0  0  0  0  0  0  0  0  0  0  0
    2.4808   -2.9013   36.9276 C   0  0  0  0  0  0  0  0  0  0  0  0
    1.8417   -2.8916   38.1671 C   0  0  0  0  0  0  0  0  0  0  0  0
    2.5166   -1.7990   39.5553 Br  0  0  0  0  0  0  0  0  0  0  0  0
    0.7213   -3.6866   38.3717 C   0  0  0  0  0  0  0  0  0  0  0  0
    0.0859   -3.6864   39.5535 F   0  0  0  0  0  0  0  0  0  0  0  0
    0.2320   -4.4945   37.3518 C   0  0  0  0  0  0  0  0  0  0  0  0
    0.8730   -4.5209   36.1097 C   0  0  0  0  0  0  0  0  0  0  0  0
    0.3625   -5.3239   35.0917 N   0  0  0  0  0  0  0  0  0  0  0  0
   -0.6368   -6.4960   35.1467 C   0  0  0  0  0  0  0  0  0  0  0  0
   -1.2502   -6.9263   36.0422 O   0  0  0  0  0  0  0  0  0  0  0  0
   -0.8734   -7.1260   33.7986 C   0  0  0  0  0  0  0  0  0  0  0  0
   -1.7165   -8.2490   33.7872 C   0  0  0  0  0  0  0  0  0  0  0  0
   -2.0926   -8.7968   32.5765 C   0  0  0  0  0  0  0  0  0  0  0  0
   -1.6913   -8.3229   31.3830 N   0  0  0  0  0  0  0  0  0  0  0  0
   -0.8349   -7.2808   31.4215 C   0  0  0  0  0  0  0  0  0  0  0  0
   -0.4129   -6.6869   29.8662 Cl  0  0  0  0  0  0  0  0  0  0  0  0
   -0.3868   -6.6521   32.5789 C   0  0  0  0  0  0  0  0  0  0  0  0
    0.4861   -5.5991   32.5073 O   0  0  0  0  0  0  0  0  0  0  0  0
  1  2  1  0
  2  3  1  0
  3  4  2  0
  4  5  1  0
  5  6  1  0
  5  7  2  0
  7  8  1  0
  7  9  1  0
  9 10  2  0
 10 11  1  0
 11 12  1  0
 12 13  2  0
 12 14  1  0
 14 15  2  0
 15 16  1  0
 16 17  2  0
 17 18  1  0
 18 19  1  0
 18 20  2  0
 20 21  1  0
 10  3  1  0
 20 14  1  0
M  END
>  <ref_mols>  (515) 
7gov-a

>  <gnina_score>  (515) 
5.096

>  <smina_score_min>  (515) 
-6.058

>  <ref_pdb>  (515) 
7gov-a

>  <inspiration_score>  (515) 
None

>  <inchikey>  (515) 
WDMQFVDUCKVVHB-UHFFFAOYSA-N

>  <tags>  (515) 
BulkDock Fragalysis export,openbind_d68ev3c_c2_elabs_scored,openbind_d68ev3c_c2_elabs_scored_4.5plus,openbind_d68ev3c_c2_elabs,openbind_d68ev3c_c2_elabs_scored_5plus,syndirella_product,openbind_d68ev3c_c2_elabs_scored_top80percent,syndirella_placed

>  <smiles>  (515) 
CCc1cc(Br)c(F)cc1NC(=O)c1ccnc(Cl)c1O

>  <subsites>  (515) 
None

>  <rmsd(smina/fragmenstein)>  (515) 
1.032

>  <alias>  (515) 
None

>  <energy_score>  (515) 
-37.004352

>  <HIPPO Pose ID>  (515) 
66017

>  <distance_score>  (515) 
0.683175

>  <HIPPO Compound ID>  (515) 
103684

>  <gnina_score_min>  (515) 
5.048

>  <name>  (515) 
P66017

>  <exports>  (515) 
['/opt/xchem-fragalysis-2/maxwin/BulkDock/OUTPUTS/openbind_d68ev3c_c2_elabs_1LOTQJ3.sdf', '/opt/xchem-fragalysis-2/maxwin/BulkDock/OUTPUTS/openbind_d68ev3c_c2_elabs_1LSYEHW.sdf', '/opt/xchem-fragalysis-2/maxwin/BulkDock/OUTPUTS/openbind_d68ev3c_c2_elabs_1LSYI5W.sdf']

$$$$
P66038
     RDKit          3D

 21 23  0  0  0  0  0  0  0  0999 V2000
    1.3547   -7.0959   35.2955 O   0  0  0  0  0  0  0  0  0  0  0  0
    0.4737   -6.4372   34.9133 C   0  0  0  0  0  0  0  0  0  0  0  0
   -0.0233   -5.0644   35.3904 N   0  0  0  0  0  0  0  0  0  0  0  0
    0.4951   -4.2006   36.3391 C   0  0  0  0  0  0  0  0  0  0  0  0
   -0.3237   -3.8585   37.4104 C   0  0  0  0  0  0  0  0  0  0  0  0
    0.2334   -3.1769   38.4801 C   0  0  0  0  0  0  0  0  0  0  0  0
   -0.5045   -2.9605   39.5747 F   0  0  0  0  0  0  0  0  0  0  0  0
    1.5545   -2.7576   38.4618 C   0  0  0  0  0  0  0  0  0  0  0  0
    2.3469   -3.0509   37.3550 C   0  0  0  0  0  0  0  0  0  0  0  0
    1.8482   -3.7936   36.2693 C   0  0  0  0  0  0  0  0  0  0  0  0
    2.7654   -4.1277   35.1055 C   0  0  0  0  0  0  0  0  0  0  0  0
    3.6407   -3.0497   34.4988 C   0  0  0  0  0  0  0  0  0  0  0  0
    2.4817   -3.5885   33.7222 C   0  0  0  0  0  0  0  0  0  0  0  0
   -0.2752   -6.8732   33.7258 C   0  0  0  0  0  0  0  0  0  0  0  0
    0.1728   -6.4499   32.4707 C   0  0  0  0  0  0  0  0  0  0  0  0
   -0.4493   -6.9542   31.3451 C   0  0  0  0  0  0  0  0  0  0  0  0
   -1.4867   -7.8084   31.4004 N   0  0  0  0  0  0  0  0  0  0  0  0
   -1.8693   -8.1882   32.6421 C   0  0  0  0  0  0  0  0  0  0  0  0
   -3.2247   -9.1981   32.6070 Cl  0  0  0  0  0  0  0  0  0  0  0  0
   -1.3140   -7.7738   33.8394 C   0  0  0  0  0  0  0  0  0  0  0  0
   -1.7555   -8.1719   35.0676 O   0  0  0  0  0  0  0  0  0  0  0  0
  1  2  2  0
  2  3  1  0
  3  4  1  0
  4  5  2  0
  5  6  1  0
  6  7  1  0
  6  8  2  0
  8  9  1  0
  9 10  2  0
 10 11  1  0
 11 12  1  0
 12 13  1  0
  2 14  1  0
 14 15  2  0
 15 16  1  0
 16 17  2  0
 17 18  1  0
 18 19  1  0
 18 20  2  0
 20 21  1  0
 10  4  1  0
 13 11  1  0
 20 14  1  0
M  END
>  <ref_mols>  (516) 
7gov-a

>  <gnina_score>  (516) 
5.063

>  <smina_score_min>  (516) 
-6.383

>  <ref_pdb>  (516) 
7gov-a

>  <inspiration_score>  (516) 
None

>  <inchikey>  (516) 
WOLXBFBMIJTGSC-UHFFFAOYSA-N

>  <tags>  (516) 
BulkDock Fragalysis export,openbind_d68ev3c_c2_elabs_scored,openbind_d68ev3c_c2_elabs_scored_4.5plus,openbind_d68ev3c_c2_elabs,openbind_d68ev3c_c2_elabs_scored_5plus,syndirella_product,openbind_d68ev3c_c2_elabs_scored_top80percent,syndirella_placed

>  <smiles>  (516) 
O=C(Nc1cc(F)ccc1C1CC1)c1ccnc(Cl)c1O

>  <subsites>  (516) 
None

>  <rmsd(smina/fragmenstein)>  (516) 
1.172

>  <alias>  (516) 
None

>  <energy_score>  (516) 
-12.009632

>  <HIPPO Pose ID>  (516) 
66038

>  <distance_score>  (516) 
0.575957

>  <HIPPO Compound ID>  (516) 
103723

>  <gnina_score_min>  (516) 
5.033

>  <name>  (516) 
P66038

>  <exports>  (516) 
['/opt/xchem-fragalysis-2/maxwin/BulkDock/OUTPUTS/openbind_d68ev3c_c2_elabs_1LOTQJ3.sdf', '/opt/xchem-fragalysis-2/maxwin/BulkDock/OUTPUTS/openbind_d68ev3c_c2_elabs_1LSYEHW.sdf', '/opt/xchem-fragalysis-2/maxwin/BulkDock/OUTPUTS/openbind_d68ev3c_c2_elabs_1LSYI5W.sdf']

$$$$
P66044
     RDKit          3D

 21 22  0  0  0  0  0  0  0  0999 V2000
    3.3609   -3.9913   33.5974 C   0  0  0  0  0  0  0  0  0  0  0  0
    2.7760   -3.9248   34.6441 C   0  0  0  0  0  0  0  0  0  0  0  0
    2.0747   -3.8512   35.8966 C   0  0  0  0  0  0  0  0  0  0  0  0
    2.5426   -2.9418   36.8546 C   0  0  0  0  0  0  0  0  0  0  0  0
    1.9021   -2.8373   38.0869 C   0  0  0  0  0  0  0  0  0  0  0  0
    2.5033   -1.7294   39.2605 Cl  0  0  0  0  0  0  0  0  0  0  0  0
    0.7872   -3.6207   38.3566 C   0  0  0  0  0  0  0  0  0  0  0  0
    0.1565   -3.5238   39.5379 F   0  0  0  0  0  0  0  0  0  0  0  0
    0.3108   -4.5183   37.4056 C   0  0  0  0  0  0  0  0  0  0  0  0
   -0.7612   -5.2482   37.7358 F   0  0  0  0  0  0  0  0  0  0  0  0
    0.9501   -4.6609   36.1672 C   0  0  0  0  0  0  0  0  0  0  0  0
    0.5232   -5.5580   35.1739 N   0  0  0  0  0  0  0  0  0  0  0  0
   -0.6721   -6.5384   35.1526 C   0  0  0  0  0  0  0  0  0  0  0  0
   -1.4429   -6.8096   35.9860 O   0  0  0  0  0  0  0  0  0  0  0  0
   -0.8873   -7.1639   33.8121 C   0  0  0  0  0  0  0  0  0  0  0  0
   -1.6466   -8.3348   33.7649 C   0  0  0  0  0  0  0  0  0  0  0  0
   -1.9817   -8.8432   32.5281 C   0  0  0  0  0  0  0  0  0  0  0  0
   -1.6016   -8.2895   31.3581 N   0  0  0  0  0  0  0  0  0  0  0  0
   -0.8323   -7.1808   31.4337 C   0  0  0  0  0  0  0  0  0  0  0  0
   -0.2846   -6.3728   29.8140 Br  0  0  0  0  0  0  0  0  0  0  0  0
   -0.4746   -6.5694   32.6207 C   0  0  0  0  0  0  0  0  0  0  0  0
  1  2  3  0
  2  3  1  0
  3  4  2  0
  4  5  1  0
  5  6  1  0
  5  7  2  0
  7  8  1  0
  7  9  1  0
  9 10  1  0
  9 11  2  0
 11 12  1  0
 12 13  1  0
 13 14  2  0
 13 15  1  0
 15 16  2  0
 16 17  1  0
 17 18  2  0
 18 19  1  0
 19 20  1  0
 19 21  2  0
 11  3  1  0
 21 15  1  0
M  END
>  <ref_mols>  (517) 
7gov-a

>  <gnina_score>  (517) 
5.167

>  <smina_score_min>  (517) 
-5.388

>  <ref_pdb>  (517) 
7gov-a

>  <inspiration_score>  (517) 
None

>  <inchikey>  (517) 
NTVIAOZNFVUSPE-UHFFFAOYSA-N

>  <tags>  (517) 
BulkDock Fragalysis export,openbind_d68ev3c_c2_elabs_scored,openbind_d68ev3c_c2_elabs_scored_4.5plus,openbind_d68ev3c_c2_elabs,openbind_d68ev3c_c2_elabs_scored_5plus,syndirella_product,openbind_d68ev3c_c2_elabs_scored_top80percent,syndirella_placed

>  <smiles>  (517) 
C#Cc1cc(Cl)c(F)c(F)c1NC(=O)c1ccnc(Br)c1

>  <subsites>  (517) 
None

>  <rmsd(smina/fragmenstein)>  (517) 
0.852

>  <alias>  (517) 
None

>  <energy_score>  (517) 
-6.846943

>  <HIPPO Pose ID>  (517) 
66044

>  <distance_score>  (517) 
0.743271

>  <HIPPO Compound ID>  (517) 
103734

>  <gnina_score_min>  (517) 
5.059

>  <name>  (517) 
P66044

>  <exports>  (517) 
['/opt/xchem-fragalysis-2/maxwin/BulkDock/OUTPUTS/openbind_d68ev3c_c2_elabs_1LOTQJ3.sdf', '/opt/xchem-fragalysis-2/maxwin/BulkDock/OUTPUTS/openbind_d68ev3c_c2_elabs_1LSYEHW.sdf', '/opt/xchem-fragalysis-2/maxwin/BulkDock/OUTPUTS/openbind_d68ev3c_c2_elabs_1LSYI5W.sdf']

$$$$
P66048
     RDKit          3D

 21 22  0  0  0  0  0  0  0  0999 V2000
   -1.9597   -8.2084   34.9068 C   0  0  0  0  0  0  0  0  0  0  0  0
   -1.3426   -7.6849   33.6475 C   0  0  0  0  0  0  0  0  0  0  0  0
   -0.2369   -6.8351   33.6055 C   0  0  0  0  0  0  0  0  0  0  0  0
    0.4205   -6.4543   34.8832 C   0  0  0  0  0  0  0  0  0  0  0  0
    0.5630   -7.2790   35.6914 O   0  0  0  0  0  0  0  0  0  0  0  0
    0.7145   -4.9509   34.9349 N   0  0  0  0  0  0  0  0  0  0  0  0
    1.1414   -4.1538   35.9821 C   0  0  0  0  0  0  0  0  0  0  0  0
    0.5768   -4.3743   37.2418 C   0  0  0  0  0  0  0  0  0  0  0  0
    0.9440   -3.5666   38.3034 C   0  0  0  0  0  0  0  0  0  0  0  0
    0.3670   -3.7413   39.5003 F   0  0  0  0  0  0  0  0  0  0  0  0
    1.8933   -2.5704   38.1360 C   0  0  0  0  0  0  0  0  0  0  0  0
    2.4802   -2.3750   36.8815 C   0  0  0  0  0  0  0  0  0  0  0  0
    2.1019   -3.1525   35.7721 C   0  0  0  0  0  0  0  0  0  0  0  0
    2.8267   -3.0377   34.4370 C   0  0  0  0  0  0  0  0  0  0  0  0
    4.0456   -3.9646   34.4129 C   0  0  0  0  0  0  0  0  0  0  0  0
    3.2413   -1.6060   34.0752 C   0  0  0  0  0  0  0  0  0  0  0  0
    0.2742   -6.4042   32.3783 C   0  0  0  0  0  0  0  0  0  0  0  0
   -0.3300   -6.8596   31.2200 C   0  0  0  0  0  0  0  0  0  0  0  0
   -1.3866   -7.6914   31.2103 N   0  0  0  0  0  0  0  0  0  0  0  0
   -1.8265   -8.0916   32.4203 C   0  0  0  0  0  0  0  0  0  0  0  0
   -3.0985   -9.2074   32.3179 Cl  0  0  0  0  0  0  0  0  0  0  0  0
  1  2  1  0
  2  3  2  0
  3  4  1  0
  4  5  2  0
  4  6  1  0
  6  7  1  0
  7  8  2  0
  8  9  1  0
  9 10  1  0
  9 11  2  0
 11 12  1  0
 12 13  2  0
 13 14  1  0
 14 15  1  0
 14 16  1  0
  3 17  1  0
 17 18  2  0
 18 19  1  0
 19 20  2  0
 20 21  1  0
 20  2  1  0
 13  7  1  0
M  END
>  <ref_mols>  (518) 
7gov-a

>  <gnina_score>  (518) 
5.038

>  <smina_score_min>  (518) 
-5.261

>  <ref_pdb>  (518) 
7gov-a

>  <inspiration_score>  (518) 
None

>  <inchikey>  (518) 
GOESZVCDNVTXII-UHFFFAOYSA-N

>  <tags>  (518) 
BulkDock Fragalysis export,openbind_d68ev3c_c2_elabs_scored,openbind_d68ev3c_c2_elabs_scored_4.5plus,openbind_d68ev3c_c2_elabs,openbind_d68ev3c_c2_elabs_scored_5plus,syndirella_product,openbind_d68ev3c_c2_elabs_scored_top80percent,syndirella_placed

>  <smiles>  (518) 
Cc1c(C(=O)Nc2cc(F)ccc2C(C)C)ccnc1Cl

>  <subsites>  (518) 
None

>  <rmsd(smina/fragmenstein)>  (518) 
1.49

>  <alias>  (518) 
None

>  <energy_score>  (518) 
-28.270327

>  <HIPPO Pose ID>  (518) 
66048

>  <distance_score>  (518) 
0.631336

>  <HIPPO Compound ID>  (518) 
103743

>  <gnina_score_min>  (518) 
5.058

>  <name>  (518) 
P66048

>  <exports>  (518) 
['/opt/xchem-fragalysis-2/maxwin/BulkDock/OUTPUTS/openbind_d68ev3c_c2_elabs_1LOTQJ3.sdf', '/opt/xchem-fragalysis-2/maxwin/BulkDock/OUTPUTS/openbind_d68ev3c_c2_elabs_1LSYEHW.sdf', '/opt/xchem-fragalysis-2/maxwin/BulkDock/OUTPUTS/openbind_d68ev3c_c2_elabs_1LSYI5W.sdf']

$$$$
P66049
     RDKit          3D

 21 22  0  0  0  0  0  0  0  0999 V2000
    0.7377   -5.5445   32.1096 C   0  0  0  0  0  0  0  0  0  0  0  0
   -0.2477   -6.6390   32.3806 C   0  0  0  0  0  0  0  0  0  0  0  0
   -0.5344   -7.0733   33.6862 C   0  0  0  0  0  0  0  0  0  0  0  0
    0.2601   -6.6047   34.8438 C   0  0  0  0  0  0  0  0  0  0  0  0
    1.0811   -7.3179   35.2597 O   0  0  0  0  0  0  0  0  0  0  0  0
   -0.1299   -5.1820   35.2674 N   0  0  0  0  0  0  0  0  0  0  0  0
    0.4486   -4.3258   36.1980 C   0  0  0  0  0  0  0  0  0  0  0  0
    1.8070   -3.9598   36.1489 C   0  0  0  0  0  0  0  0  0  0  0  0
    2.7357   -4.3254   35.0233 C   0  0  0  0  0  0  0  0  0  0  0  0
    2.5025   -3.4484   33.9274 O   0  0  0  0  0  0  0  0  0  0  0  0
    2.3251   -3.1554   37.1844 C   0  0  0  0  0  0  0  0  0  0  0  0
    1.5442   -2.8029   38.2815 C   0  0  0  0  0  0  0  0  0  0  0  0
    0.2191   -3.2057   38.3235 C   0  0  0  0  0  0  0  0  0  0  0  0
   -0.5094   -2.9328   39.4132 F   0  0  0  0  0  0  0  0  0  0  0  0
   -0.3415   -3.9166   37.2719 C   0  0  0  0  0  0  0  0  0  0  0  0
   -1.6291   -4.2897   37.3378 F   0  0  0  0  0  0  0  0  0  0  0  0
   -1.4539   -8.0926   33.9295 C   0  0  0  0  0  0  0  0  0  0  0  0
   -2.0940   -8.6414   32.8408 C   0  0  0  0  0  0  0  0  0  0  0  0
   -1.8591   -8.2688   31.5674 N   0  0  0  0  0  0  0  0  0  0  0  0
   -0.9267   -7.3044   31.3711 C   0  0  0  0  0  0  0  0  0  0  0  0
   -0.6856   -7.0007   29.6955 Cl  0  0  0  0  0  0  0  0  0  0  0  0
  1  2  1  0
  2  3  2  0
  3  4  1  0
  4  5  2  0
  4  6  1  0
  6  7  1  0
  7  8  2  0
  8  9  1  0
  9 10  1  0
  8 11  1  0
 11 12  2  0
 12 13  1  0
 13 14  1  0
 13 15  2  0
 15 16  1  0
  3 17  1  0
 17 18  2  0
 18 19  1  0
 19 20  2  0
 20 21  1  0
 20  2  1  0
 15  7  1  0
M  END
>  <ref_mols>  (519) 
7gov-a

>  <gnina_score>  (519) 
4.911

>  <smina_score_min>  (519) 
-6.028

>  <ref_pdb>  (519) 
7gov-a

>  <inspiration_score>  (519) 
None

>  <inchikey>  (519) 
PLJOTJAERDRVLB-UHFFFAOYSA-N

>  <tags>  (519) 
BulkDock Fragalysis export,openbind_d68ev3c_c2_elabs_scored,openbind_d68ev3c_c2_elabs_scored_4.5plus,openbind_d68ev3c_c2_elabs,openbind_d68ev3c_c2_elabs_scored_5plus,syndirella_product,openbind_d68ev3c_c2_elabs_scored_top80percent,syndirella_placed

>  <smiles>  (519) 
Cc1c(C(=O)Nc2c(CO)ccc(F)c2F)ccnc1Cl

>  <subsites>  (519) 
None

>  <rmsd(smina/fragmenstein)>  (519) 
1.162

>  <alias>  (519) 
None

>  <energy_score>  (519) 
-17.507565

>  <HIPPO Pose ID>  (519) 
66049

>  <distance_score>  (519) 
0.43846

>  <HIPPO Compound ID>  (519) 
103746

>  <gnina_score_min>  (519) 
5.026

>  <name>  (519) 
P66049

>  <exports>  (519) 
['/opt/xchem-fragalysis-2/maxwin/BulkDock/OUTPUTS/openbind_d68ev3c_c2_elabs_1LOTQJ3.sdf', '/opt/xchem-fragalysis-2/maxwin/BulkDock/OUTPUTS/openbind_d68ev3c_c2_elabs_1LSYEHW.sdf', '/opt/xchem-fragalysis-2/maxwin/BulkDock/OUTPUTS/openbind_d68ev3c_c2_elabs_1LSYI5W.sdf']

$$$$
P66050
     RDKit          3D

 21 22  0  0  0  0  0  0  0  0999 V2000
   -1.9262   -8.1207   34.9130 C   0  0  0  0  0  0  0  0  0  0  0  0
   -1.3282   -7.6431   33.6272 C   0  0  0  0  0  0  0  0  0  0  0  0
   -0.2088   -6.8093   33.5668 C   0  0  0  0  0  0  0  0  0  0  0  0
    0.4568   -6.4391   34.8459 C   0  0  0  0  0  0  0  0  0  0  0  0
    0.5881   -7.2719   35.6486 O   0  0  0  0  0  0  0  0  0  0  0  0
    0.7725   -4.9399   34.9080 N   0  0  0  0  0  0  0  0  0  0  0  0
    1.2116   -4.1563   35.9608 C   0  0  0  0  0  0  0  0  0  0  0  0
    0.6330   -4.3814   37.2098 C   0  0  0  0  0  0  0  0  0  0  0  0
    0.9832   -3.5828   38.2850 C   0  0  0  0  0  0  0  0  0  0  0  0
    0.3670   -3.7894   39.4593 F   0  0  0  0  0  0  0  0  0  0  0  0
    1.9333   -2.5689   38.1582 C   0  0  0  0  0  0  0  0  0  0  0  0
    2.2848   -1.7476   39.3656 C   0  0  0  0  0  0  0  0  0  0  0  0
    2.5330   -2.3717   36.8953 C   0  0  0  0  0  0  0  0  0  0  0  0
    3.8524   -0.9956   36.6985 Br  0  0  0  0  0  0  0  0  0  0  0  0
    2.1767   -3.1613   35.7758 C   0  0  0  0  0  0  0  0  0  0  0  0
    2.8892   -3.0194   34.4558 C   0  0  0  0  0  0  0  0  0  0  0  0
    0.2971   -6.4006   32.3316 C   0  0  0  0  0  0  0  0  0  0  0  0
   -0.3225   -6.8673   31.1854 C   0  0  0  0  0  0  0  0  0  0  0  0
   -1.3827   -7.6955   31.1950 N   0  0  0  0  0  0  0  0  0  0  0  0
   -1.8193   -8.0745   32.4129 C   0  0  0  0  0  0  0  0  0  0  0  0
   -3.0828   -9.2016   32.3323 Cl  0  0  0  0  0  0  0  0  0  0  0  0
  1  2  1  0
  2  3  2  0
  3  4  1  0
  4  5  2  0
  4  6  1  0
  6  7  1  0
  7  8  2  0
  8  9  1  0
  9 10  1  0
  9 11  2  0
 11 12  1  0
 11 13  1  0
 13 14  1  0
 13 15  2  0
 15 16  1  0
  3 17  1  0
 17 18  2  0
 18 19  1  0
 19 20  2  0
 20 21  1  0
 20  2  1  0
 15  7  1  0
M  END
>  <ref_mols>  (520) 
7gov-a

>  <gnina_score>  (520) 
5.081

>  <smina_score_min>  (520) 
-5.579

>  <ref_pdb>  (520) 
7gov-a

>  <inspiration_score>  (520) 
None

>  <inchikey>  (520) 
RWBHCHIMDBJSQQ-UHFFFAOYSA-N

>  <tags>  (520) 
BulkDock Fragalysis export,openbind_d68ev3c_c2_elabs_scored,openbind_d68ev3c_c2_elabs_scored_4.5plus,openbind_d68ev3c_c2_elabs,openbind_d68ev3c_c2_elabs_scored_5plus,syndirella_product,openbind_d68ev3c_c2_elabs_scored_top80percent,syndirella_placed

>  <smiles>  (520) 
Cc1c(C(=O)Nc2cc(F)c(C)c(Br)c2C)ccnc1Cl

>  <subsites>  (520) 
None

>  <rmsd(smina/fragmenstein)>  (520) 
1.464

>  <alias>  (520) 
None

>  <energy_score>  (520) 
-15.51998

>  <HIPPO Pose ID>  (520) 
66050

>  <distance_score>  (520) 
0.647991

>  <HIPPO Compound ID>  (520) 
103749

>  <gnina_score_min>  (520) 
5.058

>  <name>  (520) 
P66050

>  <exports>  (520) 
['/opt/xchem-fragalysis-2/maxwin/BulkDock/OUTPUTS/openbind_d68ev3c_c2_elabs_1LOTQJ3.sdf', '/opt/xchem-fragalysis-2/maxwin/BulkDock/OUTPUTS/openbind_d68ev3c_c2_elabs_1LSYEHW.sdf', '/opt/xchem-fragalysis-2/maxwin/BulkDock/OUTPUTS/openbind_d68ev3c_c2_elabs_1LSYI5W.sdf']

$$$$
P66051
     RDKit          3D

 21 22  0  0  0  0  0  0  0  0999 V2000
   -1.7995   -8.2089   34.9126 C   0  0  0  0  0  0  0  0  0  0  0  0
   -1.2439   -7.6520   33.6405 C   0  0  0  0  0  0  0  0  0  0  0  0
   -0.1530   -6.7847   33.5675 C   0  0  0  0  0  0  0  0  0  0  0  0
    0.5855   -6.4210   34.8082 C   0  0  0  0  0  0  0  0  0  0  0  0
    0.8329   -7.2643   35.5723 O   0  0  0  0  0  0  0  0  0  0  0  0
    0.8117   -4.9025   34.8917 N   0  0  0  0  0  0  0  0  0  0  0  0
    1.2883   -4.1137   35.9387 C   0  0  0  0  0  0  0  0  0  0  0  0
    2.3948   -3.2869   35.7102 C   0  0  0  0  0  0  0  0  0  0  0  0
    3.0397   -3.2695   34.4288 C   0  0  0  0  0  0  0  0  0  0  0  0
    3.5233   -3.2215   33.3738 N   0  0  0  0  0  0  0  0  0  0  0  0
    2.9085   -2.5045   36.7542 C   0  0  0  0  0  0  0  0  0  0  0  0
    2.3185   -2.5406   38.0191 C   0  0  0  0  0  0  0  0  0  0  0  0
    1.2171   -3.3570   38.2395 C   0  0  0  0  0  0  0  0  0  0  0  0
    0.6381   -3.3480   39.4513 F   0  0  0  0  0  0  0  0  0  0  0  0
    0.7004   -4.1449   37.2131 C   0  0  0  0  0  0  0  0  0  0  0  0
   -0.8758   -5.1106   37.5823 Br  0  0  0  0  0  0  0  0  0  0  0  0
    0.3075   -6.3364   32.3256 C   0  0  0  0  0  0  0  0  0  0  0  0
   -0.3321   -6.7886   31.1851 C   0  0  0  0  0  0  0  0  0  0  0  0
   -1.3816   -7.6293   31.2049 N   0  0  0  0  0  0  0  0  0  0  0  0
   -1.7737   -8.0477   32.4254 C   0  0  0  0  0  0  0  0  0  0  0  0
   -3.0359   -9.1817   32.3453 Cl  0  0  0  0  0  0  0  0  0  0  0  0
  1  2  1  0
  2  3  2  0
  3  4  1  0
  4  5  2  0
  4  6  1  0
  6  7  1  0
  7  8  2  0
  8  9  1  0
  9 10  3  0
  8 11  1  0
 11 12  2  0
 12 13  1  0
 13 14  1  0
 13 15  2  0
 15 16  1  0
  3 17  1  0
 17 18  2  0
 18 19  1  0
 19 20  2  0
 20 21  1  0
 20  2  1  0
 15  7  1  0
M  END
>  <ref_mols>  (521) 
7gov-a

>  <gnina_score>  (521) 
5.273

>  <smina_score_min>  (521) 
-5.031

>  <ref_pdb>  (521) 
7gov-a

>  <inspiration_score>  (521) 
None

>  <inchikey>  (521) 
WQCLILWAMUJFHR-UHFFFAOYSA-N

>  <tags>  (521) 
BulkDock Fragalysis export,openbind_d68ev3c_c2_elabs_scored,openbind_d68ev3c_c2_elabs_scored_4.5plus,openbind_d68ev3c_c2_elabs,openbind_d68ev3c_c2_elabs_scored_5plus,syndirella_product,openbind_d68ev3c_c2_elabs_scored_top80percent,syndirella_placed

>  <smiles>  (521) 
Cc1c(C(=O)Nc2c(C#N)ccc(F)c2Br)ccnc1Cl

>  <subsites>  (521) 
None

>  <rmsd(smina/fragmenstein)>  (521) 
0.332

>  <alias>  (521) 
None

>  <energy_score>  (521) 
-3.949757

>  <HIPPO Pose ID>  (521) 
66051

>  <distance_score>  (521) 
0.688016

>  <HIPPO Compound ID>  (521) 
103751

>  <gnina_score_min>  (521) 
5.184

>  <name>  (521) 
P66051

>  <exports>  (521) 
['/opt/xchem-fragalysis-2/maxwin/BulkDock/OUTPUTS/openbind_d68ev3c_c2_elabs_1LOTQJ3.sdf', '/opt/xchem-fragalysis-2/maxwin/BulkDock/OUTPUTS/openbind_d68ev3c_c2_elabs_1LSYEHW.sdf', '/opt/xchem-fragalysis-2/maxwin/BulkDock/OUTPUTS/openbind_d68ev3c_c2_elabs_1LSYI5W.sdf']

$$$$
P66055
     RDKit          3D

 21 22  0  0  0  0  0  0  0  0999 V2000
    2.0666   -2.0093   33.5469 C   0  0  0  0  0  0  0  0  0  0  0  0
    2.8140   -2.9900   34.4382 C   0  0  0  0  0  0  0  0  0  0  0  0
    2.1318   -3.1695   35.7717 C   0  0  0  0  0  0  0  0  0  0  0  0
    2.5185   -2.3779   36.8658 C   0  0  0  0  0  0  0  0  0  0  0  0
    1.9534   -2.5844   38.1285 C   0  0  0  0  0  0  0  0  0  0  0  0
    2.4934   -1.4940   39.5768 Br  0  0  0  0  0  0  0  0  0  0  0  0
    1.0032   -3.5824   38.3111 C   0  0  0  0  0  0  0  0  0  0  0  0
    0.4184   -3.7728   39.5040 F   0  0  0  0  0  0  0  0  0  0  0  0
    0.6255   -4.3879   37.2476 C   0  0  0  0  0  0  0  0  0  0  0  0
    1.1769   -4.1677   35.9825 C   0  0  0  0  0  0  0  0  0  0  0  0
    0.7442   -4.9576   34.9340 N   0  0  0  0  0  0  0  0  0  0  0  0
    0.4174   -6.4540   34.8836 C   0  0  0  0  0  0  0  0  0  0  0  0
    0.5327   -7.2792   35.6957 O   0  0  0  0  0  0  0  0  0  0  0  0
   -0.2355   -6.8290   33.6009 C   0  0  0  0  0  0  0  0  0  0  0  0
    0.2788   -6.4013   32.3743 C   0  0  0  0  0  0  0  0  0  0  0  0
   -0.3246   -6.8582   31.2157 C   0  0  0  0  0  0  0  0  0  0  0  0
   -1.3810   -7.6904   31.2053 N   0  0  0  0  0  0  0  0  0  0  0  0
   -1.8252   -8.0867   32.4148 C   0  0  0  0  0  0  0  0  0  0  0  0
   -3.0904   -9.2097   32.3131 Cl  0  0  0  0  0  0  0  0  0  0  0  0
   -1.3459   -7.6741   33.6411 C   0  0  0  0  0  0  0  0  0  0  0  0
   -1.9654   -8.1893   34.9027 C   0  0  0  0  0  0  0  0  0  0  0  0
  1  2  1  0
  2  3  1  0
  3  4  2  0
  4  5  1  0
  5  6  1  0
  5  7  2  0
  7  8  1  0
  7  9  1  0
  9 10  2  0
 10 11  1  0
 11 12  1  0
 12 13  2  0
 12 14  1  0
 14 15  2  0
 15 16  1  0
 16 17  2  0
 17 18  1  0
 18 19  1  0
 18 20  2  0
 20 21  1  0
 10  3  1  0
 20 14  1  0
M  END
>  <ref_mols>  (522) 
7gov-a

>  <gnina_score>  (522) 
5.132

>  <smina_score_min>  (522) 
-5.303

>  <ref_pdb>  (522) 
7gov-a

>  <inspiration_score>  (522) 
None

>  <inchikey>  (522) 
WJJKNHLYLONSFY-UHFFFAOYSA-N

>  <tags>  (522) 
BulkDock Fragalysis export,openbind_d68ev3c_c2_elabs_scored,openbind_d68ev3c_c2_elabs_scored_4.5plus,openbind_d68ev3c_c2_elabs,openbind_d68ev3c_c2_elabs_scored_5plus,syndirella_product,openbind_d68ev3c_c2_elabs_scored_top80percent,syndirella_placed

>  <smiles>  (522) 
CCc1cc(Br)c(F)cc1NC(=O)c1ccnc(Cl)c1C

>  <subsites>  (522) 
None

>  <rmsd(smina/fragmenstein)>  (522) 
1.376

>  <alias>  (522) 
None

>  <energy_score>  (522) 
-19.293625

>  <HIPPO Pose ID>  (522) 
66055

>  <distance_score>  (522) 
0.646206

>  <HIPPO Compound ID>  (522) 
103759

>  <gnina_score_min>  (522) 
5.069

>  <name>  (522) 
P66055

>  <exports>  (522) 
['/opt/xchem-fragalysis-2/maxwin/BulkDock/OUTPUTS/openbind_d68ev3c_c2_elabs_1LOTQJ3.sdf', '/opt/xchem-fragalysis-2/maxwin/BulkDock/OUTPUTS/openbind_d68ev3c_c2_elabs_1LSYEHW.sdf', '/opt/xchem-fragalysis-2/maxwin/BulkDock/OUTPUTS/openbind_d68ev3c_c2_elabs_1LSYI5W.sdf']

$$$$
P66057
     RDKit          3D

 21 22  0  0  0  0  0  0  0  0999 V2000
    0.9827   -5.7500   32.0732 C   0  0  0  0  0  0  0  0  0  0  0  0
   -0.1448   -6.6989   32.3515 C   0  0  0  0  0  0  0  0  0  0  0  0
   -0.5933   -7.0841   33.6310 C   0  0  0  0  0  0  0  0  0  0  0  0
   -0.1058   -6.6081   34.9821 C   0  0  0  0  0  0  0  0  0  0  0  0
   -0.2379   -7.3693   35.8571 O   0  0  0  0  0  0  0  0  0  0  0  0
    0.4532   -5.1734   34.9834 N   0  0  0  0  0  0  0  0  0  0  0  0
    0.8651   -4.3652   36.0373 C   0  0  0  0  0  0  0  0  0  0  0  0
    0.3271   -4.5705   37.3095 C   0  0  0  0  0  0  0  0  0  0  0  0
    0.7304   -3.7634   38.3643 C   0  0  0  0  0  0  0  0  0  0  0  0
    0.1830   -3.9337   39.5750 F   0  0  0  0  0  0  0  0  0  0  0  0
    1.6870   -2.7751   38.1825 C   0  0  0  0  0  0  0  0  0  0  0  0
    2.2424   -2.5816   36.9180 C   0  0  0  0  0  0  0  0  0  0  0  0
    1.8260   -3.3641   35.8249 C   0  0  0  0  0  0  0  0  0  0  0  0
    2.4869   -3.1808   34.4863 C   0  0  0  0  0  0  0  0  0  0  0  0
    1.5775   -3.0921   33.4696 F   0  0  0  0  0  0  0  0  0  0  0  0
    3.3216   -4.1985   34.1442 F   0  0  0  0  0  0  0  0  0  0  0  0
   -1.5910   -8.0761   33.7312 C   0  0  0  0  0  0  0  0  0  0  0  0
   -2.1502   -8.6007   32.5906 C   0  0  0  0  0  0  0  0  0  0  0  0
   -1.8088   -8.1988   31.3604 N   0  0  0  0  0  0  0  0  0  0  0  0
   -0.8190   -7.2790   31.2728 C   0  0  0  0  0  0  0  0  0  0  0  0
   -0.5376   -6.8459   29.6277 Cl  0  0  0  0  0  0  0  0  0  0  0  0
  1  2  1  0
  2  3  2  0
  3  4  1  0
  4  5  2  0
  4  6  1  0
  6  7  1  0
  7  8  2  0
  8  9  1  0
  9 10  1  0
  9 11  2  0
 11 12  1  0
 12 13  2  0
 13 14  1  0
 14 15  1  0
 14 16  1  0
  3 17  1  0
 17 18  2  0
 18 19  1  0
 19 20  2  0
 20 21  1  0
 20  2  1  0
 13  7  1  0
M  END
>  <ref_mols>  (523) 
7gov-a

>  <gnina_score>  (523) 
4.916

>  <smina_score_min>  (523) 
-5.883

>  <ref_pdb>  (523) 
7gov-a

>  <inspiration_score>  (523) 
None

>  <inchikey>  (523) 
TZWDYPLDTUDJDE-UHFFFAOYSA-N

>  <tags>  (523) 
BulkDock Fragalysis export,openbind_d68ev3c_c2_elabs_scored,openbind_d68ev3c_c2_elabs_scored_4.5plus,openbind_d68ev3c_c2_elabs,openbind_d68ev3c_c2_elabs_scored_5plus,syndirella_product,openbind_d68ev3c_c2_elabs_scored_top80percent,syndirella_placed

>  <smiles>  (523) 
Cc1c(C(=O)Nc2cc(F)ccc2C(F)F)ccnc1Cl

>  <subsites>  (523) 
None

>  <rmsd(smina/fragmenstein)>  (523) 
1.087

>  <alias>  (523) 
None

>  <energy_score>  (523) 
-16.381046

>  <HIPPO Pose ID>  (523) 
66057

>  <distance_score>  (523) 
0.518593

>  <HIPPO Compound ID>  (523) 
103762

>  <gnina_score_min>  (523) 
5.001

>  <name>  (523) 
P66057

>  <exports>  (523) 
['/opt/xchem-fragalysis-2/maxwin/BulkDock/OUTPUTS/openbind_d68ev3c_c2_elabs_1LOTQJ3.sdf', '/opt/xchem-fragalysis-2/maxwin/BulkDock/OUTPUTS/openbind_d68ev3c_c2_elabs_1LSYEHW.sdf', '/opt/xchem-fragalysis-2/maxwin/BulkDock/OUTPUTS/openbind_d68ev3c_c2_elabs_1LSYI5W.sdf']

$$$$
P66058
     RDKit          3D

 21 22  0  0  0  0  0  0  0  0999 V2000
   -2.0710   -8.3074   34.8977 C   0  0  0  0  0  0  0  0  0  0  0  0
   -1.3828   -7.7438   33.6898 C   0  0  0  0  0  0  0  0  0  0  0  0
   -0.2984   -6.8625   33.7049 C   0  0  0  0  0  0  0  0  0  0  0  0
    0.2623   -6.4421   35.0183 C   0  0  0  0  0  0  0  0  0  0  0  0
    0.3217   -7.2452   35.8570 O   0  0  0  0  0  0  0  0  0  0  0  0
    0.5801   -4.9446   35.0534 N   0  0  0  0  0  0  0  0  0  0  0  0
    1.1080   -4.1631   36.0616 C   0  0  0  0  0  0  0  0  0  0  0  0
    0.6127   -4.3502   37.3545 C   0  0  0  0  0  0  0  0  0  0  0  0
    1.0987   -3.5717   38.3939 C   0  0  0  0  0  0  0  0  0  0  0  0
    0.5599   -3.7182   39.6136 F   0  0  0  0  0  0  0  0  0  0  0  0
    2.1131   -2.6453   38.1614 C   0  0  0  0  0  0  0  0  0  0  0  0
    2.7436   -1.6945   39.4522 Cl  0  0  0  0  0  0  0  0  0  0  0  0
    2.6259   -2.4693   36.8718 C   0  0  0  0  0  0  0  0  0  0  0  0
    2.1029   -3.2176   35.8120 C   0  0  0  0  0  0  0  0  0  0  0  0
    2.6828   -3.0471   34.4617 C   0  0  0  0  0  0  0  0  0  0  0  0
    2.1276   -3.4479   33.4439 O   0  0  0  0  0  0  0  0  0  0  0  0
    0.2515   -6.4123   32.4998 C   0  0  0  0  0  0  0  0  0  0  0  0
   -0.2999   -6.8596   31.3116 C   0  0  0  0  0  0  0  0  0  0  0  0
   -1.3436   -7.7040   31.2485 N   0  0  0  0  0  0  0  0  0  0  0  0
   -1.8190   -8.1272   32.4360 C   0  0  0  0  0  0  0  0  0  0  0  0
   -3.0912   -9.2338   32.2743 Cl  0  0  0  0  0  0  0  0  0  0  0  0
  1  2  1  0
  2  3  2  0
  3  4  1  0
  4  5  2  0
  4  6  1  0
  6  7  1  0
  7  8  2  0
  8  9  1  0
  9 10  1  0
  9 11  2  0
 11 12  1  0
 11 13  1  0
 13 14  2  0
 14 15  1  0
 15 16  2  0
  3 17  1  0
 17 18  2  0
 18 19  1  0
 19 20  2  0
 20 21  1  0
 20  2  1  0
 14  7  1  0
M  END
>  <ref_mols>  (524) 
7gov-a

>  <gnina_score>  (524) 
5.029

>  <smina_score_min>  (524) 
-5.362

>  <ref_pdb>  (524) 
7gov-a

>  <inspiration_score>  (524) 
None

>  <inchikey>  (524) 
UTZWKWBBGQHUBL-UHFFFAOYSA-N

>  <tags>  (524) 
BulkDock Fragalysis export,openbind_d68ev3c_c2_elabs_scored,openbind_d68ev3c_c2_elabs_scored_4.5plus,openbind_d68ev3c_c2_elabs,openbind_d68ev3c_c2_elabs_scored_5plus,syndirella_product,openbind_d68ev3c_c2_elabs_scored_top80percent,syndirella_placed

>  <smiles>  (524) 
Cc1c(C(=O)Nc2cc(F)c(Cl)cc2C=O)ccnc1Cl

>  <subsites>  (524) 
None

>  <rmsd(smina/fragmenstein)>  (524) 
1.285

>  <alias>  (524) 
None

>  <energy_score>  (524) 
-18.965288

>  <HIPPO Pose ID>  (524) 
66058

>  <distance_score>  (524) 
0.647976

>  <HIPPO Compound ID>  (524) 
103763

>  <gnina_score_min>  (524) 
5.012

>  <name>  (524) 
P66058

>  <exports>  (524) 
['/opt/xchem-fragalysis-2/maxwin/BulkDock/OUTPUTS/openbind_d68ev3c_c2_elabs_1LOTQJ3.sdf', '/opt/xchem-fragalysis-2/maxwin/BulkDock/OUTPUTS/openbind_d68ev3c_c2_elabs_1LSYEHW.sdf', '/opt/xchem-fragalysis-2/maxwin/BulkDock/OUTPUTS/openbind_d68ev3c_c2_elabs_1LSYI5W.sdf']

$$$$
P66071
     RDKit          3D

 21 22  0  0  0  0  0  0  0  0999 V2000
   -0.1264   -6.4881   30.1208 C   0  0  0  0  0  0  0  0  0  0  0  0
   -0.6556   -7.1094   31.3798 C   0  0  0  0  0  0  0  0  0  0  0  0
   -0.1412   -6.7013   32.6079 C   0  0  0  0  0  0  0  0  0  0  0  0
   -0.7445   -7.1311   33.7988 C   0  0  0  0  0  0  0  0  0  0  0  0
   -0.2580   -6.6540   35.1445 C   0  0  0  0  0  0  0  0  0  0  0  0
   -0.4438   -7.3620   36.0511 O   0  0  0  0  0  0  0  0  0  0  0  0
    0.4324   -5.2735   35.0780 N   0  0  0  0  0  0  0  0  0  0  0  0
    0.9354   -4.4635   36.0939 C   0  0  0  0  0  0  0  0  0  0  0  0
    0.3548   -4.5421   37.3638 C   0  0  0  0  0  0  0  0  0  0  0  0
    0.7938   -3.6956   38.3768 C   0  0  0  0  0  0  0  0  0  0  0  0
    0.2088   -3.7565   39.5809 F   0  0  0  0  0  0  0  0  0  0  0  0
    1.8136   -2.7820   38.1408 C   0  0  0  0  0  0  0  0  0  0  0  0
    2.2288   -1.9681   39.1215 F   0  0  0  0  0  0  0  0  0  0  0  0
    2.4116   -2.7006   36.8893 C   0  0  0  0  0  0  0  0  0  0  0  0
    1.9770   -3.5495   35.8646 C   0  0  0  0  0  0  0  0  0  0  0  0
    2.7134   -3.5307   34.5844 C   0  0  0  0  0  0  0  0  0  0  0  0
    3.3726   -2.5603   34.2304 O   0  0  0  0  0  0  0  0  0  0  0  0
   -1.8058   -8.0376   33.7016 C   0  0  0  0  0  0  0  0  0  0  0  0
   -2.7823   -8.5919   35.0080 Cl  0  0  0  0  0  0  0  0  0  0  0  0
   -2.1974   -8.4504   32.4370 C   0  0  0  0  0  0  0  0  0  0  0  0
   -1.6815   -7.9824   31.2762 N   0  0  0  0  0  0  0  0  0  0  0  0
  1  2  1  0
  2  3  2  0
  3  4  1  0
  4  5  1  0
  5  6  2  0
  5  7  1  0
  7  8  1  0
  8  9  2  0
  9 10  1  0
 10 11  1  0
 10 12  2  0
 12 13  1  0
 12 14  1  0
 14 15  2  0
 15 16  1  0
 16 17  2  0
  4 18  2  0
 18 19  1  0
 18 20  1  0
 20 21  2  0
 21  2  1  0
 15  8  1  0
M  END
>  <ref_mols>  (525) 
7gov-a

>  <gnina_score>  (525) 
5.067

>  <smina_score_min>  (525) 
-6.24

>  <ref_pdb>  (525) 
7gov-a

>  <inspiration_score>  (525) 
None

>  <inchikey>  (525) 
BEPOPNDNRUWDGX-UHFFFAOYSA-N

>  <tags>  (525) 
BulkDock Fragalysis export,openbind_d68ev3c_c2_elabs_scored,openbind_d68ev3c_c2_elabs_scored_4.5plus,openbind_d68ev3c_c2_elabs,openbind_d68ev3c_c2_elabs_scored_5plus,syndirella_product,openbind_d68ev3c_c2_elabs_scored_top80percent,syndirella_placed

>  <smiles>  (525) 
Cc1cc(C(=O)Nc2cc(F)c(F)cc2C=O)c(Cl)cn1

>  <subsites>  (525) 
None

>  <rmsd(smina/fragmenstein)>  (525) 
1.228

>  <alias>  (525) 
None

>  <energy_score>  (525) 
-8.639084

>  <HIPPO Pose ID>  (525) 
66071

>  <distance_score>  (525) 
0.562599

>  <HIPPO Compound ID>  (525) 
103782

>  <gnina_score_min>  (525) 
5.116

>  <name>  (525) 
P66071

>  <exports>  (525) 
['/opt/xchem-fragalysis-2/maxwin/BulkDock/OUTPUTS/openbind_d68ev3c_c2_elabs_1LOTQJ3.sdf', '/opt/xchem-fragalysis-2/maxwin/BulkDock/OUTPUTS/openbind_d68ev3c_c2_elabs_1LSYEHW.sdf', '/opt/xchem-fragalysis-2/maxwin/BulkDock/OUTPUTS/openbind_d68ev3c_c2_elabs_1LSYI5W.sdf']

$$$$
P66073
     RDKit          3D

 21 22  0  0  0  0  0  0  0  0999 V2000
    3.7883   -2.6445   34.3187 C   0  0  0  0  0  0  0  0  0  0  0  0
    2.5713   -3.5445   34.4999 C   0  0  0  0  0  0  0  0  0  0  0  0
    1.9052   -3.5537   35.8636 C   0  0  0  0  0  0  0  0  0  0  0  0
    2.3575   -2.7377   36.9158 C   0  0  0  0  0  0  0  0  0  0  0  0
    1.7821   -2.8242   38.1867 C   0  0  0  0  0  0  0  0  0  0  0  0
    2.4283   -1.7150   39.5769 Br  0  0  0  0  0  0  0  0  0  0  0  0
    0.7487   -3.7214   38.4229 C   0  0  0  0  0  0  0  0  0  0  0  0
    0.1707   -3.8027   39.6305 F   0  0  0  0  0  0  0  0  0  0  0  0
    0.2868   -4.5442   37.4059 C   0  0  0  0  0  0  0  0  0  0  0  0
    0.8538   -4.4568   36.1324 C   0  0  0  0  0  0  0  0  0  0  0  0
    0.3708   -5.2794   35.1214 N   0  0  0  0  0  0  0  0  0  0  0  0
   -0.3572   -6.6409   35.1968 C   0  0  0  0  0  0  0  0  0  0  0  0
   -0.5961   -7.3197   36.1139 O   0  0  0  0  0  0  0  0  0  0  0  0
   -0.7998   -7.1438   33.8419 C   0  0  0  0  0  0  0  0  0  0  0  0
   -0.1770   -6.7169   32.6589 C   0  0  0  0  0  0  0  0  0  0  0  0
   -0.6664   -7.1304   31.4221 C   0  0  0  0  0  0  0  0  0  0  0  0
   -0.1244   -6.5006   30.1728 C   0  0  0  0  0  0  0  0  0  0  0  0
   -1.6823   -8.0121   31.3006 N   0  0  0  0  0  0  0  0  0  0  0  0
   -2.2117   -8.4833   32.4540 C   0  0  0  0  0  0  0  0  0  0  0  0
   -1.8479   -8.0638   33.7258 C   0  0  0  0  0  0  0  0  0  0  0  0
   -2.8455   -8.6309   35.0116 Cl  0  0  0  0  0  0  0  0  0  0  0  0
  1  2  1  0
  2  3  1  0
  3  4  2  0
  4  5  1  0
  5  6  1  0
  5  7  2  0
  7  8  1  0
  7  9  1  0
  9 10  2  0
 10 11  1  0
 11 12  1  0
 12 13  2  0
 12 14  1  0
 14 15  2  0
 15 16  1  0
 16 17  1  0
 16 18  2  0
 18 19  1  0
 19 20  2  0
 20 21  1  0
 10  3  1  0
 20 14  1  0
M  END
>  <ref_mols>  (526) 
7gov-a

>  <gnina_score>  (526) 
5.222

>  <smina_score_min>  (526) 
-5.938

>  <ref_pdb>  (526) 
7gov-a

>  <inspiration_score>  (526) 
None

>  <inchikey>  (526) 
KIDSSONNRDXSBR-UHFFFAOYSA-N

>  <tags>  (526) 
BulkDock Fragalysis export,openbind_d68ev3c_c2_elabs_scored,openbind_d68ev3c_c2_elabs_scored_4.5plus,openbind_d68ev3c_c2_elabs,openbind_d68ev3c_c2_elabs_scored_5plus,syndirella_product,openbind_d68ev3c_c2_elabs_scored_top80percent,syndirella_placed

>  <smiles>  (526) 
CCc1cc(Br)c(F)cc1NC(=O)c1cc(C)ncc1Cl

>  <subsites>  (526) 
None

>  <rmsd(smina/fragmenstein)>  (526) 
1.012

>  <alias>  (526) 
None

>  <energy_score>  (526) 
-8.881565

>  <HIPPO Pose ID>  (526) 
66073

>  <distance_score>  (526) 
0.600338

>  <HIPPO Compound ID>  (526) 
103786

>  <gnina_score_min>  (526) 
5.224

>  <name>  (526) 
P66073

>  <exports>  (526) 
['/opt/xchem-fragalysis-2/maxwin/BulkDock/OUTPUTS/openbind_d68ev3c_c2_elabs_1LOTQJ3.sdf', '/opt/xchem-fragalysis-2/maxwin/BulkDock/OUTPUTS/openbind_d68ev3c_c2_elabs_1LSYEHW.sdf', '/opt/xchem-fragalysis-2/maxwin/BulkDock/OUTPUTS/openbind_d68ev3c_c2_elabs_1LSYI5W.sdf']

$$$$
P66077
     RDKit          3D

 21 22  0  0  0  0  0  0  0  0999 V2000
   -0.1177   -6.4959   30.2363 C   0  0  0  0  0  0  0  0  0  0  0  0
   -0.6764   -7.1382   31.4722 C   0  0  0  0  0  0  0  0  0  0  0  0
   -0.2261   -6.7104   32.7203 C   0  0  0  0  0  0  0  0  0  0  0  0
   -0.8672   -7.1409   33.8945 C   0  0  0  0  0  0  0  0  0  0  0  0
   -0.4892   -6.6010   35.2647 C   0  0  0  0  0  0  0  0  0  0  0  0
   -0.8886   -7.1865   36.1899 O   0  0  0  0  0  0  0  0  0  0  0  0
    0.3831   -5.3285   35.1861 N   0  0  0  0  0  0  0  0  0  0  0  0
    0.8477   -4.4908   36.1900 C   0  0  0  0  0  0  0  0  0  0  0  0
    0.2912   -4.5381   37.4671 C   0  0  0  0  0  0  0  0  0  0  0  0
    0.7721   -3.6873   38.4536 C   0  0  0  0  0  0  0  0  0  0  0  0
    0.2076   -3.7302   39.6695 F   0  0  0  0  0  0  0  0  0  0  0  0
    1.8130   -2.8043   38.1824 C   0  0  0  0  0  0  0  0  0  0  0  0
    2.4865   -1.6665   39.5352 Br  0  0  0  0  0  0  0  0  0  0  0  0
    2.3736   -2.7551   36.9043 C   0  0  0  0  0  0  0  0  0  0  0  0
    1.8891   -3.5932   35.8875 C   0  0  0  0  0  0  0  0  0  0  0  0
    2.5647   -3.6007   34.5391 C   0  0  0  0  0  0  0  0  0  0  0  0
    1.5930   -3.4354   33.5042 O   0  0  0  0  0  0  0  0  0  0  0  0
   -1.8902   -8.0880   33.7506 C   0  0  0  0  0  0  0  0  0  0  0  0
   -2.9109   -8.6894   35.0045 Cl  0  0  0  0  0  0  0  0  0  0  0  0
   -2.2137   -8.5191   32.4699 C   0  0  0  0  0  0  0  0  0  0  0  0
   -1.6698   -8.0408   31.3274 N   0  0  0  0  0  0  0  0  0  0  0  0
  1  2  1  0
  2  3  2  0
  3  4  1  0
  4  5  1  0
  5  6  2  0
  5  7  1  0
  7  8  1  0
  8  9  2  0
  9 10  1  0
 10 11  1  0
 10 12  2  0
 12 13  1  0
 12 14  1  0
 14 15  2  0
 15 16  1  0
 16 17  1  0
  4 18  2  0
 18 19  1  0
 18 20  1  0
 20 21  2  0
 21  2  1  0
 15  8  1  0
M  END
>  <ref_mols>  (527) 
7gov-a

>  <gnina_score>  (527) 
5.017

>  <smina_score_min>  (527) 
-5.927

>  <ref_pdb>  (527) 
7gov-a

>  <inspiration_score>  (527) 
None

>  <inchikey>  (527) 
RAIKNKYPXRFYIF-UHFFFAOYSA-N

>  <tags>  (527) 
BulkDock Fragalysis export,openbind_d68ev3c_c2_elabs_scored,openbind_d68ev3c_c2_elabs_scored_4.5plus,openbind_d68ev3c_c2_elabs,openbind_d68ev3c_c2_elabs_scored_5plus,syndirella_product,openbind_d68ev3c_c2_elabs_scored_top80percent,syndirella_placed

>  <smiles>  (527) 
Cc1cc(C(=O)Nc2cc(F)c(Br)cc2CO)c(Cl)cn1

>  <subsites>  (527) 
None

>  <rmsd(smina/fragmenstein)>  (527) 
0.954

>  <alias>  (527) 
None

>  <energy_score>  (527) 
-11.043728

>  <HIPPO Pose ID>  (527) 
66077

>  <distance_score>  (527) 
0.67356

>  <HIPPO Compound ID>  (527) 
103791

>  <gnina_score_min>  (527) 
5.055

>  <name>  (527) 
P66077

>  <exports>  (527) 
['/opt/xchem-fragalysis-2/maxwin/BulkDock/OUTPUTS/openbind_d68ev3c_c2_elabs_1LOTQJ3.sdf', '/opt/xchem-fragalysis-2/maxwin/BulkDock/OUTPUTS/openbind_d68ev3c_c2_elabs_1LSYEHW.sdf', '/opt/xchem-fragalysis-2/maxwin/BulkDock/OUTPUTS/openbind_d68ev3c_c2_elabs_1LSYI5W.sdf']

$$$$
P66079
     RDKit          3D

 21 22  0  0  0  0  0  0  0  0999 V2000
    4.3232   -1.7841   38.0287 C   0  0  0  0  0  0  0  0  0  0  0  0
    3.6603   -2.4312   36.8168 C   0  0  0  0  0  0  0  0  0  0  0  0
    2.2813   -3.0349   37.0133 C   0  0  0  0  0  0  0  0  0  0  0  0
    1.5626   -2.8343   38.2019 C   0  0  0  0  0  0  0  0  0  0  0  0
    0.2945   -3.3809   38.3683 C   0  0  0  0  0  0  0  0  0  0  0  0
   -0.3399   -3.2131   39.5355 F   0  0  0  0  0  0  0  0  0  0  0  0
   -0.3177   -4.1081   37.3640 C   0  0  0  0  0  0  0  0  0  0  0  0
    0.3864   -4.3459   36.1926 C   0  0  0  0  0  0  0  0  0  0  0  0
   -0.1954   -5.1758   35.2488 N   0  0  0  0  0  0  0  0  0  0  0  0
    0.1314   -6.6264   34.8574 C   0  0  0  0  0  0  0  0  0  0  0  0
    0.8900   -7.3800   35.3182 O   0  0  0  0  0  0  0  0  0  0  0  0
   -0.5972   -7.0278   33.6449 C   0  0  0  0  0  0  0  0  0  0  0  0
   -0.1054   -6.5530   32.4303 C   0  0  0  0  0  0  0  0  0  0  0  0
   -0.6844   -7.0051   31.2549 C   0  0  0  0  0  0  0  0  0  0  0  0
   -0.1982   -6.4519   29.9490 C   0  0  0  0  0  0  0  0  0  0  0  0
   -1.7066   -7.8985   31.2446 N   0  0  0  0  0  0  0  0  0  0  0  0
   -2.1376   -8.3544   32.4505 C   0  0  0  0  0  0  0  0  0  0  0  0
   -1.6419   -7.9322   33.6705 C   0  0  0  0  0  0  0  0  0  0  0  0
   -2.4194   -8.4337   35.1062 Cl  0  0  0  0  0  0  0  0  0  0  0  0
    1.6854   -3.8204   35.9912 C   0  0  0  0  0  0  0  0  0  0  0  0
    2.4471   -4.1448   34.7264 C   0  0  0  0  0  0  0  0  0  0  0  0
  1  2  1  0
  2  3  1  0
  3  4  2  0
  4  5  1  0
  5  6  1  0
  5  7  2  0
  7  8  1  0
  8  9  1  0
  9 10  1  0
 10 11  2  0
 10 12  1  0
 12 13  2  0
 13 14  1  0
 14 15  1  0
 14 16  2  0
 16 17  1  0
 17 18  2  0
 18 19  1  0
  8 20  2  0
 20 21  1  0
 20  3  1  0
 18 12  1  0
M  END
>  <ref_mols>  (528) 
7gov-a

>  <gnina_score>  (528) 
5.127

>  <smina_score_min>  (528) 
-5.87

>  <ref_pdb>  (528) 
7gov-a

>  <inspiration_score>  (528) 
None

>  <inchikey>  (528) 
SRBJOYSLOGZDIP-UHFFFAOYSA-N

>  <tags>  (528) 
BulkDock Fragalysis export,openbind_d68ev3c_c2_elabs_scored,openbind_d68ev3c_c2_elabs_scored_4.5plus,openbind_d68ev3c_c2_elabs,openbind_d68ev3c_c2_elabs_scored_5plus,syndirella_product,openbind_d68ev3c_c2_elabs_scored_top80percent,syndirella_placed

>  <smiles>  (528) 
CCc1cc(F)cc(NC(=O)c2cc(C)ncc2Cl)c1C

>  <subsites>  (528) 
None

>  <rmsd(smina/fragmenstein)>  (528) 
0.957

>  <alias>  (528) 
None

>  <energy_score>  (528) 
-7.69332

>  <HIPPO Pose ID>  (528) 
66079

>  <distance_score>  (528) 
0.422133

>  <HIPPO Compound ID>  (528) 
103799

>  <gnina_score_min>  (528) 
5.14

>  <name>  (528) 
P66079

>  <exports>  (528) 
['/opt/xchem-fragalysis-2/maxwin/BulkDock/OUTPUTS/openbind_d68ev3c_c2_elabs_1LOTQJ3.sdf', '/opt/xchem-fragalysis-2/maxwin/BulkDock/OUTPUTS/openbind_d68ev3c_c2_elabs_1LSYEHW.sdf', '/opt/xchem-fragalysis-2/maxwin/BulkDock/OUTPUTS/openbind_d68ev3c_c2_elabs_1LSYI5W.sdf']

$$$$
P66080
     RDKit          3D

 21 22  0  0  0  0  0  0  0  0999 V2000
   -0.1687   -6.4120   30.1495 C   0  0  0  0  0  0  0  0  0  0  0  0
   -0.7502   -7.0335   31.3853 C   0  0  0  0  0  0  0  0  0  0  0  0
   -0.5061   -6.4347   32.6156 C   0  0  0  0  0  0  0  0  0  0  0  0
   -1.0346   -6.9991   33.7866 C   0  0  0  0  0  0  0  0  0  0  0  0
   -0.8405   -6.3164   35.1102 C   0  0  0  0  0  0  0  0  0  0  0  0
   -1.7189   -6.3658   35.8736 O   0  0  0  0  0  0  0  0  0  0  0  0
    0.5030   -5.5624   35.1802 N   0  0  0  0  0  0  0  0  0  0  0  0
    0.9874   -4.6699   36.1255 C   0  0  0  0  0  0  0  0  0  0  0  0
    0.2647   -4.4172   37.2948 C   0  0  0  0  0  0  0  0  0  0  0  0
    0.7522   -3.5051   38.2205 C   0  0  0  0  0  0  0  0  0  0  0  0
    0.0752   -3.2966   39.3576 F   0  0  0  0  0  0  0  0  0  0  0  0
    1.9273   -2.8111   37.9868 C   0  0  0  0  0  0  0  0  0  0  0  0
    2.6342   -3.0640   36.8163 C   0  0  0  0  0  0  0  0  0  0  0  0
    3.7798   -2.3962   36.6062 F   0  0  0  0  0  0  0  0  0  0  0  0
    2.1969   -4.0018   35.8683 C   0  0  0  0  0  0  0  0  0  0  0  0
    3.1083   -4.2829   34.6965 C   0  0  0  0  0  0  0  0  0  0  0  0
    2.4991   -5.0695   33.6665 O   0  0  0  0  0  0  0  0  0  0  0  0
   -1.8499   -8.1241   33.6654 C   0  0  0  0  0  0  0  0  0  0  0  0
   -2.7509   -8.8403   34.9405 Cl  0  0  0  0  0  0  0  0  0  0  0  0
   -2.0390   -8.6524   32.3987 C   0  0  0  0  0  0  0  0  0  0  0  0
   -1.5259   -8.1335   31.2565 N   0  0  0  0  0  0  0  0  0  0  0  0
  1  2  1  0
  2  3  2  0
  3  4  1  0
  4  5  1  0
  5  6  2  0
  5  7  1  0
  7  8  1  0
  8  9  2  0
  9 10  1  0
 10 11  1  0
 10 12  2  0
 12 13  1  0
 13 14  1  0
 13 15  2  0
 15 16  1  0
 16 17  1  0
  4 18  2  0
 18 19  1  0
 18 20  1  0
 20 21  2  0
 21  2  1  0
 15  8  1  0
M  END
>  <ref_mols>  (529) 
7gov-a

>  <gnina_score>  (529) 
5.094

>  <smina_score_min>  (529) 
-5.515

>  <ref_pdb>  (529) 
7gov-a

>  <inspiration_score>  (529) 
None

>  <inchikey>  (529) 
ABBXXSYWMQLAIN-UHFFFAOYSA-N

>  <tags>  (529) 
BulkDock Fragalysis export,openbind_d68ev3c_c2_elabs_scored,openbind_d68ev3c_c2_elabs_scored_4.5plus,openbind_d68ev3c_c2_elabs,openbind_d68ev3c_c2_elabs_scored_5plus,syndirella_product,openbind_d68ev3c_c2_elabs_scored_top80percent,syndirella_placed

>  <smiles>  (529) 
Cc1cc(C(=O)Nc2cc(F)cc(F)c2CO)c(Cl)cn1

>  <subsites>  (529) 
None

>  <rmsd(smina/fragmenstein)>  (529) 
1.029

>  <alias>  (529) 
None

>  <energy_score>  (529) 
-15.388782

>  <HIPPO Pose ID>  (529) 
66080

>  <distance_score>  (529) 
0.85794

>  <HIPPO Compound ID>  (529) 
103800

>  <gnina_score_min>  (529) 
5.096

>  <name>  (529) 
P66080

>  <exports>  (529) 
['/opt/xchem-fragalysis-2/maxwin/BulkDock/OUTPUTS/openbind_d68ev3c_c2_elabs_1LOTQJ3.sdf', '/opt/xchem-fragalysis-2/maxwin/BulkDock/OUTPUTS/openbind_d68ev3c_c2_elabs_1LSYEHW.sdf', '/opt/xchem-fragalysis-2/maxwin/BulkDock/OUTPUTS/openbind_d68ev3c_c2_elabs_1LSYI5W.sdf']

$$$$
P66082
     RDKit          3D

 21 23  0  0  0  0  0  0  0  0999 V2000
   -0.1150   -6.4967   30.2227 C   0  0  0  0  0  0  0  0  0  0  0  0
   -0.6692   -7.1352   31.4620 C   0  0  0  0  0  0  0  0  0  0  0  0
   -0.2036   -6.7183   32.7068 C   0  0  0  0  0  0  0  0  0  0  0  0
   -0.8436   -7.1471   33.8803 C   0  0  0  0  0  0  0  0  0  0  0  0
   -0.4320   -6.6248   35.2394 C   0  0  0  0  0  0  0  0  0  0  0  0
   -0.7213   -7.2701   36.1660 O   0  0  0  0  0  0  0  0  0  0  0  0
    0.3315   -5.2840   35.1522 N   0  0  0  0  0  0  0  0  0  0  0  0
    0.7974   -4.4425   36.1574 C   0  0  0  0  0  0  0  0  0  0  0  0
    0.2794   -4.5520   37.4490 C   0  0  0  0  0  0  0  0  0  0  0  0
    0.7268   -3.6891   38.4368 C   0  0  0  0  0  0  0  0  0  0  0  0
    0.2083   -3.7703   39.6691 F   0  0  0  0  0  0  0  0  0  0  0  0
    1.6904   -2.7307   38.1639 C   0  0  0  0  0  0  0  0  0  0  0  0
    2.2144   -2.6322   36.8740 C   0  0  0  0  0  0  0  0  0  0  0  0
    1.7880   -3.4857   35.8381 C   0  0  0  0  0  0  0  0  0  0  0  0
    2.4097   -3.3744   34.4565 C   0  0  0  0  0  0  0  0  0  0  0  0
    3.9156   -3.3490   34.3059 C   0  0  0  0  0  0  0  0  0  0  0  0
    3.1470   -4.5508   33.8545 C   0  0  0  0  0  0  0  0  0  0  0  0
   -1.8781   -8.0797   33.7474 C   0  0  0  0  0  0  0  0  0  0  0  0
   -2.8897   -8.6604   35.0161 Cl  0  0  0  0  0  0  0  0  0  0  0  0
   -2.2171   -8.5026   32.4691 C   0  0  0  0  0  0  0  0  0  0  0  0
   -1.6755   -8.0255   31.3238 N   0  0  0  0  0  0  0  0  0  0  0  0
  1  2  1  0
  2  3  2  0
  3  4  1  0
  4  5  1  0
  5  6  2  0
  5  7  1  0
  7  8  1  0
  8  9  2  0
  9 10  1  0
 10 11  1  0
 10 12  2  0
 12 13  1  0
 13 14  2  0
 14 15  1  0
 15 16  1  0
 16 17  1  0
  4 18  2  0
 18 19  1  0
 18 20  1  0
 20 21  2  0
 21  2  1  0
 14  8  1  0
 17 15  1  0
M  END
>  <ref_mols>  (530) 
7gov-a

>  <gnina_score>  (530) 
5.203

>  <smina_score_min>  (530) 
-5.99

>  <ref_pdb>  (530) 
7gov-a

>  <inspiration_score>  (530) 
None

>  <inchikey>  (530) 
VBWXZBBVQGAXCO-UHFFFAOYSA-N

>  <tags>  (530) 
BulkDock Fragalysis export,openbind_d68ev3c_c2_elabs_scored,openbind_d68ev3c_c2_elabs_scored_4.5plus,openbind_d68ev3c_c2_elabs,openbind_d68ev3c_c2_elabs_scored_5plus,syndirella_product,openbind_d68ev3c_c2_elabs_scored_top80percent,syndirella_placed

>  <smiles>  (530) 
Cc1cc(C(=O)Nc2cc(F)ccc2C2CC2)c(Cl)cn1

>  <subsites>  (530) 
None

>  <rmsd(smina/fragmenstein)>  (530) 
0.892

>  <alias>  (530) 
None

>  <energy_score>  (530) 
-21.086406

>  <HIPPO Pose ID>  (530) 
66082

>  <distance_score>  (530) 
0.668333

>  <HIPPO Compound ID>  (530) 
103805

>  <gnina_score_min>  (530) 
5.217

>  <name>  (530) 
P66082

>  <exports>  (530) 
['/opt/xchem-fragalysis-2/maxwin/BulkDock/OUTPUTS/openbind_d68ev3c_c2_elabs_1LOTQJ3.sdf', '/opt/xchem-fragalysis-2/maxwin/BulkDock/OUTPUTS/openbind_d68ev3c_c2_elabs_1LSYEHW.sdf', '/opt/xchem-fragalysis-2/maxwin/BulkDock/OUTPUTS/openbind_d68ev3c_c2_elabs_1LSYI5W.sdf']

$$$$
P66084
     RDKit          3D

 21 22  0  0  0  0  0  0  0  0999 V2000
   -0.1218   -6.5063   30.2061 C   0  0  0  0  0  0  0  0  0  0  0  0
   -0.6720   -7.1420   31.4485 C   0  0  0  0  0  0  0  0  0  0  0  0
   -0.1956   -6.7307   32.6901 C   0  0  0  0  0  0  0  0  0  0  0  0
   -0.8329   -7.1589   33.8651 C   0  0  0  0  0  0  0  0  0  0  0  0
   -0.4002   -6.6474   35.2175 C   0  0  0  0  0  0  0  0  0  0  0  0
   -0.6328   -7.3165   36.1430 O   0  0  0  0  0  0  0  0  0  0  0  0
    0.3201   -5.2838   35.1240 N   0  0  0  0  0  0  0  0  0  0  0  0
    0.8022   -4.4462   36.1245 C   0  0  0  0  0  0  0  0  0  0  0  0
    0.2562   -4.5417   37.4066 C   0  0  0  0  0  0  0  0  0  0  0  0
    0.7136   -3.7031   38.4104 C   0  0  0  0  0  0  0  0  0  0  0  0
    0.1688   -3.7751   39.6321 F   0  0  0  0  0  0  0  0  0  0  0  0
    1.7245   -2.7873   38.1673 C   0  0  0  0  0  0  0  0  0  0  0  0
    2.2886   -2.7046   36.8931 C   0  0  0  0  0  0  0  0  0  0  0  0
    1.8316   -3.5201   35.8398 C   0  0  0  0  0  0  0  0  0  0  0  0
    2.5378   -3.5021   34.4853 C   0  0  0  0  0  0  0  0  0  0  0  0
    3.6414   -4.5632   34.4459 C   0  0  0  0  0  0  0  0  0  0  0  0
    3.1073   -2.1357   34.0810 C   0  0  0  0  0  0  0  0  0  0  0  0
   -1.8745   -8.0824   33.7409 C   0  0  0  0  0  0  0  0  0  0  0  0
   -2.8782   -8.6503   35.0203 Cl  0  0  0  0  0  0  0  0  0  0  0  0
   -2.2245   -8.5007   32.4650 C   0  0  0  0  0  0  0  0  0  0  0  0
   -1.6858   -8.0253   31.3168 N   0  0  0  0  0  0  0  0  0  0  0  0
  1  2  1  0
  2  3  2  0
  3  4  1  0
  4  5  1  0
  5  6  2  0
  5  7  1  0
  7  8  1  0
  8  9  2  0
  9 10  1  0
 10 11  1  0
 10 12  2  0
 12 13  1  0
 13 14  2  0
 14 15  1  0
 15 16  1  0
 15 17  1  0
  4 18  2  0
 18 19  1  0
 18 20  1  0
 20 21  2  0
 21  2  1  0
 14  8  1  0
M  END
>  <ref_mols>  (531) 
7gov-a

>  <gnina_score>  (531) 
5.17

>  <smina_score_min>  (531) 
-5.838

>  <ref_pdb>  (531) 
7gov-a

>  <inspiration_score>  (531) 
None

>  <inchikey>  (531) 
VELDFMMVTBERJU-UHFFFAOYSA-N

>  <tags>  (531) 
BulkDock Fragalysis export,openbind_d68ev3c_c2_elabs_scored,openbind_d68ev3c_c2_elabs_scored_4.5plus,openbind_d68ev3c_c2_elabs,openbind_d68ev3c_c2_elabs_scored_5plus,syndirella_product,openbind_d68ev3c_c2_elabs_scored_top80percent,syndirella_placed

>  <smiles>  (531) 
Cc1cc(C(=O)Nc2cc(F)ccc2C(C)C)c(Cl)cn1

>  <subsites>  (531) 
None

>  <rmsd(smina/fragmenstein)>  (531) 
1.133

>  <alias>  (531) 
None

>  <energy_score>  (531) 
-15.186624

>  <HIPPO Pose ID>  (531) 
66084

>  <distance_score>  (531) 
0.622161

>  <HIPPO Compound ID>  (531) 
103807

>  <gnina_score_min>  (531) 
5.187

>  <name>  (531) 
P66084

>  <exports>  (531) 
['/opt/xchem-fragalysis-2/maxwin/BulkDock/OUTPUTS/openbind_d68ev3c_c2_elabs_1LOTQJ3.sdf', '/opt/xchem-fragalysis-2/maxwin/BulkDock/OUTPUTS/openbind_d68ev3c_c2_elabs_1LSYEHW.sdf', '/opt/xchem-fragalysis-2/maxwin/BulkDock/OUTPUTS/openbind_d68ev3c_c2_elabs_1LSYI5W.sdf']

$$$$
P66086
     RDKit          3D

 21 22  0  0  0  0  0  0  0  0999 V2000
   -0.1251   -6.4945   30.1516 C   0  0  0  0  0  0  0  0  0  0  0  0
   -0.6632   -7.1210   31.4040 C   0  0  0  0  0  0  0  0  0  0  0  0
   -0.1644   -6.7105   32.6375 C   0  0  0  0  0  0  0  0  0  0  0  0
   -0.7803   -7.1396   33.8224 C   0  0  0  0  0  0  0  0  0  0  0  0
   -0.3165   -6.6512   35.1721 C   0  0  0  0  0  0  0  0  0  0  0  0
   -0.5135   -7.3526   36.0820 O   0  0  0  0  0  0  0  0  0  0  0  0
    0.3796   -5.2729   35.1026 N   0  0  0  0  0  0  0  0  0  0  0  0
    0.8748   -4.4592   36.1158 C   0  0  0  0  0  0  0  0  0  0  0  0
    0.3029   -4.5525   37.3823 C   0  0  0  0  0  0  0  0  0  0  0  0
    0.7384   -3.7166   38.3990 C   0  0  0  0  0  0  0  0  0  0  0  0
    0.1447   -3.8138   39.5980 F   0  0  0  0  0  0  0  0  0  0  0  0
    1.7488   -2.7757   38.1950 C   0  0  0  0  0  0  0  0  0  0  0  0
    2.1700   -1.9020   39.3420 C   0  0  0  0  0  0  0  0  0  0  0  0
    2.3344   -2.6969   36.9154 C   0  0  0  0  0  0  0  0  0  0  0  0
    3.6991   -1.3877   36.6025 Br  0  0  0  0  0  0  0  0  0  0  0  0
    1.9204   -3.5507   35.8629 C   0  0  0  0  0  0  0  0  0  0  0  0
    2.6182   -3.5252   34.5245 C   0  0  0  0  0  0  0  0  0  0  0  0
   -1.8333   -8.0538   33.7144 C   0  0  0  0  0  0  0  0  0  0  0  0
   -2.8210   -8.6149   35.0097 Cl  0  0  0  0  0  0  0  0  0  0  0  0
   -2.2081   -8.4696   32.4452 C   0  0  0  0  0  0  0  0  0  0  0  0
   -1.6836   -7.9991   31.2889 N   0  0  0  0  0  0  0  0  0  0  0  0
  1  2  1  0
  2  3  2  0
  3  4  1  0
  4  5  1  0
  5  6  2  0
  5  7  1  0
  7  8  1  0
  8  9  2  0
  9 10  1  0
 10 11  1  0
 10 12  2  0
 12 13  1  0
 12 14  1  0
 14 15  1  0
 14 16  2  0
 16 17  1  0
  4 18  2  0
 18 19  1  0
 18 20  1  0
 20 21  2  0
 21  2  1  0
 16  8  1  0
M  END
>  <ref_mols>  (532) 
7gov-a

>  <gnina_score>  (532) 
5.214

>  <smina_score_min>  (532) 
-6.196

>  <ref_pdb>  (532) 
7gov-a

>  <inspiration_score>  (532) 
None

>  <inchikey>  (532) 
YKHRCSPBBPWUIH-UHFFFAOYSA-N

>  <tags>  (532) 
BulkDock Fragalysis export,openbind_d68ev3c_c2_elabs_scored,openbind_d68ev3c_c2_elabs_scored_4.5plus,openbind_d68ev3c_c2_elabs,openbind_d68ev3c_c2_elabs_scored_5plus,syndirella_product,openbind_d68ev3c_c2_elabs_scored_top80percent,syndirella_placed

>  <smiles>  (532) 
Cc1cc(C(=O)Nc2cc(F)c(C)c(Br)c2C)c(Cl)cn1

>  <subsites>  (532) 
None

>  <rmsd(smina/fragmenstein)>  (532) 
1.009

>  <alias>  (532) 
None

>  <energy_score>  (532) 
-8.972052

>  <HIPPO Pose ID>  (532) 
66086

>  <distance_score>  (532) 
0.58369

>  <HIPPO Compound ID>  (532) 
103813

>  <gnina_score_min>  (532) 
5.22

>  <name>  (532) 
P66086

>  <exports>  (532) 
['/opt/xchem-fragalysis-2/maxwin/BulkDock/OUTPUTS/openbind_d68ev3c_c2_elabs_1LOTQJ3.sdf', '/opt/xchem-fragalysis-2/maxwin/BulkDock/OUTPUTS/openbind_d68ev3c_c2_elabs_1LSYEHW.sdf', '/opt/xchem-fragalysis-2/maxwin/BulkDock/OUTPUTS/openbind_d68ev3c_c2_elabs_1LSYI5W.sdf']

$$$$
P66114
     RDKit          3D

 21 22  0  0  0  0  0  0  0  0999 V2000
    4.8402   -2.1876   37.3507 C   0  0  0  0  0  0  0  0  0  0  0  0
    3.4978   -1.7231   36.8096 C   0  0  0  0  0  0  0  0  0  0  0  0
    2.4009   -2.7529   36.9734 C   0  0  0  0  0  0  0  0  0  0  0  0
    1.6765   -2.7439   38.1763 C   0  0  0  0  0  0  0  0  0  0  0  0
    0.6106   -3.6112   38.3628 C   0  0  0  0  0  0  0  0  0  0  0  0
   -0.0685   -3.5782   39.5174 F   0  0  0  0  0  0  0  0  0  0  0  0
    0.2186   -4.4866   37.3643 C   0  0  0  0  0  0  0  0  0  0  0  0
    0.9386   -4.5381   36.1705 C   0  0  0  0  0  0  0  0  0  0  0  0
    0.5029   -5.3699   35.1358 N   0  0  0  0  0  0  0  0  0  0  0  0
   -0.6929   -6.3444   35.0679 C   0  0  0  0  0  0  0  0  0  0  0  0
   -1.4574   -6.6637   35.8919 O   0  0  0  0  0  0  0  0  0  0  0  0
   -0.8792   -6.9547   33.7055 C   0  0  0  0  0  0  0  0  0  0  0  0
   -1.5693   -8.1769   33.6968 C   0  0  0  0  0  0  0  0  0  0  0  0
   -1.8799   -8.7594   32.4876 C   0  0  0  0  0  0  0  0  0  0  0  0
   -1.5189   -8.2448   31.2954 N   0  0  0  0  0  0  0  0  0  0  0  0
   -0.7926   -7.0928   31.3047 C   0  0  0  0  0  0  0  0  0  0  0  0
   -0.2960   -6.6141   29.9676 C   0  0  0  0  0  0  0  0  0  0  0  0
   -0.5030   -6.3852   32.4796 C   0  0  0  0  0  0  0  0  0  0  0  0
    0.2082   -4.8123   32.3318 Cl  0  0  0  0  0  0  0  0  0  0  0  0
    2.0694   -3.7040   35.9759 C   0  0  0  0  0  0  0  0  0  0  0  0
    2.8809   -3.7964   34.7061 C   0  0  0  0  0  0  0  0  0  0  0  0
  1  2  1  0
  2  3  1  0
  3  4  2  0
  4  5  1  0
  5  6  1  0
  5  7  2  0
  7  8  1  0
  8  9  1  0
  9 10  1  0
 10 11  2  0
 10 12  1  0
 12 13  2  0
 13 14  1  0
 14 15  2  0
 15 16  1  0
 16 17  1  0
 16 18  2  0
 18 19  1  0
  8 20  2  0
 20 21  1  0
 20  3  1  0
 18 12  1  0
M  END
>  <ref_mols>  (533) 
7gov-a

>  <gnina_score>  (533) 
5.005

>  <smina_score_min>  (533) 
-5.758

>  <ref_pdb>  (533) 
7gov-a

>  <inspiration_score>  (533) 
None

>  <inchikey>  (533) 
RHVYLTUAXKKZQD-UHFFFAOYSA-N

>  <tags>  (533) 
BulkDock Fragalysis export,openbind_d68ev3c_c2_elabs_scored,openbind_d68ev3c_c2_elabs_scored_4.5plus,openbind_d68ev3c_c2_elabs,openbind_d68ev3c_c2_elabs_scored_5plus,syndirella_product,openbind_d68ev3c_c2_elabs_scored_top80percent,syndirella_placed

>  <smiles>  (533) 
CCc1cc(F)cc(NC(=O)c2ccnc(C)c2Cl)c1C

>  <subsites>  (533) 
None

>  <rmsd(smina/fragmenstein)>  (533) 
1.137

>  <alias>  (533) 
None

>  <energy_score>  (533) 
-27.828875

>  <HIPPO Pose ID>  (533) 
66114

>  <distance_score>  (533) 
0.75821

>  <HIPPO Compound ID>  (533) 
103865

>  <gnina_score_min>  (533) 
5.012

>  <name>  (533) 
P66114

>  <exports>  (533) 
['/opt/xchem-fragalysis-2/maxwin/BulkDock/OUTPUTS/openbind_d68ev3c_c2_elabs_1LOTQJ3.sdf', '/opt/xchem-fragalysis-2/maxwin/BulkDock/OUTPUTS/openbind_d68ev3c_c2_elabs_1LSYEHW.sdf', '/opt/xchem-fragalysis-2/maxwin/BulkDock/OUTPUTS/openbind_d68ev3c_c2_elabs_1LSYI5W.sdf']

$$$$
P66117
     RDKit          3D

 21 23  0  0  0  0  0  0  0  0999 V2000
   -2.5925   -9.4003   32.4915 C   0  0  0  0  0  0  0  0  0  0  0  0
   -1.7330   -8.1904   32.4556 C   0  0  0  0  0  0  0  0  0  0  0  0
   -1.3142   -7.7935   31.2295 N   0  0  0  0  0  0  0  0  0  0  0  0
   -0.3284   -6.8737   31.2061 C   0  0  0  0  0  0  0  0  0  0  0  0
    0.2526   -6.3360   32.3442 C   0  0  0  0  0  0  0  0  0  0  0  0
   -0.2420   -6.7271   33.5902 C   0  0  0  0  0  0  0  0  0  0  0  0
    0.4230   -6.3336   34.8616 C   0  0  0  0  0  0  0  0  0  0  0  0
    0.5625   -7.1569   35.6738 O   0  0  0  0  0  0  0  0  0  0  0  0
    0.7274   -4.8292   34.9065 N   0  0  0  0  0  0  0  0  0  0  0  0
    1.1630   -4.0295   35.9511 C   0  0  0  0  0  0  0  0  0  0  0  0
    0.6313   -4.3299   37.2171 C   0  0  0  0  0  0  0  0  0  0  0  0
    0.9525   -3.5476   38.3101 C   0  0  0  0  0  0  0  0  0  0  0  0
    0.3969   -3.8043   39.5019 F   0  0  0  0  0  0  0  0  0  0  0  0
    1.8241   -2.4860   38.1719 C   0  0  0  0  0  0  0  0  0  0  0  0
    2.3677   -2.2056   36.9140 C   0  0  0  0  0  0  0  0  0  0  0  0
    2.0557   -2.9570   35.7546 C   0  0  0  0  0  0  0  0  0  0  0  0
    2.7896   -2.5759   34.4706 C   0  0  0  0  0  0  0  0  0  0  0  0
    2.0995   -2.4588   33.1369 C   0  0  0  0  0  0  0  0  0  0  0  0
    3.1163   -3.5455   33.3670 C   0  0  0  0  0  0  0  0  0  0  0  0
   -1.3046   -7.6226   33.6507 C   0  0  0  0  0  0  0  0  0  0  0  0
   -2.1238   -8.0161   35.1229 Cl  0  0  0  0  0  0  0  0  0  0  0  0
  1  2  1  0
  2  3  2  0
  3  4  1  0
  4  5  2  0
  5  6  1  0
  6  7  1  0
  7  8  2  0
  7  9  1  0
  9 10  1  0
 10 11  2  0
 11 12  1  0
 12 13  1  0
 12 14  2  0
 14 15  1  0
 15 16  2  0
 16 17  1  0
 17 18  1  0
 18 19  1  0
  6 20  2  0
 20 21  1  0
 20  2  1  0
 16 10  1  0
 19 17  1  0
M  END
>  <ref_mols>  (534) 
7gov-a

>  <gnina_score>  (534) 
5.065

>  <smina_score_min>  (534) 
-5.408

>  <ref_pdb>  (534) 
7gov-a

>  <inspiration_score>  (534) 
None

>  <inchikey>  (534) 
UPDPACWTRGRLSE-UHFFFAOYSA-N

>  <tags>  (534) 
BulkDock Fragalysis export,openbind_d68ev3c_c2_elabs_scored,openbind_d68ev3c_c2_elabs_scored_4.5plus,openbind_d68ev3c_c2_elabs,openbind_d68ev3c_c2_elabs_scored_5plus,syndirella_product,openbind_d68ev3c_c2_elabs_scored_top80percent,syndirella_placed

>  <smiles>  (534) 
Cc1nccc(C(=O)Nc2cc(F)ccc2C2CC2)c1Cl

>  <subsites>  (534) 
None

>  <rmsd(smina/fragmenstein)>  (534) 
1.497

>  <alias>  (534) 
None

>  <energy_score>  (534) 
-7.213491

>  <HIPPO Pose ID>  (534) 
66117

>  <distance_score>  (534) 
0.731034

>  <HIPPO Compound ID>  (534) 
103871

>  <gnina_score_min>  (534) 
5.016

>  <name>  (534) 
P66117

>  <exports>  (534) 
['/opt/xchem-fragalysis-2/maxwin/BulkDock/OUTPUTS/openbind_d68ev3c_c2_elabs_1LOTQJ3.sdf', '/opt/xchem-fragalysis-2/maxwin/BulkDock/OUTPUTS/openbind_d68ev3c_c2_elabs_1LSYEHW.sdf', '/opt/xchem-fragalysis-2/maxwin/BulkDock/OUTPUTS/openbind_d68ev3c_c2_elabs_1LSYI5W.sdf']

$$$$
P66119
     RDKit          3D

 21 22  0  0  0  0  0  0  0  0999 V2000
   -2.4784   -9.1337   33.1658 C   0  0  0  0  0  0  0  0  0  0  0  0
   -1.6145   -8.0523   32.6048 C   0  0  0  0  0  0  0  0  0  0  0  0
   -1.5835   -7.9824   31.2456 N   0  0  0  0  0  0  0  0  0  0  0  0
   -0.7353   -7.0896   30.6976 C   0  0  0  0  0  0  0  0  0  0  0  0
    0.0255   -6.2097   31.4357 C   0  0  0  0  0  0  0  0  0  0  0  0
   -0.0438   -6.2615   32.8299 C   0  0  0  0  0  0  0  0  0  0  0  0
    0.8774   -5.3380   33.5539 C   0  0  0  0  0  0  0  0  0  0  0  0
    1.9395   -5.1785   33.0942 O   0  0  0  0  0  0  0  0  0  0  0  0
    0.2609   -4.7978   34.8678 N   0  0  0  0  0  0  0  0  0  0  0  0
    0.8390   -4.0473   35.9078 C   0  0  0  0  0  0  0  0  0  0  0  0
    0.0797   -4.1069   37.0958 C   0  0  0  0  0  0  0  0  0  0  0  0
    0.5417   -3.5449   38.2772 C   0  0  0  0  0  0  0  0  0  0  0  0
   -0.1876   -3.6562   39.3952 F   0  0  0  0  0  0  0  0  0  0  0  0
    1.7554   -2.8948   38.3166 C   0  0  0  0  0  0  0  0  0  0  0  0
    2.5002   -2.7916   37.1450 C   0  0  0  0  0  0  0  0  0  0  0  0
    2.0543   -3.3337   35.9126 C   0  0  0  0  0  0  0  0  0  0  0  0
    2.9256   -3.0839   34.6926 C   0  0  0  0  0  0  0  0  0  0  0  0
    4.1186   -4.0430   34.6663 C   0  0  0  0  0  0  0  0  0  0  0  0
    3.4318   -1.6322   34.5816 C   0  0  0  0  0  0  0  0  0  0  0  0
   -0.8513   -7.2279   33.4377 C   0  0  0  0  0  0  0  0  0  0  0  0
   -0.8860   -7.4828   35.1498 Cl  0  0  0  0  0  0  0  0  0  0  0  0
  1  2  1  0
  2  3  2  0
  3  4  1  0
  4  5  2  0
  5  6  1  0
  6  7  1  0
  7  8  2  0
  7  9  1  0
  9 10  1  0
 10 11  2  0
 11 12  1  0
 12 13  1  0
 12 14  2  0
 14 15  1  0
 15 16  2  0
 16 17  1  0
 17 18  1  0
 17 19  1  0
  6 20  2  0
 20 21  1  0
 20  2  1  0
 16 10  1  0
M  END
>  <ref_mols>  (535) 
7gov-a

>  <gnina_score>  (535) 
4.994

>  <smina_score_min>  (535) 
-5.2

>  <ref_pdb>  (535) 
7gov-a

>  <inspiration_score>  (535) 
None

>  <inchikey>  (535) 
PDAVDPMTIMWXFW-UHFFFAOYSA-N

>  <tags>  (535) 
BulkDock Fragalysis export,openbind_d68ev3c_c2_elabs_scored,openbind_d68ev3c_c2_elabs_scored_4.5plus,openbind_d68ev3c_c2_elabs,openbind_d68ev3c_c2_elabs_scored_5plus,syndirella_product,openbind_d68ev3c_c2_elabs_scored_top80percent,syndirella_placed

>  <smiles>  (535) 
Cc1nccc(C(=O)Nc2cc(F)ccc2C(C)C)c1Cl

>  <subsites>  (535) 
None

>  <rmsd(smina/fragmenstein)>  (535) 
1.645

>  <alias>  (535) 
None

>  <energy_score>  (535) 
-8.076809

>  <HIPPO Pose ID>  (535) 
66119

>  <distance_score>  (535) 
1.118198

>  <HIPPO Compound ID>  (535) 
103873

>  <gnina_score_min>  (535) 
5.092

>  <name>  (535) 
P66119

>  <exports>  (535) 
['/opt/xchem-fragalysis-2/maxwin/BulkDock/OUTPUTS/openbind_d68ev3c_c2_elabs_1LOTQJ3.sdf', '/opt/xchem-fragalysis-2/maxwin/BulkDock/OUTPUTS/openbind_d68ev3c_c2_elabs_1LSYEHW.sdf', '/opt/xchem-fragalysis-2/maxwin/BulkDock/OUTPUTS/openbind_d68ev3c_c2_elabs_1LSYI5W.sdf']

$$$$
P66130
     RDKit          3D

 21 22  0  0  0  0  0  0  0  0999 V2000
   -2.5920   -9.4181   32.4606 C   0  0  0  0  0  0  0  0  0  0  0  0
   -1.7448   -8.1997   32.4435 C   0  0  0  0  0  0  0  0  0  0  0  0
   -1.3077   -7.7928   31.2271 N   0  0  0  0  0  0  0  0  0  0  0  0
   -0.3204   -6.8740   31.2251 C   0  0  0  0  0  0  0  0  0  0  0  0
    0.2443   -6.3472   32.3761 C   0  0  0  0  0  0  0  0  0  0  0  0
   -0.2748   -6.7462   33.6101 C   0  0  0  0  0  0  0  0  0  0  0  0
    0.3786   -6.3741   34.8910 C   0  0  0  0  0  0  0  0  0  0  0  0
    0.5053   -7.2078   35.6931 O   0  0  0  0  0  0  0  0  0  0  0  0
    0.7074   -4.8778   34.9520 N   0  0  0  0  0  0  0  0  0  0  0  0
    1.1565   -4.0985   36.0028 C   0  0  0  0  0  0  0  0  0  0  0  0
    0.5927   -4.3308   37.2569 C   0  0  0  0  0  0  0  0  0  0  0  0
    0.9708   -3.5503   38.3353 C   0  0  0  0  0  0  0  0  0  0  0  0
    0.3702   -3.7623   39.5164 F   0  0  0  0  0  0  0  0  0  0  0  0
    1.9355   -2.5504   38.2064 C   0  0  0  0  0  0  0  0  0  0  0  0
    2.3174   -1.7498   39.4186 C   0  0  0  0  0  0  0  0  0  0  0  0
    2.5231   -2.3498   36.9383 C   0  0  0  0  0  0  0  0  0  0  0  0
    3.8704   -1.0009   36.7419 Br  0  0  0  0  0  0  0  0  0  0  0  0
    2.1380   -3.1197   35.8150 C   0  0  0  0  0  0  0  0  0  0  0  0
    2.8459   -2.9842   34.4915 C   0  0  0  0  0  0  0  0  0  0  0  0
   -1.3387   -7.6396   33.6487 C   0  0  0  0  0  0  0  0  0  0  0  0
   -2.1792   -8.0455   35.1056 Cl  0  0  0  0  0  0  0  0  0  0  0  0
  1  2  1  0
  2  3  2  0
  3  4  1  0
  4  5  2  0
  5  6  1  0
  6  7  1  0
  7  8  2  0
  7  9  1  0
  9 10  1  0
 10 11  2  0
 11 12  1  0
 12 13  1  0
 12 14  2  0
 14 15  1  0
 14 16  1  0
 16 17  1  0
 16 18  2  0
 18 19  1  0
  6 20  2  0
 20 21  1  0
 20  2  1  0
 18 10  1  0
M  END
>  <ref_mols>  (536) 
7gov-a

>  <gnina_score>  (536) 
5.071

>  <smina_score_min>  (536) 
-5.696

>  <ref_pdb>  (536) 
7gov-a

>  <inspiration_score>  (536) 
None

>  <inchikey>  (536) 
AKGJKCUAFALXPS-UHFFFAOYSA-N

>  <tags>  (536) 
BulkDock Fragalysis export,openbind_d68ev3c_c2_elabs_scored,openbind_d68ev3c_c2_elabs_scored_4.5plus,openbind_d68ev3c_c2_elabs,openbind_d68ev3c_c2_elabs_scored_5plus,syndirella_product,openbind_d68ev3c_c2_elabs_scored_top80percent,syndirella_placed

>  <smiles>  (536) 
Cc1nccc(C(=O)Nc2cc(F)c(C)c(Br)c2C)c1Cl

>  <subsites>  (536) 
None

>  <rmsd(smina/fragmenstein)>  (536) 
1.515

>  <alias>  (536) 
None

>  <energy_score>  (536) 
-17.056821

>  <HIPPO Pose ID>  (536) 
66130

>  <distance_score>  (536) 
0.650947

>  <HIPPO Compound ID>  (536) 
103893

>  <gnina_score_min>  (536) 
5.054

>  <name>  (536) 
P66130

>  <exports>  (536) 
['/opt/xchem-fragalysis-2/maxwin/BulkDock/OUTPUTS/openbind_d68ev3c_c2_elabs_1LOTQJ3.sdf', '/opt/xchem-fragalysis-2/maxwin/BulkDock/OUTPUTS/openbind_d68ev3c_c2_elabs_1LSYEHW.sdf', '/opt/xchem-fragalysis-2/maxwin/BulkDock/OUTPUTS/openbind_d68ev3c_c2_elabs_1LSYI5W.sdf']

$$$$
P66133
     RDKit          3D

 21 22  0  0  0  0  0  0  0  0999 V2000
    2.6350   -2.8943   33.8550 C   0  0  0  0  0  0  0  0  0  0  0  0
    2.9324   -3.8167   35.0289 C   0  0  0  0  0  0  0  0  0  0  0  0
    1.9936   -3.5865   36.1956 C   0  0  0  0  0  0  0  0  0  0  0  0
    2.4886   -2.9414   37.3389 C   0  0  0  0  0  0  0  0  0  0  0  0
    1.6721   -2.7620   38.4529 C   0  0  0  0  0  0  0  0  0  0  0  0
    2.3905   -1.9760   40.0164 Br  0  0  0  0  0  0  0  0  0  0  0  0
    0.3437   -3.1761   38.4136 C   0  0  0  0  0  0  0  0  0  0  0  0
   -0.4348   -3.0677   39.4992 F   0  0  0  0  0  0  0  0  0  0  0  0
   -0.1943   -3.7472   37.2675 C   0  0  0  0  0  0  0  0  0  0  0  0
    0.6410   -3.9766   36.1798 C   0  0  0  0  0  0  0  0  0  0  0  0
    0.1681   -4.7648   35.1512 N   0  0  0  0  0  0  0  0  0  0  0  0
    0.5508   -6.1881   34.7307 C   0  0  0  0  0  0  0  0  0  0  0  0
    1.3796   -6.8972   35.1354 O   0  0  0  0  0  0  0  0  0  0  0  0
   -0.2340   -6.6221   33.5663 C   0  0  0  0  0  0  0  0  0  0  0  0
    0.1792   -6.2476   32.2882 C   0  0  0  0  0  0  0  0  0  0  0  0
   -0.4454   -6.8431   31.2076 C   0  0  0  0  0  0  0  0  0  0  0  0
   -1.4132   -7.7775   31.3264 N   0  0  0  0  0  0  0  0  0  0  0  0
   -1.7486   -8.1474   32.5909 C   0  0  0  0  0  0  0  0  0  0  0  0
   -2.6188   -9.3430   32.7099 C   0  0  0  0  0  0  0  0  0  0  0  0
   -1.2364   -7.5541   33.7388 C   0  0  0  0  0  0  0  0  0  0  0  0
   -1.8195   -7.9563   35.3046 Cl  0  0  0  0  0  0  0  0  0  0  0  0
  1  2  1  0
  2  3  1  0
  3  4  2  0
  4  5  1  0
  5  6  1  0
  5  7  2  0
  7  8  1  0
  7  9  1  0
  9 10  2  0
 10 11  1  0
 11 12  1  0
 12 13  2  0
 12 14  1  0
 14 15  2  0
 15 16  1  0
 16 17  2  0
 17 18  1  0
 18 19  1  0
 18 20  2  0
 20 21  1  0
 10  3  1  0
 20 14  1  0
M  END
>  <ref_mols>  (537) 
7gov-a

>  <gnina_score>  (537) 
5.146

>  <smina_score_min>  (537) 
-5.386

>  <ref_pdb>  (537) 
7gov-a

>  <inspiration_score>  (537) 
None

>  <inchikey>  (537) 
WGBMRHLEQBPZMI-UHFFFAOYSA-N

>  <tags>  (537) 
BulkDock Fragalysis export,openbind_d68ev3c_c2_elabs_scored,openbind_d68ev3c_c2_elabs_scored_4.5plus,openbind_d68ev3c_c2_elabs,openbind_d68ev3c_c2_elabs_scored_5plus,syndirella_product,openbind_d68ev3c_c2_elabs_scored_top80percent,syndirella_placed

>  <smiles>  (537) 
CCc1cc(Br)c(F)cc1NC(=O)c1ccnc(C)c1Cl

>  <subsites>  (537) 
None

>  <rmsd(smina/fragmenstein)>  (537) 
1.211

>  <alias>  (537) 
None

>  <energy_score>  (537) 
-5.122561

>  <HIPPO Pose ID>  (537) 
66133

>  <distance_score>  (537) 
0.614011

>  <HIPPO Compound ID>  (537) 
103902

>  <gnina_score_min>  (537) 
5.048

>  <name>  (537) 
P66133

>  <exports>  (537) 
['/opt/xchem-fragalysis-2/maxwin/BulkDock/OUTPUTS/openbind_d68ev3c_c2_elabs_1LOTQJ3.sdf', '/opt/xchem-fragalysis-2/maxwin/BulkDock/OUTPUTS/openbind_d68ev3c_c2_elabs_1LSYEHW.sdf', '/opt/xchem-fragalysis-2/maxwin/BulkDock/OUTPUTS/openbind_d68ev3c_c2_elabs_1LSYI5W.sdf']

$$$$
P66135
     RDKit          3D

 21 22  0  0  0  0  0  0  0  0999 V2000
    3.5000   -3.8782   33.7710 C   0  0  0  0  0  0  0  0  0  0  0  0
    2.8507   -3.8384   34.7804 C   0  0  0  0  0  0  0  0  0  0  0  0
    2.0818   -3.7933   35.9930 C   0  0  0  0  0  0  0  0  0  0  0  0
    2.5043   -2.9325   37.0111 C   0  0  0  0  0  0  0  0  0  0  0  0
    1.7972   -2.8843   38.2060 C   0  0  0  0  0  0  0  0  0  0  0  0
    2.2127   -2.0648   39.1825 F   0  0  0  0  0  0  0  0  0  0  0  0
    0.6670   -3.6709   38.3886 C   0  0  0  0  0  0  0  0  0  0  0  0
   -0.0103   -3.6143   39.5439 F   0  0  0  0  0  0  0  0  0  0  0  0
    0.2240   -4.5207   37.3807 C   0  0  0  0  0  0  0  0  0  0  0  0
    0.9353   -4.5947   36.1802 C   0  0  0  0  0  0  0  0  0  0  0  0
    0.5058   -5.4362   35.1518 N   0  0  0  0  0  0  0  0  0  0  0  0
   -0.7400   -6.3410   35.0511 C   0  0  0  0  0  0  0  0  0  0  0  0
   -1.5641   -6.5855   35.8418 O   0  0  0  0  0  0  0  0  0  0  0  0
   -0.9057   -6.9621   33.6964 C   0  0  0  0  0  0  0  0  0  0  0  0
   -1.5817   -8.1905   33.6871 C   0  0  0  0  0  0  0  0  0  0  0  0
   -1.8755   -8.7751   32.4753 C   0  0  0  0  0  0  0  0  0  0  0  0
   -1.5088   -8.2561   31.2859 N   0  0  0  0  0  0  0  0  0  0  0  0
   -0.7956   -7.0957   31.2995 C   0  0  0  0  0  0  0  0  0  0  0  0
   -0.2896   -6.6124   29.9680 C   0  0  0  0  0  0  0  0  0  0  0  0
   -0.5274   -6.3850   32.4757 C   0  0  0  0  0  0  0  0  0  0  0  0
    0.1495   -4.7960   32.3449 Cl  0  0  0  0  0  0  0  0  0  0  0  0
  1  2  3  0
  2  3  1  0
  3  4  2  0
  4  5  1  0
  5  6  1  0
  5  7  2  0
  7  8  1  0
  7  9  1  0
  9 10  2  0
 10 11  1  0
 11 12  1  0
 12 13  2  0
 12 14  1  0
 14 15  2  0
 15 16  1  0
 16 17  2  0
 17 18  1  0
 18 19  1  0
 18 20  2  0
 20 21  1  0
 10  3  1  0
 20 14  1  0
M  END
>  <ref_mols>  (538) 
7gov-a

>  <gnina_score>  (538) 
5.119

>  <smina_score_min>  (538) 
-5.85

>  <ref_pdb>  (538) 
7gov-a

>  <inspiration_score>  (538) 
None

>  <inchikey>  (538) 
BQYLEANJRSGGOS-UHFFFAOYSA-N

>  <tags>  (538) 
BulkDock Fragalysis export,openbind_d68ev3c_c2_elabs_scored,openbind_d68ev3c_c2_elabs_scored_4.5plus,openbind_d68ev3c_c2_elabs,openbind_d68ev3c_c2_elabs_scored_5plus,syndirella_product,openbind_d68ev3c_c2_elabs_scored_top80percent,syndirella_placed

>  <smiles>  (538) 
C#Cc1cc(F)c(F)cc1NC(=O)c1ccnc(C)c1Cl

>  <subsites>  (538) 
None

>  <rmsd(smina/fragmenstein)>  (538) 
1.131

>  <alias>  (538) 
None

>  <energy_score>  (538) 
-19.089766

>  <HIPPO Pose ID>  (538) 
66135

>  <distance_score>  (538) 
0.77704

>  <HIPPO Compound ID>  (538) 
103904

>  <gnina_score_min>  (538) 
5.015

>  <name>  (538) 
P66135

>  <exports>  (538) 
['/opt/xchem-fragalysis-2/maxwin/BulkDock/OUTPUTS/openbind_d68ev3c_c2_elabs_1LOTQJ3.sdf', '/opt/xchem-fragalysis-2/maxwin/BulkDock/OUTPUTS/openbind_d68ev3c_c2_elabs_1LSYEHW.sdf', '/opt/xchem-fragalysis-2/maxwin/BulkDock/OUTPUTS/openbind_d68ev3c_c2_elabs_1LSYI5W.sdf']

$$$$
P66151
     RDKit          3D

 22 23  0  0  0  0  0  0  0  0999 V2000
    2.9792   -3.9680   34.4840 C   0  0  0  0  0  0  0  0  0  0  0  0
    2.2112   -3.8283   35.7690 C   0  0  0  0  0  0  0  0  0  0  0  0
    2.7255   -3.0056   36.7853 C   0  0  0  0  0  0  0  0  0  0  0  0
    2.0548   -2.9110   38.0107 C   0  0  0  0  0  0  0  0  0  0  0  0
    2.6281   -2.1166   39.0748 N   0  0  0  0  0  0  0  0  0  0  0  0
    3.8511   -2.2132   39.2630 O   0  0  0  0  0  0  0  0  0  0  0  0
    1.8745   -1.3600   39.7021 O   0  0  0  0  0  0  0  0  0  0  0  0
    0.8670   -3.5900   38.2306 C   0  0  0  0  0  0  0  0  0  0  0  0
    0.2241   -3.5289   39.4054 F   0  0  0  0  0  0  0  0  0  0  0  0
    0.3406   -4.3927   37.2255 C   0  0  0  0  0  0  0  0  0  0  0  0
    1.0186   -4.5367   36.0071 C   0  0  0  0  0  0  0  0  0  0  0  0
    0.5199   -5.4084   35.0416 N   0  0  0  0  0  0  0  0  0  0  0  0
   -0.7320   -6.3121   35.0572 C   0  0  0  0  0  0  0  0  0  0  0  0
   -1.4981   -6.5260   35.9089 O   0  0  0  0  0  0  0  0  0  0  0  0
   -0.9617   -7.0290   33.7503 C   0  0  0  0  0  0  0  0  0  0  0  0
   -0.3482   -6.6118   32.5642 C   0  0  0  0  0  0  0  0  0  0  0  0
    0.5101   -5.5820   32.5324 F   0  0  0  0  0  0  0  0  0  0  0  0
   -0.6399   -7.2531   31.3696 C   0  0  0  0  0  0  0  0  0  0  0  0
   -1.5157   -8.2750   31.2623 N   0  0  0  0  0  0  0  0  0  0  0  0
   -2.0854   -8.6835   32.4180 C   0  0  0  0  0  0  0  0  0  0  0  0
   -1.8605   -8.1052   33.6617 C   0  0  0  0  0  0  0  0  0  0  0  0
   -2.8106   -8.7503   34.9477 Cl  0  0  0  0  0  0  0  0  0  0  0  0
  1  2  1  0
  2  3  2  0
  3  4  1  0
  4  5  1  0
  5  6  2  0
  5  7  1  0
  4  8  2  0
  8  9  1  0
  8 10  1  0
 10 11  2  0
 11 12  1  0
 12 13  1  0
 13 14  2  0
 13 15  1  0
 15 16  2  0
 16 17  1  0
 16 18  1  0
 18 19  2  0
 19 20  1  0
 20 21  2  0
 21 22  1  0
 11  2  1  0
 21 15  1  0
M  CHG  2   5   1   7  -1
M  END
>  <ref_mols>  (539) 
7gov-a

>  <gnina_score>  (539) 
5.153

>  <smina_score_min>  (539) 
-5.777

>  <ref_pdb>  (539) 
7gov-a

>  <inspiration_score>  (539) 
None

>  <inchikey>  (539) 
NSHILXLPBWKWEY-UHFFFAOYSA-N

>  <tags>  (539) 
BulkDock Fragalysis export,openbind_d68ev3c_c2_elabs_scored,openbind_d68ev3c_c2_elabs_scored_4.5plus,openbind_d68ev3c_c2_elabs,openbind_d68ev3c_c2_elabs_scored_5plus,syndirella_product,openbind_d68ev3c_c2_elabs_scored_top80percent,syndirella_placed

>  <smiles>  (539) 
Cc1cc([N+](=O)[O-])c(F)cc1NC(=O)c1c(F)cncc1Cl

>  <subsites>  (539) 
None

>  <rmsd(smina/fragmenstein)>  (539) 
1.471

>  <alias>  (539) 
None

>  <energy_score>  (539) 
-41.588692

>  <HIPPO Pose ID>  (539) 
66151

>  <distance_score>  (539) 
0.773007

>  <HIPPO Compound ID>  (539) 
103952

>  <gnina_score_min>  (539) 
5.17

>  <name>  (539) 
P66151

>  <exports>  (539) 
['/opt/xchem-fragalysis-2/maxwin/BulkDock/OUTPUTS/openbind_d68ev3c_c2_elabs_1LOTQJ3.sdf', '/opt/xchem-fragalysis-2/maxwin/BulkDock/OUTPUTS/openbind_d68ev3c_c2_elabs_1LSYEHW.sdf', '/opt/xchem-fragalysis-2/maxwin/BulkDock/OUTPUTS/openbind_d68ev3c_c2_elabs_1LSYI5W.sdf']

$$$$
P66153
     RDKit          3D

 22 24  0  0  0  0  0  0  0  0999 V2000
    4.6217   -1.6717   37.0552 O   0  0  0  0  0  0  0  0  0  0  0  0
    3.8978   -2.4114   36.4194 C   0  0  0  0  0  0  0  0  0  0  0  0
    4.1015   -2.8651   35.1337 N   0  0  0  0  0  0  0  0  0  0  0  0
    3.1041   -3.8216   34.7171 C   0  0  0  0  0  0  0  0  0  0  0  0
    2.1490   -3.8252   35.8610 C   0  0  0  0  0  0  0  0  0  0  0  0
    0.9666   -4.5149   36.0466 C   0  0  0  0  0  0  0  0  0  0  0  0
    0.4487   -5.3314   35.0479 N   0  0  0  0  0  0  0  0  0  0  0  0
   -0.7533   -6.2996   35.0675 C   0  0  0  0  0  0  0  0  0  0  0  0
   -1.5425   -6.5062   35.8994 O   0  0  0  0  0  0  0  0  0  0  0  0
   -0.9523   -7.0324   33.7635 C   0  0  0  0  0  0  0  0  0  0  0  0
   -0.3256   -6.6198   32.5827 C   0  0  0  0  0  0  0  0  0  0  0  0
    0.5432   -5.5982   32.5583 F   0  0  0  0  0  0  0  0  0  0  0  0
   -0.6152   -7.2571   31.3848 C   0  0  0  0  0  0  0  0  0  0  0  0
   -1.4965   -8.2737   31.2695 N   0  0  0  0  0  0  0  0  0  0  0  0
   -2.0726   -8.6834   32.4213 C   0  0  0  0  0  0  0  0  0  0  0  0
   -1.8524   -8.1078   33.6674 C   0  0  0  0  0  0  0  0  0  0  0  0
   -2.8105   -8.7553   34.9466 Cl  0  0  0  0  0  0  0  0  0  0  0  0
    0.2882   -4.3516   37.2614 C   0  0  0  0  0  0  0  0  0  0  0  0
    0.8086   -3.5223   38.2642 C   0  0  0  0  0  0  0  0  0  0  0  0
    0.1439   -3.4086   39.4224 F   0  0  0  0  0  0  0  0  0  0  0  0
    1.9919   -2.8209   38.0867 C   0  0  0  0  0  0  0  0  0  0  0  0
    2.6327   -2.9933   36.8766 C   0  0  0  0  0  0  0  0  0  0  0  0
  1  2  2  0
  2  3  1  0
  3  4  1  0
  4  5  1  0
  5  6  2  0
  6  7  1  0
  7  8  1  0
  8  9  2  0
  8 10  1  0
 10 11  2  0
 11 12  1  0
 11 13  1  0
 13 14  2  0
 14 15  1  0
 15 16  2  0
 16 17  1  0
  6 18  1  0
 18 19  2  0
 19 20  1  0
 19 21  1  0
 21 22  2  0
 22  2  1  0
 22  5  1  0
 16 10  1  0
M  END
>  <ref_mols>  (540) 
7gov-a

>  <gnina_score>  (540) 
5.118

>  <smina_score_min>  (540) 
-6.074

>  <ref_pdb>  (540) 
7gov-a

>  <inspiration_score>  (540) 
None

>  <inchikey>  (540) 
LCTHBGBVIXDMKA-UHFFFAOYSA-N

>  <tags>  (540) 
BulkDock Fragalysis export,openbind_d68ev3c_c2_elabs_scored,openbind_d68ev3c_c2_elabs_scored_4.5plus,openbind_d68ev3c_c2_elabs,openbind_d68ev3c_c2_elabs_scored_5plus,syndirella_product,openbind_d68ev3c_c2_elabs_scored_top80percent,syndirella_placed

>  <smiles>  (540) 
O=C1NCc2c(NC(=O)c3c(F)cncc3Cl)cc(F)cc21

>  <subsites>  (540) 
None

>  <rmsd(smina/fragmenstein)>  (540) 
1.223

>  <alias>  (540) 
None

>  <energy_score>  (540) 
-26.810168

>  <HIPPO Pose ID>  (540) 
66153

>  <distance_score>  (540) 
0.786894

>  <HIPPO Compound ID>  (540) 
103955

>  <gnina_score_min>  (540) 
5.062

>  <name>  (540) 
P66153

>  <exports>  (540) 
['/opt/xchem-fragalysis-2/maxwin/BulkDock/OUTPUTS/openbind_d68ev3c_c2_elabs_1LOTQJ3.sdf', '/opt/xchem-fragalysis-2/maxwin/BulkDock/OUTPUTS/openbind_d68ev3c_c2_elabs_1LSYEHW.sdf', '/opt/xchem-fragalysis-2/maxwin/BulkDock/OUTPUTS/openbind_d68ev3c_c2_elabs_1LSYI5W.sdf']

$$$$
P66154
     RDKit          3D

 22 23  0  0  0  0  0  0  0  0999 V2000
    3.1969   -3.6822   33.4370 C   0  0  0  0  0  0  0  0  0  0  0  0
    2.6626   -3.6697   34.5123 C   0  0  0  0  0  0  0  0  0  0  0  0
    2.0272   -3.6566   35.7996 C   0  0  0  0  0  0  0  0  0  0  0  0
    2.5867   -2.8551   36.8041 C   0  0  0  0  0  0  0  0  0  0  0  0
    2.0265   -2.8393   38.0818 C   0  0  0  0  0  0  0  0  0  0  0  0
    2.7355   -1.8505   39.3015 Cl  0  0  0  0  0  0  0  0  0  0  0  0
    0.9022   -3.6073   38.3569 C   0  0  0  0  0  0  0  0  0  0  0  0
    0.3286   -3.5729   39.5702 F   0  0  0  0  0  0  0  0  0  0  0  0
    0.3452   -4.4059   37.3658 C   0  0  0  0  0  0  0  0  0  0  0  0
   -0.7741   -5.0794   37.6644 F   0  0  0  0  0  0  0  0  0  0  0  0
    0.9022   -4.4524   36.0798 C   0  0  0  0  0  0  0  0  0  0  0  0
    0.3488   -5.2568   35.0756 N   0  0  0  0  0  0  0  0  0  0  0  0
   -0.5287   -6.5232   35.1750 C   0  0  0  0  0  0  0  0  0  0  0  0
   -0.9911   -7.0498   36.1057 O   0  0  0  0  0  0  0  0  0  0  0  0
   -0.8790   -7.1202   33.8297 C   0  0  0  0  0  0  0  0  0  0  0  0
   -0.2552   -6.7132   32.6454 C   0  0  0  0  0  0  0  0  0  0  0  0
    0.6781   -5.7515   32.6276 F   0  0  0  0  0  0  0  0  0  0  0  0
   -0.6117   -7.2893   31.4336 C   0  0  0  0  0  0  0  0  0  0  0  0
   -1.5579   -8.2432   31.3042 N   0  0  0  0  0  0  0  0  0  0  0  0
   -2.1444   -8.6404   32.4552 C   0  0  0  0  0  0  0  0  0  0  0  0
   -1.8646   -8.1171   33.7144 C   0  0  0  0  0  0  0  0  0  0  0  0
   -2.8927   -8.6932   34.9767 Cl  0  0  0  0  0  0  0  0  0  0  0  0
  1  2  3  0
  2  3  1  0
  3  4  2  0
  4  5  1  0
  5  6  1  0
  5  7  2  0
  7  8  1  0
  7  9  1  0
  9 10  1  0
  9 11  2  0
 11 12  1  0
 12 13  1  0
 13 14  2  0
 13 15  1  0
 15 16  2  0
 16 17  1  0
 16 18  1  0
 18 19  2  0
 19 20  1  0
 20 21  2  0
 21 22  1  0
 11  3  1  0
 21 15  1  0
M  END
>  <ref_mols>  (541) 
7gov-a

>  <gnina_score>  (541) 
5.522

>  <smina_score_min>  (541) 
-5.609

>  <ref_pdb>  (541) 
7gov-a

>  <inspiration_score>  (541) 
None

>  <inchikey>  (541) 
JNSXWYWJVFZXCV-UHFFFAOYSA-N

>  <tags>  (541) 
BulkDock Fragalysis export,openbind_d68ev3c_c2_elabs_scored,openbind_d68ev3c_c2_elabs_scored_4.5plus,openbind_d68ev3c_c2_elabs,openbind_d68ev3c_c2_elabs_scored_5plus,syndirella_product,openbind_d68ev3c_c2_elabs_scored_top80percent,syndirella_placed

>  <smiles>  (541) 
C#Cc1cc(Cl)c(F)c(F)c1NC(=O)c1c(F)cncc1Cl

>  <subsites>  (541) 
None

>  <rmsd(smina/fragmenstein)>  (541) 
0.844

>  <alias>  (541) 
None

>  <energy_score>  (541) 
-15.220798

>  <HIPPO Pose ID>  (541) 
66154

>  <distance_score>  (541) 
0.660508

>  <HIPPO Compound ID>  (541) 
103956

>  <gnina_score_min>  (541) 
5.439

>  <name>  (541) 
P66154

>  <exports>  (541) 
['/opt/xchem-fragalysis-2/maxwin/BulkDock/OUTPUTS/openbind_d68ev3c_c2_elabs_1LOTQJ3.sdf', '/opt/xchem-fragalysis-2/maxwin/BulkDock/OUTPUTS/openbind_d68ev3c_c2_elabs_1LSYEHW.sdf', '/opt/xchem-fragalysis-2/maxwin/BulkDock/OUTPUTS/openbind_d68ev3c_c2_elabs_1LSYI5W.sdf']

$$$$
P66155
     RDKit          3D

 22 23  0  0  0  0  0  0  0  0999 V2000
    3.4475   -3.8874   33.4778 C   0  0  0  0  0  0  0  0  0  0  0  0
    2.8607   -3.8284   34.5238 C   0  0  0  0  0  0  0  0  0  0  0  0
    2.1605   -3.7618   35.7744 C   0  0  0  0  0  0  0  0  0  0  0  0
    2.6981   -2.9725   36.7992 C   0  0  0  0  0  0  0  0  0  0  0  0
    2.0652   -2.9074   38.0462 C   0  0  0  0  0  0  0  0  0  0  0  0
    2.6513   -2.1560   39.1108 C   0  0  0  0  0  0  0  0  0  0  0  0
    3.1593   -1.5396   39.9540 N   0  0  0  0  0  0  0  0  0  0  0  0
    0.8772   -3.6018   38.2473 C   0  0  0  0  0  0  0  0  0  0  0  0
    0.2454   -3.5448   39.4293 F   0  0  0  0  0  0  0  0  0  0  0  0
    0.3242   -4.3761   37.2329 C   0  0  0  0  0  0  0  0  0  0  0  0
    0.9730   -4.4780   35.9981 C   0  0  0  0  0  0  0  0  0  0  0  0
    0.4320   -5.2882   34.9991 N   0  0  0  0  0  0  0  0  0  0  0  0
   -0.7487   -6.2809   35.0437 C   0  0  0  0  0  0  0  0  0  0  0  0
   -1.5018   -6.5202   35.9001 O   0  0  0  0  0  0  0  0  0  0  0  0
   -0.9626   -7.0145   33.7410 C   0  0  0  0  0  0  0  0  0  0  0  0
   -0.3503   -6.6047   32.5516 C   0  0  0  0  0  0  0  0  0  0  0  0
    0.4982   -5.5681   32.5078 F   0  0  0  0  0  0  0  0  0  0  0  0
   -0.6367   -7.2573   31.3616 C   0  0  0  0  0  0  0  0  0  0  0  0
   -1.5063   -8.2850   31.2602 N   0  0  0  0  0  0  0  0  0  0  0  0
   -2.0725   -8.6891   32.4185 C   0  0  0  0  0  0  0  0  0  0  0  0
   -1.8521   -8.1000   33.6584 C   0  0  0  0  0  0  0  0  0  0  0  0
   -2.8021   -8.7447   34.9456 Cl  0  0  0  0  0  0  0  0  0  0  0  0
  1  2  3  0
  2  3  1  0
  3  4  2  0
  4  5  1  0
  5  6  1  0
  6  7  3  0
  5  8  2  0
  8  9  1  0
  8 10  1  0
 10 11  2  0
 11 12  1  0
 12 13  1  0
 13 14  2  0
 13 15  1  0
 15 16  2  0
 16 17  1  0
 16 18  1  0
 18 19  2  0
 19 20  1  0
 20 21  2  0
 21 22  1  0
 11  3  1  0
 21 15  1  0
M  END
>  <ref_mols>  (542) 
7gov-a

>  <gnina_score>  (542) 
5.297

>  <smina_score_min>  (542) 
-5.617

>  <ref_pdb>  (542) 
7gov-a

>  <inspiration_score>  (542) 
None

>  <inchikey>  (542) 
WMKQQADAOWPOLP-UHFFFAOYSA-N

>  <tags>  (542) 
BulkDock Fragalysis export,openbind_d68ev3c_c2_elabs_scored,openbind_d68ev3c_c2_elabs_scored_4.5plus,openbind_d68ev3c_c2_elabs,openbind_d68ev3c_c2_elabs_scored_5plus,syndirella_product,openbind_d68ev3c_c2_elabs_scored_top80percent,syndirella_placed

>  <smiles>  (542) 
C#Cc1cc(C#N)c(F)cc1NC(=O)c1c(F)cncc1Cl

>  <subsites>  (542) 
None

>  <rmsd(smina/fragmenstein)>  (542) 
1.322

>  <alias>  (542) 
None

>  <energy_score>  (542) 
-16.476289

>  <HIPPO Pose ID>  (542) 
66155

>  <distance_score>  (542) 
0.771024

>  <HIPPO Compound ID>  (542) 
103957

>  <gnina_score_min>  (542) 
5.261

>  <name>  (542) 
P66155

>  <exports>  (542) 
['/opt/xchem-fragalysis-2/maxwin/BulkDock/OUTPUTS/openbind_d68ev3c_c2_elabs_1LOTQJ3.sdf', '/opt/xchem-fragalysis-2/maxwin/BulkDock/OUTPUTS/openbind_d68ev3c_c2_elabs_1LSYEHW.sdf', '/opt/xchem-fragalysis-2/maxwin/BulkDock/OUTPUTS/openbind_d68ev3c_c2_elabs_1LSYI5W.sdf']

$$$$
P66157
     RDKit          3D

 22 23  0  0  0  0  0  0  0  0999 V2000
    4.5189   -3.6997   34.6570 C   0  0  0  0  0  0  0  0  0  0  0  0
    3.0294   -3.9231   34.5988 C   0  0  0  0  0  0  0  0  0  0  0  0
    2.4791   -4.2098   33.5379 O   0  0  0  0  0  0  0  0  0  0  0  0
    2.2248   -3.7724   35.8475 C   0  0  0  0  0  0  0  0  0  0  0  0
    2.7088   -2.9592   36.8864 C   0  0  0  0  0  0  0  0  0  0  0  0
    2.0022   -2.8583   38.0860 C   0  0  0  0  0  0  0  0  0  0  0  0
    2.6979   -1.7930   39.4858 Br  0  0  0  0  0  0  0  0  0  0  0  0
    0.8049   -3.5436   38.2471 C   0  0  0  0  0  0  0  0  0  0  0  0
    0.1152   -3.4640   39.3946 F   0  0  0  0  0  0  0  0  0  0  0  0
    0.2968   -4.3230   37.2149 C   0  0  0  0  0  0  0  0  0  0  0  0
    0.9993   -4.4474   36.0086 C   0  0  0  0  0  0  0  0  0  0  0  0
    0.4549   -5.2391   34.9942 N   0  0  0  0  0  0  0  0  0  0  0  0
   -0.7311   -6.2317   35.0218 C   0  0  0  0  0  0  0  0  0  0  0  0
   -1.4850   -6.4847   35.8754 O   0  0  0  0  0  0  0  0  0  0  0  0
   -0.9514   -6.9638   33.7195 C   0  0  0  0  0  0  0  0  0  0  0  0
   -0.3802   -6.5325   32.5206 C   0  0  0  0  0  0  0  0  0  0  0  0
    0.3972   -5.4474   32.4567 F   0  0  0  0  0  0  0  0  0  0  0  0
   -0.6545   -7.2010   31.3359 C   0  0  0  0  0  0  0  0  0  0  0  0
   -1.4887   -8.2593   31.2454 N   0  0  0  0  0  0  0  0  0  0  0  0
   -2.0304   -8.6743   32.4108 C   0  0  0  0  0  0  0  0  0  0  0  0
   -1.8128   -8.0739   33.6466 C   0  0  0  0  0  0  0  0  0  0  0  0
   -2.7403   -8.7369   34.9410 Cl  0  0  0  0  0  0  0  0  0  0  0  0
  1  2  1  0
  2  3  2  0
  2  4  1  0
  4  5  2  0
  5  6  1  0
  6  7  1  0
  6  8  2  0
  8  9  1  0
  8 10  1  0
 10 11  2  0
 11 12  1  0
 12 13  1  0
 13 14  2  0
 13 15  1  0
 15 16  2  0
 16 17  1  0
 16 18  1  0
 18 19  2  0
 19 20  1  0
 20 21  2  0
 21 22  1  0
 11  4  1  0
 21 15  1  0
M  END
>  <ref_mols>  (543) 
7gov-a

>  <gnina_score>  (543) 
5.315

>  <smina_score_min>  (543) 
-5.887

>  <ref_pdb>  (543) 
7gov-a

>  <inspiration_score>  (543) 
None

>  <inchikey>  (543) 
SOBSTLKJKHFWDR-UHFFFAOYSA-N

>  <tags>  (543) 
BulkDock Fragalysis export,openbind_d68ev3c_c2_elabs_scored,openbind_d68ev3c_c2_elabs_scored_4.5plus,openbind_d68ev3c_c2_elabs,openbind_d68ev3c_c2_elabs_scored_5plus,syndirella_product,openbind_d68ev3c_c2_elabs_scored_top80percent,syndirella_placed

>  <smiles>  (543) 
CC(=O)c1cc(Br)c(F)cc1NC(=O)c1c(F)cncc1Cl

>  <subsites>  (543) 
None

>  <rmsd(smina/fragmenstein)>  (543) 
1.358

>  <alias>  (543) 
None

>  <energy_score>  (543) 
-9.490961

>  <HIPPO Pose ID>  (543) 
66157

>  <distance_score>  (543) 
0.770225

>  <HIPPO Compound ID>  (543) 
103960

>  <gnina_score_min>  (543) 
5.24

>  <name>  (543) 
P66157

>  <exports>  (543) 
['/opt/xchem-fragalysis-2/maxwin/BulkDock/OUTPUTS/openbind_d68ev3c_c2_elabs_1LOTQJ3.sdf', '/opt/xchem-fragalysis-2/maxwin/BulkDock/OUTPUTS/openbind_d68ev3c_c2_elabs_1LSYEHW.sdf', '/opt/xchem-fragalysis-2/maxwin/BulkDock/OUTPUTS/openbind_d68ev3c_c2_elabs_1LSYI5W.sdf']

$$$$
P66177
     RDKit          3D

 22 23  0  0  0  0  0  0  0  0999 V2000
    4.7560   -3.0716   35.0739 C   0  0  0  0  0  0  0  0  0  0  0  0
    3.2942   -3.4337   35.0178 C   0  0  0  0  0  0  0  0  0  0  0  0
    2.7691   -3.7693   33.9554 O   0  0  0  0  0  0  0  0  0  0  0  0
    2.4826   -3.3604   36.2776 C   0  0  0  0  0  0  0  0  0  0  0  0
    2.9349   -2.6294   37.3824 C   0  0  0  0  0  0  0  0  0  0  0  0
    2.1939   -2.6298   38.5684 C   0  0  0  0  0  0  0  0  0  0  0  0
    2.8461   -1.6711   40.0640 Br  0  0  0  0  0  0  0  0  0  0  0  0
    0.9959   -3.3331   38.6513 C   0  0  0  0  0  0  0  0  0  0  0  0
    0.2740   -3.3448   39.7805 F   0  0  0  0  0  0  0  0  0  0  0  0
    0.5207   -4.0361   37.5585 C   0  0  0  0  0  0  0  0  0  0  0  0
    1.2637   -4.0539   36.3768 C   0  0  0  0  0  0  0  0  0  0  0  0
    0.7900   -4.7643   35.2890 N   0  0  0  0  0  0  0  0  0  0  0  0
   -0.3567   -5.7775   35.1824 C   0  0  0  0  0  0  0  0  0  0  0  0
   -1.1381   -6.1213   35.9766 O   0  0  0  0  0  0  0  0  0  0  0  0
   -0.4645   -6.3635   33.8142 C   0  0  0  0  0  0  0  0  0  0  0  0
    0.1080   -5.8537   32.6489 C   0  0  0  0  0  0  0  0  0  0  0  0
   -0.1418   -6.5249   31.4708 C   0  0  0  0  0  0  0  0  0  0  0  0
    0.4851   -6.1434   30.3309 O   0  0  0  0  0  0  0  0  0  0  0  0
   -0.9517   -7.5760   31.3352 N   0  0  0  0  0  0  0  0  0  0  0  0
   -1.5035   -8.0038   32.4796 C   0  0  0  0  0  0  0  0  0  0  0  0
   -2.7880   -9.3233   32.3678 Br  0  0  0  0  0  0  0  0  0  0  0  0
   -1.2717   -7.4853   33.7268 C   0  0  0  0  0  0  0  0  0  0  0  0
  1  2  1  0
  2  3  2  0
  2  4  1  0
  4  5  2  0
  5  6  1  0
  6  7  1  0
  6  8  2  0
  8  9  1  0
  8 10  1  0
 10 11  2  0
 11 12  1  0
 12 13  1  0
 13 14  2  0
 13 15  1  0
 15 16  2  0
 16 17  1  0
 17 18  1  0
 17 19  2  0
 19 20  1  0
 20 21  1  0
 20 22  2  0
 11  4  1  0
 22 15  1  0
M  END
>  <ref_mols>  (544) 
7gov-a

>  <gnina_score>  (544) 
4.953

>  <smina_score_min>  (544) 
-5.257

>  <ref_pdb>  (544) 
7gov-a

>  <inspiration_score>  (544) 
None

>  <inchikey>  (544) 
ABRDYGSZDALCRB-UHFFFAOYSA-N

>  <tags>  (544) 
BulkDock Fragalysis export,openbind_d68ev3c_c2_elabs_scored,openbind_d68ev3c_c2_elabs_scored_4.5plus,openbind_d68ev3c_c2_elabs,openbind_d68ev3c_c2_elabs_scored_5plus,syndirella_product,openbind_d68ev3c_c2_elabs_scored_top80percent,syndirella_placed

>  <smiles>  (544) 
CC(=O)c1cc(Br)c(F)cc1NC(=O)c1cc(O)nc(Br)c1

>  <subsites>  (544) 
None

>  <rmsd(smina/fragmenstein)>  (544) 
1.047

>  <alias>  (544) 
None

>  <energy_score>  (544) 
-32.680006

>  <HIPPO Pose ID>  (544) 
66177

>  <distance_score>  (544) 
1.053986

>  <HIPPO Compound ID>  (544) 
104023

>  <gnina_score_min>  (544) 
5.028

>  <name>  (544) 
P66177

>  <exports>  (544) 
['/opt/xchem-fragalysis-2/maxwin/BulkDock/OUTPUTS/openbind_d68ev3c_c2_elabs_1LOTQJ3.sdf', '/opt/xchem-fragalysis-2/maxwin/BulkDock/OUTPUTS/openbind_d68ev3c_c2_elabs_1LSYEHW.sdf', '/opt/xchem-fragalysis-2/maxwin/BulkDock/OUTPUTS/openbind_d68ev3c_c2_elabs_1LSYI5W.sdf']

$$$$
P66192
     RDKit          3D

 22 23  0  0  0  0  0  0  0  0999 V2000
    3.4559   -3.9141   33.5046 C   0  0  0  0  0  0  0  0  0  0  0  0
    2.8696   -3.8429   34.5502 C   0  0  0  0  0  0  0  0  0  0  0  0
    2.1677   -3.7631   35.8007 C   0  0  0  0  0  0  0  0  0  0  0  0
    2.7052   -2.9418   36.8018 C   0  0  0  0  0  0  0  0  0  0  0  0
    2.0742   -2.8437   38.0405 C   0  0  0  0  0  0  0  0  0  0  0  0
    2.7647   -1.8475   39.2644 Cl  0  0  0  0  0  0  0  0  0  0  0  0
    0.9012   -3.5474   38.2768 C   0  0  0  0  0  0  0  0  0  0  0  0
    0.2793   -3.4620   39.4641 F   0  0  0  0  0  0  0  0  0  0  0  0
    0.3542   -4.3514   37.2821 C   0  0  0  0  0  0  0  0  0  0  0  0
   -0.7771   -5.0005   37.5815 F   0  0  0  0  0  0  0  0  0  0  0  0
    0.9770   -4.4807   36.0313 C   0  0  0  0  0  0  0  0  0  0  0  0
    0.4554   -5.2782   34.9985 N   0  0  0  0  0  0  0  0  0  0  0  0
   -0.7698   -6.2165   34.9775 C   0  0  0  0  0  0  0  0  0  0  0  0
   -1.5827   -6.4161   35.7895 O   0  0  0  0  0  0  0  0  0  0  0  0
   -0.9237   -6.9630   33.6782 C   0  0  0  0  0  0  0  0  0  0  0  0
   -1.6980   -8.1407   33.6256 C   0  0  0  0  0  0  0  0  0  0  0  0
   -2.3380   -8.8035   34.8057 C   0  0  0  0  0  0  0  0  0  0  0  0
   -1.9472   -8.6991   32.3764 C   0  0  0  0  0  0  0  0  0  0  0  0
   -1.4739   -8.2157   31.2095 N   0  0  0  0  0  0  0  0  0  0  0  0
   -0.6735   -7.1300   31.2989 C   0  0  0  0  0  0  0  0  0  0  0  0
   -0.3914   -6.4739   32.4852 C   0  0  0  0  0  0  0  0  0  0  0  0
    0.3662   -5.3689   32.4432 F   0  0  0  0  0  0  0  0  0  0  0  0
  1  2  3  0
  2  3  1  0
  3  4  2  0
  4  5  1  0
  5  6  1  0
  5  7  2  0
  7  8  1  0
  7  9  1  0
  9 10  1  0
  9 11  2  0
 11 12  1  0
 12 13  1  0
 13 14  2  0
 13 15  1  0
 15 16  2  0
 16 17  1  0
 16 18  1  0
 18 19  2  0
 19 20  1  0
 20 21  2  0
 21 22  1  0
 11  3  1  0
 21 15  1  0
M  END
>  <ref_mols>  (545) 
7gov-a

>  <gnina_score>  (545) 
5.319

>  <smina_score_min>  (545) 
-5.449

>  <ref_pdb>  (545) 
7gov-a

>  <inspiration_score>  (545) 
None

>  <inchikey>  (545) 
YIFBPCSHPYGODJ-UHFFFAOYSA-N

>  <tags>  (545) 
BulkDock Fragalysis export,openbind_d68ev3c_c2_elabs_scored,openbind_d68ev3c_c2_elabs_scored_4.5plus,openbind_d68ev3c_c2_elabs,openbind_d68ev3c_c2_elabs_scored_5plus,syndirella_product,openbind_d68ev3c_c2_elabs_scored_top80percent,syndirella_placed

>  <smiles>  (545) 
C#Cc1cc(Cl)c(F)c(F)c1NC(=O)c1c(C)cncc1F

>  <subsites>  (545) 
None

>  <rmsd(smina/fragmenstein)>  (545) 
1.731

>  <alias>  (545) 
None

>  <energy_score>  (545) 
-14.395282

>  <HIPPO Pose ID>  (545) 
66192

>  <distance_score>  (545) 
0.795781

>  <HIPPO Compound ID>  (545) 
104057

>  <gnina_score_min>  (545) 
5.214

>  <name>  (545) 
P66192

>  <exports>  (545) 
['/opt/xchem-fragalysis-2/maxwin/BulkDock/OUTPUTS/openbind_d68ev3c_c2_elabs_1LOTQJ3.sdf', '/opt/xchem-fragalysis-2/maxwin/BulkDock/OUTPUTS/openbind_d68ev3c_c2_elabs_1LSYEHW.sdf', '/opt/xchem-fragalysis-2/maxwin/BulkDock/OUTPUTS/openbind_d68ev3c_c2_elabs_1LSYI5W.sdf']

$$$$
P66198
     RDKit          3D

 22 23  0  0  0  0  0  0  0  0999 V2000
    3.1132   -4.1112   34.7234 C   0  0  0  0  0  0  0  0  0  0  0  0
    2.2441   -3.9125   35.9389 C   0  0  0  0  0  0  0  0  0  0  0  0
    1.0170   -4.5936   36.0780 C   0  0  0  0  0  0  0  0  0  0  0  0
    0.5520   -5.4319   35.0616 N   0  0  0  0  0  0  0  0  0  0  0  0
   -0.7241   -6.2973   34.9805 C   0  0  0  0  0  0  0  0  0  0  0  0
   -1.5483   -6.5062   35.7801 O   0  0  0  0  0  0  0  0  0  0  0  0
   -0.8946   -6.9700   33.6513 C   0  0  0  0  0  0  0  0  0  0  0  0
   -1.6564   -8.1445   33.6540 C   0  0  0  0  0  0  0  0  0  0  0  0
   -2.1369   -8.6865   34.7796 F   0  0  0  0  0  0  0  0  0  0  0  0
   -1.9567   -8.7701   32.4613 C   0  0  0  0  0  0  0  0  0  0  0  0
   -1.5407   -8.3281   31.2573 N   0  0  0  0  0  0  0  0  0  0  0  0
   -0.7701   -7.2142   31.2684 C   0  0  0  0  0  0  0  0  0  0  0  0
   -0.4443   -6.4909   32.4146 C   0  0  0  0  0  0  0  0  0  0  0  0
    0.4225   -5.0219   32.1686 Cl  0  0  0  0  0  0  0  0  0  0  0  0
    0.2429   -4.4286   37.2346 C   0  0  0  0  0  0  0  0  0  0  0  0
    0.6763   -3.5967   38.2585 C   0  0  0  0  0  0  0  0  0  0  0  0
   -0.0639   -3.4736   39.3677 F   0  0  0  0  0  0  0  0  0  0  0  0
    1.8559   -2.8865   38.1485 C   0  0  0  0  0  0  0  0  0  0  0  0
    2.6222   -3.0400   36.9878 C   0  0  0  0  0  0  0  0  0  0  0  0
    3.8428   -2.2460   36.9099 N   0  0  0  0  0  0  0  0  0  0  0  0
    4.0128   -1.5633   35.8892 O   0  0  0  0  0  0  0  0  0  0  0  0
    4.6050   -2.2658   37.8884 O   0  0  0  0  0  0  0  0  0  0  0  0
  1  2  1  0
  2  3  2  0
  3  4  1  0
  4  5  1  0
  5  6  2  0
  5  7  1  0
  7  8  2  0
  8  9  1  0
  8 10  1  0
 10 11  2  0
 11 12  1  0
 12 13  2  0
 13 14  1  0
  3 15  1  0
 15 16  2  0
 16 17  1  0
 16 18  1  0
 18 19  2  0
 19 20  1  0
 20 21  2  0
 20 22  1  0
 19  2  1  0
 13  7  1  0
M  CHG  2  20   1  22  -1
M  END
>  <ref_mols>  (546) 
7gov-a

>  <gnina_score>  (546) 
5.13

>  <smina_score_min>  (546) 
-5.496

>  <ref_pdb>  (546) 
7gov-a

>  <inspiration_score>  (546) 
None

>  <inchikey>  (546) 
XVRIPQBZALLLJW-UHFFFAOYSA-N

>  <tags>  (546) 
BulkDock Fragalysis export,openbind_d68ev3c_c2_elabs_scored,openbind_d68ev3c_c2_elabs_scored_4.5plus,openbind_d68ev3c_c2_elabs,openbind_d68ev3c_c2_elabs_scored_5plus,syndirella_product,openbind_d68ev3c_c2_elabs_scored_top80percent,syndirella_placed

>  <smiles>  (546) 
Cc1c(NC(=O)c2c(F)cncc2Cl)cc(F)cc1[N+](=O)[O-]

>  <subsites>  (546) 
None

>  <rmsd(smina/fragmenstein)>  (546) 
0.543

>  <alias>  (546) 
None

>  <energy_score>  (546) 
-40.444657

>  <HIPPO Pose ID>  (546) 
66198

>  <distance_score>  (546) 
0.765655

>  <HIPPO Compound ID>  (546) 
104073

>  <gnina_score_min>  (546) 
5.016

>  <name>  (546) 
P66198

>  <exports>  (546) 
['/opt/xchem-fragalysis-2/maxwin/BulkDock/OUTPUTS/openbind_d68ev3c_c2_elabs_1LOTQJ3.sdf', '/opt/xchem-fragalysis-2/maxwin/BulkDock/OUTPUTS/openbind_d68ev3c_c2_elabs_1LSYEHW.sdf', '/opt/xchem-fragalysis-2/maxwin/BulkDock/OUTPUTS/openbind_d68ev3c_c2_elabs_1LSYI5W.sdf']

$$$$
P66199
     RDKit          3D

 22 23  0  0  0  0  0  0  0  0999 V2000
    3.5413   -4.9670   34.2355 C   0  0  0  0  0  0  0  0  0  0  0  0
    2.8409   -3.6803   34.5821 C   0  0  0  0  0  0  0  0  0  0  0  0
    2.9338   -2.6686   33.8925 O   0  0  0  0  0  0  0  0  0  0  0  0
    2.0557   -3.6293   35.8315 C   0  0  0  0  0  0  0  0  0  0  0  0
    2.5019   -2.7415   36.8227 C   0  0  0  0  0  0  0  0  0  0  0  0
    1.8780   -2.7197   38.0691 C   0  0  0  0  0  0  0  0  0  0  0  0
    0.8119   -3.5770   38.3117 C   0  0  0  0  0  0  0  0  0  0  0  0
    0.2043   -3.5430   39.5062 F   0  0  0  0  0  0  0  0  0  0  0  0
    0.3557   -4.4453   37.3240 C   0  0  0  0  0  0  0  0  0  0  0  0
   -0.7266   -5.1902   37.5909 F   0  0  0  0  0  0  0  0  0  0  0  0
    0.9671   -4.4809   36.0634 C   0  0  0  0  0  0  0  0  0  0  0  0
    0.4768   -5.3120   35.0507 N   0  0  0  0  0  0  0  0  0  0  0  0
   -0.3189   -6.6316   35.1344 C   0  0  0  0  0  0  0  0  0  0  0  0
   -0.6234   -7.2718   36.0587 O   0  0  0  0  0  0  0  0  0  0  0  0
   -0.7790   -7.1412   33.7933 C   0  0  0  0  0  0  0  0  0  0  0  0
   -0.1870   -6.7218   32.5992 C   0  0  0  0  0  0  0  0  0  0  0  0
    0.7739   -5.7875   32.5783 F   0  0  0  0  0  0  0  0  0  0  0  0
   -0.6047   -7.2606   31.3907 C   0  0  0  0  0  0  0  0  0  0  0  0
   -1.5837   -8.1849   31.2789 N   0  0  0  0  0  0  0  0  0  0  0  0
   -2.1502   -8.5806   32.4414 C   0  0  0  0  0  0  0  0  0  0  0  0
   -1.8096   -8.0907   33.6974 C   0  0  0  0  0  0  0  0  0  0  0  0
   -2.8173   -8.6286   34.9902 Cl  0  0  0  0  0  0  0  0  0  0  0  0
  1  2  1  0
  2  3  2  0
  2  4  1  0
  4  5  2  0
  5  6  1  0
  6  7  2  0
  7  8  1  0
  7  9  1  0
  9 10  1  0
  9 11  2  0
 11 12  1  0
 12 13  1  0
 13 14  2  0
 13 15  1  0
 15 16  2  0
 16 17  1  0
 16 18  1  0
 18 19  2  0
 19 20  1  0
 20 21  2  0
 21 22  1  0
 11  4  1  0
 21 15  1  0
M  END
>  <ref_mols>  (547) 
7gov-a

>  <gnina_score>  (547) 
5.323

>  <smina_score_min>  (547) 
-5.436

>  <ref_pdb>  (547) 
7gov-a

>  <inspiration_score>  (547) 
None

>  <inchikey>  (547) 
RVMMGAIWEAUIQU-UHFFFAOYSA-N

>  <tags>  (547) 
BulkDock Fragalysis export,openbind_d68ev3c_c2_elabs_scored,openbind_d68ev3c_c2_elabs_scored_4.5plus,openbind_d68ev3c_c2_elabs,openbind_d68ev3c_c2_elabs_scored_5plus,syndirella_product,openbind_d68ev3c_c2_elabs_scored_top80percent,syndirella_placed

>  <smiles>  (547) 
CC(=O)c1ccc(F)c(F)c1NC(=O)c1c(F)cncc1Cl

>  <subsites>  (547) 
None

>  <rmsd(smina/fragmenstein)>  (547) 
1.193

>  <alias>  (547) 
None

>  <energy_score>  (547) 
-22.770778

>  <HIPPO Pose ID>  (547) 
66199

>  <distance_score>  (547) 
0.574882

>  <HIPPO Compound ID>  (547) 
104074

>  <gnina_score_min>  (547) 
5.184

>  <name>  (547) 
P66199

>  <exports>  (547) 
['/opt/xchem-fragalysis-2/maxwin/BulkDock/OUTPUTS/openbind_d68ev3c_c2_elabs_1LOTQJ3.sdf', '/opt/xchem-fragalysis-2/maxwin/BulkDock/OUTPUTS/openbind_d68ev3c_c2_elabs_1LSYEHW.sdf', '/opt/xchem-fragalysis-2/maxwin/BulkDock/OUTPUTS/openbind_d68ev3c_c2_elabs_1LSYI5W.sdf']

$$$$
P66200
     RDKit          3D

 22 23  0  0  0  0  0  0  0  0999 V2000
    0.0633   -3.5842   39.5966 C   0  0  0  0  0  0  0  0  0  0  0  0
    0.8100   -3.6291   38.2938 C   0  0  0  0  0  0  0  0  0  0  0  0
    0.2885   -4.4063   37.2454 C   0  0  0  0  0  0  0  0  0  0  0  0
    0.9628   -4.5049   36.0250 C   0  0  0  0  0  0  0  0  0  0  0  0
    0.4658   -5.2805   34.9849 N   0  0  0  0  0  0  0  0  0  0  0  0
   -0.7292   -6.2529   34.9434 C   0  0  0  0  0  0  0  0  0  0  0  0
   -1.5322   -6.4991   35.7533 O   0  0  0  0  0  0  0  0  0  0  0  0
   -0.8844   -6.9466   33.6198 C   0  0  0  0  0  0  0  0  0  0  0  0
   -1.6360   -8.1292   33.6381 C   0  0  0  0  0  0  0  0  0  0  0  0
   -2.1098   -8.6640   34.7703 F   0  0  0  0  0  0  0  0  0  0  0  0
   -1.9370   -8.7723   32.4548 C   0  0  0  0  0  0  0  0  0  0  0  0
   -1.5292   -8.3433   31.2442 N   0  0  0  0  0  0  0  0  0  0  0  0
   -0.7622   -7.2271   31.2392 C   0  0  0  0  0  0  0  0  0  0  0  0
   -0.4371   -6.4853   32.3743 C   0  0  0  0  0  0  0  0  0  0  0  0
    0.4250   -5.0190   32.0946 Cl  0  0  0  0  0  0  0  0  0  0  0  0
    2.1487   -3.7977   35.8276 C   0  0  0  0  0  0  0  0  0  0  0  0
    2.7839   -3.8777   34.6475 F   0  0  0  0  0  0  0  0  0  0  0  0
    2.6901   -3.0181   36.8374 C   0  0  0  0  0  0  0  0  0  0  0  0
    2.0329   -2.9647   38.0738 C   0  0  0  0  0  0  0  0  0  0  0  0
    2.6822   -2.2029   39.1342 N   0  0  0  0  0  0  0  0  0  0  0  0
    2.7936   -2.7333   40.2486 O   0  0  0  0  0  0  0  0  0  0  0  0
    3.0980   -1.0724   38.8410 O   0  0  0  0  0  0  0  0  0  0  0  0
  1  2  1  0
  2  3  2  0
  3  4  1  0
  4  5  1  0
  5  6  1  0
  6  7  2  0
  6  8  1  0
  8  9  2  0
  9 10  1  0
  9 11  1  0
 11 12  2  0
 12 13  1  0
 13 14  2  0
 14 15  1  0
  4 16  2  0
 16 17  1  0
 16 18  1  0
 18 19  2  0
 19 20  1  0
 20 21  2  0
 20 22  1  0
 19  2  1  0
 14  8  1  0
M  CHG  2  20   1  22  -1
M  END
>  <ref_mols>  (548) 
7gov-a

>  <gnina_score>  (548) 
5.048

>  <smina_score_min>  (548) 
-5.744

>  <ref_pdb>  (548) 
7gov-a

>  <inspiration_score>  (548) 
None

>  <inchikey>  (548) 
VHVQWEWJEOPAND-UHFFFAOYSA-N

>  <tags>  (548) 
BulkDock Fragalysis export,openbind_d68ev3c_c2_elabs_scored,openbind_d68ev3c_c2_elabs_scored_4.5plus,openbind_d68ev3c_c2_elabs,openbind_d68ev3c_c2_elabs_scored_5plus,syndirella_product,openbind_d68ev3c_c2_elabs_scored_top80percent,syndirella_placed

>  <smiles>  (548) 
Cc1cc(NC(=O)c2c(F)cncc2Cl)c(F)cc1[N+](=O)[O-]

>  <subsites>  (548) 
None

>  <rmsd(smina/fragmenstein)>  (548) 
1.317

>  <alias>  (548) 
None

>  <energy_score>  (548) 
-36.700876

>  <HIPPO Pose ID>  (548) 
66200

>  <distance_score>  (548) 
0.752103

>  <HIPPO Compound ID>  (548) 
104075

>  <gnina_score_min>  (548) 
5.042

>  <name>  (548) 
P66200

>  <exports>  (548) 
['/opt/xchem-fragalysis-2/maxwin/BulkDock/OUTPUTS/openbind_d68ev3c_c2_elabs_1LOTQJ3.sdf', '/opt/xchem-fragalysis-2/maxwin/BulkDock/OUTPUTS/openbind_d68ev3c_c2_elabs_1LSYEHW.sdf', '/opt/xchem-fragalysis-2/maxwin/BulkDock/OUTPUTS/openbind_d68ev3c_c2_elabs_1LSYI5W.sdf']

$$$$
P66203
     RDKit          3D

 22 23  0  0  0  0  0  0  0  0999 V2000
    4.0755   -4.0369   34.4558 C   0  0  0  0  0  0  0  0  0  0  0  0
    3.2510   -2.8536   34.8907 C   0  0  0  0  0  0  0  0  0  0  0  0
    3.2251   -1.7972   34.2663 O   0  0  0  0  0  0  0  0  0  0  0  0
    2.4570   -2.9744   36.1270 C   0  0  0  0  0  0  0  0  0  0  0  0
    2.7820   -2.1855   37.2301 C   0  0  0  0  0  0  0  0  0  0  0  0
    2.1102   -2.3946   38.4380 C   0  0  0  0  0  0  0  0  0  0  0  0
    2.5557   -1.3317   39.9383 Br  0  0  0  0  0  0  0  0  0  0  0  0
    1.1281   -3.3803   38.5390 C   0  0  0  0  0  0  0  0  0  0  0  0
    0.4555   -3.5762   39.6825 F   0  0  0  0  0  0  0  0  0  0  0  0
    0.8110   -4.1669   37.4427 C   0  0  0  0  0  0  0  0  0  0  0  0
    1.4664   -3.9435   36.2315 C   0  0  0  0  0  0  0  0  0  0  0  0
    1.0873   -4.6823   35.1322 N   0  0  0  0  0  0  0  0  0  0  0  0
    0.6878   -6.1515   35.0134 C   0  0  0  0  0  0  0  0  0  0  0  0
    0.6866   -6.9989   35.8089 O   0  0  0  0  0  0  0  0  0  0  0  0
    0.1396   -6.4469   33.6795 C   0  0  0  0  0  0  0  0  0  0  0  0
    0.6305   -5.9456   32.4727 C   0  0  0  0  0  0  0  0  0  0  0  0
    0.0282   -6.3720   31.2981 C   0  0  0  0  0  0  0  0  0  0  0  0
   -0.9988   -7.2410   31.2619 N   0  0  0  0  0  0  0  0  0  0  0  0
   -1.4111   -7.7105   32.4569 C   0  0  0  0  0  0  0  0  0  0  0  0
   -2.7912   -9.1504   32.4777 I   0  0  0  0  0  0  0  0  0  0  0  0
   -0.9176   -7.3257   33.6751 C   0  0  0  0  0  0  0  0  0  0  0  0
   -1.4559   -7.7853   34.8171 F   0  0  0  0  0  0  0  0  0  0  0  0
  1  2  1  0
  2  3  2  0
  2  4  1  0
  4  5  2  0
  5  6  1  0
  6  7  1  0
  6  8  2  0
  8  9  1  0
  8 10  1  0
 10 11  2  0
 11 12  1  0
 12 13  1  0
 13 14  2  0
 13 15  1  0
 15 16  2  0
 16 17  1  0
 17 18  2  0
 18 19  1  0
 19 20  1  0
 19 21  2  0
 21 22  1  0
 11  4  1  0
 21 15  1  0
M  END
>  <ref_mols>  (549) 
7gov-a

>  <gnina_score>  (549) 
5.202

>  <smina_score_min>  (549) 
-4.181

>  <ref_pdb>  (549) 
7gov-a

>  <inspiration_score>  (549) 
None

>  <inchikey>  (549) 
GXELHYPJBRIEBB-UHFFFAOYSA-N

>  <tags>  (549) 
BulkDock Fragalysis export,openbind_d68ev3c_c2_elabs_scored,openbind_d68ev3c_c2_elabs_scored_4.5plus,openbind_d68ev3c_c2_elabs,openbind_d68ev3c_c2_elabs_scored_5plus,syndirella_product,openbind_d68ev3c_c2_elabs_scored_top80percent,syndirella_placed

>  <smiles>  (549) 
CC(=O)c1cc(Br)c(F)cc1NC(=O)c1ccnc(I)c1F

>  <subsites>  (549) 
None

>  <rmsd(smina/fragmenstein)>  (549) 
0.962

>  <alias>  (549) 
None

>  <energy_score>  (549) 
-0.414487

>  <HIPPO Pose ID>  (549) 
66203

>  <distance_score>  (549) 
1.018052

>  <HIPPO Compound ID>  (549) 
104096

>  <gnina_score_min>  (549) 
5.138

>  <name>  (549) 
P66203

>  <exports>  (549) 
['/opt/xchem-fragalysis-2/maxwin/BulkDock/OUTPUTS/openbind_d68ev3c_c2_elabs_1LOTQJ3.sdf', '/opt/xchem-fragalysis-2/maxwin/BulkDock/OUTPUTS/openbind_d68ev3c_c2_elabs_1LSYEHW.sdf', '/opt/xchem-fragalysis-2/maxwin/BulkDock/OUTPUTS/openbind_d68ev3c_c2_elabs_1LSYI5W.sdf']

$$$$
P66204
     RDKit          3D

 22 23  0  0  0  0  0  0  0  0999 V2000
    3.2644   -3.7673   33.7447 C   0  0  0  0  0  0  0  0  0  0  0  0
    2.6934   -3.7527   34.8010 C   0  0  0  0  0  0  0  0  0  0  0  0
    2.0070   -3.7390   36.0652 C   0  0  0  0  0  0  0  0  0  0  0  0
    2.4602   -2.8453   37.0428 C   0  0  0  0  0  0  0  0  0  0  0  0
    1.8416   -2.8099   38.2895 C   0  0  0  0  0  0  0  0  0  0  0  0
    2.4187   -1.7152   39.4876 Cl  0  0  0  0  0  0  0  0  0  0  0  0
    0.7665   -3.6495   38.5556 C   0  0  0  0  0  0  0  0  0  0  0  0
    0.1515   -3.6098   39.7477 F   0  0  0  0  0  0  0  0  0  0  0  0
    0.3104   -4.5401   37.5899 C   0  0  0  0  0  0  0  0  0  0  0  0
   -0.7284   -5.3205   37.9114 F   0  0  0  0  0  0  0  0  0  0  0  0
    0.9250   -4.6075   36.3362 C   0  0  0  0  0  0  0  0  0  0  0  0
    0.5197   -5.4796   35.3164 N   0  0  0  0  0  0  0  0  0  0  0  0
   -0.5963   -6.5500   35.2943 C   0  0  0  0  0  0  0  0  0  0  0  0
   -1.3009   -6.9260   36.1458 O   0  0  0  0  0  0  0  0  0  0  0  0
   -0.8315   -7.1149   33.9326 C   0  0  0  0  0  0  0  0  0  0  0  0
   -1.6164   -8.2665   33.8107 C   0  0  0  0  0  0  0  0  0  0  0  0
   -1.9453   -8.7080   32.5408 C   0  0  0  0  0  0  0  0  0  0  0  0
   -1.5497   -8.0966   31.4004 N   0  0  0  0  0  0  0  0  0  0  0  0
   -0.7526   -7.0066   31.5523 C   0  0  0  0  0  0  0  0  0  0  0  0
   -0.1098   -5.9714   29.8701 I   0  0  0  0  0  0  0  0  0  0  0  0
   -0.3873   -6.4849   32.7798 C   0  0  0  0  0  0  0  0  0  0  0  0
    0.3401   -5.3584   32.8427 F   0  0  0  0  0  0  0  0  0  0  0  0
  1  2  3  0
  2  3  1  0
  3  4  2  0
  4  5  1  0
  5  6  1  0
  5  7  2  0
  7  8  1  0
  7  9  1  0
  9 10  1  0
  9 11  2  0
 11 12  1  0
 12 13  1  0
 13 14  2  0
 13 15  1  0
 15 16  2  0
 16 17  1  0
 17 18  2  0
 18 19  1  0
 19 20  1  0
 19 21  2  0
 21 22  1  0
 11  3  1  0
 21 15  1  0
M  END
>  <ref_mols>  (550) 
7gov-a

>  <gnina_score>  (550) 
5.423

>  <smina_score_min>  (550) 
-5.313

>  <ref_pdb>  (550) 
7gov-a

>  <inspiration_score>  (550) 
None

>  <inchikey>  (550) 
FCYAUARUXVEBBM-UHFFFAOYSA-N

>  <tags>  (550) 
BulkDock Fragalysis export,openbind_d68ev3c_c2_elabs_scored,openbind_d68ev3c_c2_elabs_scored_4.5plus,openbind_d68ev3c_c2_elabs,openbind_d68ev3c_c2_elabs_scored_5plus,syndirella_product,openbind_d68ev3c_c2_elabs_scored_top80percent,syndirella_placed

>  <smiles>  (550) 
C#Cc1cc(Cl)c(F)c(F)c1NC(=O)c1ccnc(I)c1F

>  <subsites>  (550) 
None

>  <rmsd(smina/fragmenstein)>  (550) 
0.707

>  <alias>  (550) 
None

>  <energy_score>  (550) 
-10.894058

>  <HIPPO Pose ID>  (550) 
66204

>  <distance_score>  (550) 
0.766419

>  <HIPPO Compound ID>  (550) 
104098

>  <gnina_score_min>  (550) 
5.4

>  <name>  (550) 
P66204

>  <exports>  (550) 
['/opt/xchem-fragalysis-2/maxwin/BulkDock/OUTPUTS/openbind_d68ev3c_c2_elabs_1LOTQJ3.sdf', '/opt/xchem-fragalysis-2/maxwin/BulkDock/OUTPUTS/openbind_d68ev3c_c2_elabs_1LSYEHW.sdf', '/opt/xchem-fragalysis-2/maxwin/BulkDock/OUTPUTS/openbind_d68ev3c_c2_elabs_1LSYI5W.sdf']

$$$$
P66207
     RDKit          3D

 22 23  0  0  0  0  0  0  0  0999 V2000
    0.0928   -3.6680   39.8137 C   0  0  0  0  0  0  0  0  0  0  0  0
    0.7940   -3.6845   38.4863 C   0  0  0  0  0  0  0  0  0  0  0  0
    0.2757   -4.4916   37.4612 C   0  0  0  0  0  0  0  0  0  0  0  0
    0.9053   -4.5454   36.2175 C   0  0  0  0  0  0  0  0  0  0  0  0
    0.4305   -5.3540   35.1961 N   0  0  0  0  0  0  0  0  0  0  0  0
   -0.6705   -6.4379   35.2034 C   0  0  0  0  0  0  0  0  0  0  0  0
   -1.4035   -6.7667   36.0513 O   0  0  0  0  0  0  0  0  0  0  0  0
   -0.8692   -7.0817   33.8721 C   0  0  0  0  0  0  0  0  0  0  0  0
   -1.6348   -8.2520   33.8098 C   0  0  0  0  0  0  0  0  0  0  0  0
   -1.9605   -8.7599   32.5658 C   0  0  0  0  0  0  0  0  0  0  0  0
   -1.5769   -8.1981   31.3990 N   0  0  0  0  0  0  0  0  0  0  0  0
   -0.7919   -7.0934   31.4919 C   0  0  0  0  0  0  0  0  0  0  0  0
   -0.1997   -6.1581   29.7404 I   0  0  0  0  0  0  0  0  0  0  0  0
   -0.4283   -6.5051   32.6898 C   0  0  0  0  0  0  0  0  0  0  0  0
    0.2843   -5.3677   32.6976 F   0  0  0  0  0  0  0  0  0  0  0  0
    2.0346   -3.7607   35.9692 C   0  0  0  0  0  0  0  0  0  0  0  0
    2.6251   -3.8057   34.7635 F   0  0  0  0  0  0  0  0  0  0  0  0
    2.5701   -2.9484   36.9557 C   0  0  0  0  0  0  0  0  0  0  0  0
    1.9508   -2.9261   38.2104 C   0  0  0  0  0  0  0  0  0  0  0  0
    2.5635   -2.0966   39.2388 N   0  0  0  0  0  0  0  0  0  0  0  0
    1.8372   -1.2800   39.8217 O   0  0  0  0  0  0  0  0  0  0  0  0
    3.7754   -2.2510   39.4488 O   0  0  0  0  0  0  0  0  0  0  0  0
  1  2  1  0
  2  3  2  0
  3  4  1  0
  4  5  1  0
  5  6  1  0
  6  7  2  0
  6  8  1  0
  8  9  2  0
  9 10  1  0
 10 11  2  0
 11 12  1  0
 12 13  1  0
 12 14  2  0
 14 15  1  0
  4 16  2  0
 16 17  1  0
 16 18  1  0
 18 19  2  0
 19 20  1  0
 20 21  2  0
 20 22  1  0
 19  2  1  0
 14  8  1  0
M  CHG  2  20   1  22  -1
M  END
>  <ref_mols>  (551) 
7gov-a

>  <gnina_score>  (551) 
5.085

>  <smina_score_min>  (551) 
-5.775

>  <ref_pdb>  (551) 
7gov-a

>  <inspiration_score>  (551) 
None

>  <inchikey>  (551) 
YPVLYVYSILECKA-UHFFFAOYSA-N

>  <tags>  (551) 
BulkDock Fragalysis export,openbind_d68ev3c_c2_elabs_scored,openbind_d68ev3c_c2_elabs_scored_4.5plus,openbind_d68ev3c_c2_elabs,openbind_d68ev3c_c2_elabs_scored_5plus,syndirella_product,openbind_d68ev3c_c2_elabs_scored_top80percent,syndirella_placed

>  <smiles>  (551) 
Cc1cc(NC(=O)c2ccnc(I)c2F)c(F)cc1[N+](=O)[O-]

>  <subsites>  (551) 
None

>  <rmsd(smina/fragmenstein)>  (551) 
1.135

>  <alias>  (551) 
None

>  <energy_score>  (551) 
-27.334087

>  <HIPPO Pose ID>  (551) 
66207

>  <distance_score>  (551) 
0.752523

>  <HIPPO Compound ID>  (551) 
104105

>  <gnina_score_min>  (551) 
5.064

>  <name>  (551) 
P66207

>  <exports>  (551) 
['/opt/xchem-fragalysis-2/maxwin/BulkDock/OUTPUTS/openbind_d68ev3c_c2_elabs_1LOTQJ3.sdf', '/opt/xchem-fragalysis-2/maxwin/BulkDock/OUTPUTS/openbind_d68ev3c_c2_elabs_1LSYEHW.sdf', '/opt/xchem-fragalysis-2/maxwin/BulkDock/OUTPUTS/openbind_d68ev3c_c2_elabs_1LSYI5W.sdf']

$$$$
P66212
     RDKit          3D

 22 23  0  0  0  0  0  0  0  0999 V2000
    4.3077   -3.4886   34.8507 C   0  0  0  0  0  0  0  0  0  0  0  0
    2.8326   -3.7972   34.8342 C   0  0  0  0  0  0  0  0  0  0  0  0
    2.2627   -4.0852   33.7844 O   0  0  0  0  0  0  0  0  0  0  0  0
    2.0573   -3.7225   36.1113 C   0  0  0  0  0  0  0  0  0  0  0  0
    2.5187   -2.8784   37.1367 C   0  0  0  0  0  0  0  0  0  0  0  0
    1.8492   -2.8233   38.3578 C   0  0  0  0  0  0  0  0  0  0  0  0
    0.7171   -3.6019   38.5499 C   0  0  0  0  0  0  0  0  0  0  0  0
    0.0745   -3.5378   39.7238 F   0  0  0  0  0  0  0  0  0  0  0  0
    0.2340   -4.4252   37.5397 C   0  0  0  0  0  0  0  0  0  0  0  0
   -0.9008   -5.0960   37.7757 F   0  0  0  0  0  0  0  0  0  0  0  0
    0.8912   -4.4996   36.3063 C   0  0  0  0  0  0  0  0  0  0  0  0
    0.3949   -5.2822   35.2565 N   0  0  0  0  0  0  0  0  0  0  0  0
   -0.5760   -6.4891   35.2729 C   0  0  0  0  0  0  0  0  0  0  0  0
   -1.1725   -6.9694   36.1560 O   0  0  0  0  0  0  0  0  0  0  0  0
   -0.8354   -7.0687   33.9187 C   0  0  0  0  0  0  0  0  0  0  0  0
   -1.5751   -8.2558   33.8332 C   0  0  0  0  0  0  0  0  0  0  0  0
   -1.9103   -8.7419   32.5809 C   0  0  0  0  0  0  0  0  0  0  0  0
   -1.5492   -8.1524   31.4204 N   0  0  0  0  0  0  0  0  0  0  0  0
   -0.7936   -7.0289   31.5339 C   0  0  0  0  0  0  0  0  0  0  0  0
   -0.1643   -6.0684   29.8050 I   0  0  0  0  0  0  0  0  0  0  0  0
   -0.4496   -6.4480   32.7419 C   0  0  0  0  0  0  0  0  0  0  0  0
    0.1906   -5.2733   32.7575 F   0  0  0  0  0  0  0  0  0  0  0  0
  1  2  1  0
  2  3  2  0
  2  4  1  0
  4  5  2  0
  5  6  1  0
  6  7  2  0
  7  8  1  0
  7  9  1  0
  9 10  1  0
  9 11  2  0
 11 12  1  0
 12 13  1  0
 13 14  2  0
 13 15  1  0
 15 16  2  0
 16 17  1  0
 17 18  2  0
 18 19  1  0
 19 20  1  0
 19 21  2  0
 21 22  1  0
 11  4  1  0
 21 15  1  0
M  END
>  <ref_mols>  (552) 
7gov-a

>  <gnina_score>  (552) 
5.197

>  <smina_score_min>  (552) 
-5.427

>  <ref_pdb>  (552) 
7gov-a

>  <inspiration_score>  (552) 
None

>  <inchikey>  (552) 
LYVBXYKCOHXIOQ-UHFFFAOYSA-N

>  <tags>  (552) 
BulkDock Fragalysis export,openbind_d68ev3c_c2_elabs_scored,openbind_d68ev3c_c2_elabs_scored_4.5plus,openbind_d68ev3c_c2_elabs,openbind_d68ev3c_c2_elabs_scored_5plus,syndirella_product,openbind_d68ev3c_c2_elabs_scored_top80percent,syndirella_placed

>  <smiles>  (552) 
CC(=O)c1ccc(F)c(F)c1NC(=O)c1ccnc(I)c1F

>  <subsites>  (552) 
None

>  <rmsd(smina/fragmenstein)>  (552) 
0.601

>  <alias>  (552) 
None

>  <energy_score>  (552) 
-15.870066

>  <HIPPO Pose ID>  (552) 
66212

>  <distance_score>  (552) 
0.726665

>  <HIPPO Compound ID>  (552) 
104111

>  <gnina_score_min>  (552) 
5.136

>  <name>  (552) 
P66212

>  <exports>  (552) 
['/opt/xchem-fragalysis-2/maxwin/BulkDock/OUTPUTS/openbind_d68ev3c_c2_elabs_1LOTQJ3.sdf', '/opt/xchem-fragalysis-2/maxwin/BulkDock/OUTPUTS/openbind_d68ev3c_c2_elabs_1LSYEHW.sdf', '/opt/xchem-fragalysis-2/maxwin/BulkDock/OUTPUTS/openbind_d68ev3c_c2_elabs_1LSYI5W.sdf']

$$$$
P66213
     RDKit          3D

 22 23  0  0  0  0  0  0  0  0999 V2000
    3.4962   -3.7001   34.8854 C   0  0  0  0  0  0  0  0  0  0  0  0
    2.5026   -3.4592   35.9858 C   0  0  0  0  0  0  0  0  0  0  0  0
    1.2011   -3.9788   35.9582 C   0  0  0  0  0  0  0  0  0  0  0  0
    0.5916   -4.6943   34.9256 N   0  0  0  0  0  0  0  0  0  0  0  0
    0.9724   -4.8220   33.4232 C   0  0  0  0  0  0  0  0  0  0  0  0
    1.8089   -4.2864   32.8051 O   0  0  0  0  0  0  0  0  0  0  0  0
    0.1531   -5.8743   32.7443 C   0  0  0  0  0  0  0  0  0  0  0  0
    0.1491   -5.9803   31.3549 C   0  0  0  0  0  0  0  0  0  0  0  0
   -0.6135   -6.9805   30.7634 C   0  0  0  0  0  0  0  0  0  0  0  0
   -1.3945   -7.8477   31.4494 N   0  0  0  0  0  0  0  0  0  0  0  0
   -1.3248   -7.7431   32.7957 C   0  0  0  0  0  0  0  0  0  0  0  0
   -2.4147   -8.9802   33.9994 I   0  0  0  0  0  0  0  0  0  0  0  0
   -0.5654   -6.8083   33.4692 C   0  0  0  0  0  0  0  0  0  0  0  0
   -0.5452   -6.8128   34.8138 F   0  0  0  0  0  0  0  0  0  0  0  0
    0.3949   -3.9103   37.1142 C   0  0  0  0  0  0  0  0  0  0  0  0
    0.8441   -3.2930   38.2701 C   0  0  0  0  0  0  0  0  0  0  0  0
    0.0618   -3.2780   39.3567 F   0  0  0  0  0  0  0  0  0  0  0  0
    2.0839   -2.6951   38.3061 C   0  0  0  0  0  0  0  0  0  0  0  0
    2.8946   -2.7768   37.1667 C   0  0  0  0  0  0  0  0  0  0  0  0
    4.2008   -2.1353   37.2675 N   0  0  0  0  0  0  0  0  0  0  0  0
    4.4943   -1.3048   36.3961 O   0  0  0  0  0  0  0  0  0  0  0  0
    4.9068   -2.4224   38.2473 O   0  0  0  0  0  0  0  0  0  0  0  0
  1  2  1  0
  2  3  2  0
  3  4  1  0
  4  5  1  0
  5  6  2  0
  5  7  1  0
  7  8  2  0
  8  9  1  0
  9 10  2  0
 10 11  1  0
 11 12  1  0
 11 13  2  0
 13 14  1  0
  3 15  1  0
 15 16  2  0
 16 17  1  0
 16 18  1  0
 18 19  2  0
 19 20  1  0
 20 21  2  0
 20 22  1  0
 19  2  1  0
 13  7  1  0
M  CHG  2  20   1  22  -1
M  END
>  <ref_mols>  (553) 
7gov-a

>  <gnina_score>  (553) 
5.123

>  <smina_score_min>  (553) 
-4.671

>  <ref_pdb>  (553) 
7gov-a

>  <inspiration_score>  (553) 
None

>  <inchikey>  (553) 
ASPIKOJPSMFYOQ-UHFFFAOYSA-N

>  <tags>  (553) 
BulkDock Fragalysis export,openbind_d68ev3c_c2_elabs_scored,openbind_d68ev3c_c2_elabs_scored_4.5plus,openbind_d68ev3c_c2_elabs,openbind_d68ev3c_c2_elabs_scored_5plus,syndirella_product,openbind_d68ev3c_c2_elabs_scored_top80percent,syndirella_placed

>  <smiles>  (553) 
Cc1c(NC(=O)c2ccnc(I)c2F)cc(F)cc1[N+](=O)[O-]

>  <subsites>  (553) 
None

>  <rmsd(smina/fragmenstein)>  (553) 
1.801

>  <alias>  (553) 
None

>  <energy_score>  (553) 
-19.243327

>  <HIPPO Pose ID>  (553) 
66213

>  <distance_score>  (553) 
1.420872

>  <HIPPO Compound ID>  (553) 
104112

>  <gnina_score_min>  (553) 
5.31

>  <name>  (553) 
P66213

>  <exports>  (553) 
['/opt/xchem-fragalysis-2/maxwin/BulkDock/OUTPUTS/openbind_d68ev3c_c2_elabs_1LOTQJ3.sdf', '/opt/xchem-fragalysis-2/maxwin/BulkDock/OUTPUTS/openbind_d68ev3c_c2_elabs_1LSYEHW.sdf', '/opt/xchem-fragalysis-2/maxwin/BulkDock/OUTPUTS/openbind_d68ev3c_c2_elabs_1LSYI5W.sdf']

$$$$
P66220
     RDKit          3D

 22 23  0  0  0  0  0  0  0  0999 V2000
   -1.4353   -6.6598   35.8832 O   0  0  0  0  0  0  0  0  0  0  0  0
   -0.6147   -6.4244   35.0859 C   0  0  0  0  0  0  0  0  0  0  0  0
    0.6097   -5.4827   35.1559 N   0  0  0  0  0  0  0  0  0  0  0  0
    1.0134   -4.5919   36.1532 C   0  0  0  0  0  0  0  0  0  0  0  0
    0.2816   -4.4977   37.3413 C   0  0  0  0  0  0  0  0  0  0  0  0
    0.6818   -3.6117   38.3339 C   0  0  0  0  0  0  0  0  0  0  0  0
   -0.0141   -3.5423   39.4763 F   0  0  0  0  0  0  0  0  0  0  0  0
    1.7923   -2.7994   38.1629 C   0  0  0  0  0  0  0  0  0  0  0  0
    2.5191   -2.8767   36.9762 C   0  0  0  0  0  0  0  0  0  0  0  0
    2.1396   -3.7702   35.9544 C   0  0  0  0  0  0  0  0  0  0  0  0
    2.9808   -3.8387   34.7052 C   0  0  0  0  0  0  0  0  0  0  0  0
    3.5611   -2.6467   34.3832 F   0  0  0  0  0  0  0  0  0  0  0  0
    3.9952   -4.7398   34.7786 F   0  0  0  0  0  0  0  0  0  0  0  0
    2.2583   -4.1931   33.5971 F   0  0  0  0  0  0  0  0  0  0  0  0
   -0.7994   -7.0394   33.7355 C   0  0  0  0  0  0  0  0  0  0  0  0
   -1.5900   -8.1859   33.6656 C   0  0  0  0  0  0  0  0  0  0  0  0
   -1.9255   -8.6565   32.4173 C   0  0  0  0  0  0  0  0  0  0  0  0
   -2.7527   -9.6996   32.3270 F   0  0  0  0  0  0  0  0  0  0  0  0
   -1.5254   -8.1117   31.2554 N   0  0  0  0  0  0  0  0  0  0  0  0
   -0.7211   -7.0405   31.3624 C   0  0  0  0  0  0  0  0  0  0  0  0
   -0.2626   -6.3408   29.8689 Cl  0  0  0  0  0  0  0  0  0  0  0  0
   -0.3514   -6.4493   32.5536 C   0  0  0  0  0  0  0  0  0  0  0  0
  1  2  2  0
  2  3  1  0
  3  4  1  0
  4  5  2  0
  5  6  1  0
  6  7  1  0
  6  8  2  0
  8  9  1  0
  9 10  2  0
 10 11  1  0
 11 12  1  0
 11 13  1  0
 11 14  1  0
  2 15  1  0
 15 16  2  0
 16 17  1  0
 17 18  1  0
 17 19  2  0
 19 20  1  0
 20 21  1  0
 20 22  2  0
 10  4  1  0
 22 15  1  0
M  END
>  <ref_mols>  (554) 
7gov-a

>  <gnina_score>  (554) 
5.036

>  <smina_score_min>  (554) 
-6.16

>  <ref_pdb>  (554) 
7gov-a

>  <inspiration_score>  (554) 
None

>  <inchikey>  (554) 
YWXXJWSKVLGAAV-UHFFFAOYSA-N

>  <tags>  (554) 
BulkDock Fragalysis export,openbind_d68ev3c_c2_elabs_scored,openbind_d68ev3c_c2_elabs_scored_4.5plus,openbind_d68ev3c_c2_elabs,openbind_d68ev3c_c2_elabs_scored_5plus,syndirella_product,openbind_d68ev3c_c2_elabs_scored_top80percent,syndirella_placed

>  <smiles>  (554) 
O=C(Nc1cc(F)ccc1C(F)(F)F)c1cc(F)nc(Cl)c1

>  <subsites>  (554) 
None

>  <rmsd(smina/fragmenstein)>  (554) 
1.086

>  <alias>  (554) 
None

>  <energy_score>  (554) 
-1.043336

>  <HIPPO Pose ID>  (554) 
66220

>  <distance_score>  (554) 
0.746428

>  <HIPPO Compound ID>  (554) 
104133

>  <gnina_score_min>  (554) 
5.058

>  <name>  (554) 
P66220

>  <exports>  (554) 
['/opt/xchem-fragalysis-2/maxwin/BulkDock/OUTPUTS/openbind_d68ev3c_c2_elabs_1LOTQJ3.sdf', '/opt/xchem-fragalysis-2/maxwin/BulkDock/OUTPUTS/openbind_d68ev3c_c2_elabs_1LSYEHW.sdf', '/opt/xchem-fragalysis-2/maxwin/BulkDock/OUTPUTS/openbind_d68ev3c_c2_elabs_1LSYI5W.sdf']

$$$$
P66223
     RDKit          3D

 22 23  0  0  0  0  0  0  0  0999 V2000
   -0.4746   -6.4902   28.9072 C   0  0  0  0  0  0  0  0  0  0  0  0
   -0.6233   -6.8380   30.0471 C   0  0  0  0  0  0  0  0  0  0  0  0
   -0.8982   -7.3124   31.3642 C   0  0  0  0  0  0  0  0  0  0  0  0
   -0.5223   -6.6196   32.5007 C   0  0  0  0  0  0  0  0  0  0  0  0
   -0.9107   -7.1495   33.7341 C   0  0  0  0  0  0  0  0  0  0  0  0
   -0.7399   -6.4406   35.0392 C   0  0  0  0  0  0  0  0  0  0  0  0
   -1.5559   -6.6509   35.8474 O   0  0  0  0  0  0  0  0  0  0  0  0
    0.4540   -5.4595   35.0528 N   0  0  0  0  0  0  0  0  0  0  0  0
    0.9366   -4.6226   36.0738 C   0  0  0  0  0  0  0  0  0  0  0  0
    2.0629   -3.8159   35.8056 C   0  0  0  0  0  0  0  0  0  0  0  0
    2.7349   -3.8535   34.5360 C   0  0  0  0  0  0  0  0  0  0  0  0
    3.2962   -3.8889   33.4750 C   0  0  0  0  0  0  0  0  0  0  0  0
    2.5645   -2.9475   36.7851 C   0  0  0  0  0  0  0  0  0  0  0  0
    1.9562   -2.8808   38.0366 C   0  0  0  0  0  0  0  0  0  0  0  0
    2.5959   -1.8185   39.2319 Cl  0  0  0  0  0  0  0  0  0  0  0  0
    0.8453   -3.6684   38.3089 C   0  0  0  0  0  0  0  0  0  0  0  0
    0.2464   -3.6108   39.5094 F   0  0  0  0  0  0  0  0  0  0  0  0
    0.3398   -4.5300   37.3392 C   0  0  0  0  0  0  0  0  0  0  0  0
   -0.7181   -5.2766   37.6777 F   0  0  0  0  0  0  0  0  0  0  0  0
   -1.6412   -8.3410   33.7720 C   0  0  0  0  0  0  0  0  0  0  0  0
   -1.9885   -8.9287   32.5779 C   0  0  0  0  0  0  0  0  0  0  0  0
   -1.6451   -8.4372   31.3744 N   0  0  0  0  0  0  0  0  0  0  0  0
  1  2  3  0
  2  3  1  0
  3  4  2  0
  4  5  1  0
  5  6  1  0
  6  7  2  0
  6  8  1  0
  8  9  1  0
  9 10  2  0
 10 11  1  0
 11 12  3  0
 10 13  1  0
 13 14  2  0
 14 15  1  0
 14 16  1  0
 16 17  1  0
 16 18  2  0
 18 19  1  0
  5 20  2  0
 20 21  1  0
 21 22  2  0
 22  3  1  0
 18  9  1  0
M  END
>  <ref_mols>  (555) 
7gov-a

>  <gnina_score>  (555) 
5.277

>  <smina_score_min>  (555) 
-5.647

>  <ref_pdb>  (555) 
7gov-a

>  <inspiration_score>  (555) 
None

>  <inchikey>  (555) 
NKCSQCYKAMPDKC-UHFFFAOYSA-N

>  <tags>  (555) 
BulkDock Fragalysis export,openbind_d68ev3c_c2_elabs_scored,openbind_d68ev3c_c2_elabs_scored_4.5plus,openbind_d68ev3c_c2_elabs,openbind_d68ev3c_c2_elabs_scored_5plus,syndirella_product,openbind_d68ev3c_c2_elabs_scored_top80percent,syndirella_placed

>  <smiles>  (555) 
C#Cc1cc(C(=O)Nc2c(C#C)cc(Cl)c(F)c2F)ccn1

>  <subsites>  (555) 
None

>  <rmsd(smina/fragmenstein)>  (555) 
0.896

>  <alias>  (555) 
None

>  <energy_score>  (555) 
-9.601873

>  <HIPPO Pose ID>  (555) 
66223

>  <distance_score>  (555) 
0.75669

>  <HIPPO Compound ID>  (555) 
104137

>  <gnina_score_min>  (555) 
5.115

>  <name>  (555) 
P66223

>  <exports>  (555) 
['/opt/xchem-fragalysis-2/maxwin/BulkDock/OUTPUTS/openbind_d68ev3c_c2_elabs_1LOTQJ3.sdf', '/opt/xchem-fragalysis-2/maxwin/BulkDock/OUTPUTS/openbind_d68ev3c_c2_elabs_1LSYEHW.sdf', '/opt/xchem-fragalysis-2/maxwin/BulkDock/OUTPUTS/openbind_d68ev3c_c2_elabs_1LSYI5W.sdf']

$$$$
P66225
     RDKit          3D

 22 23  0  0  0  0  0  0  0  0999 V2000
    3.4777   -4.7684   34.0762 C   0  0  0  0  0  0  0  0  0  0  0  0
    2.7248   -3.5329   34.4933 C   0  0  0  0  0  0  0  0  0  0  0  0
    2.7219   -2.4999   33.8305 O   0  0  0  0  0  0  0  0  0  0  0  0
    1.9766   -3.5715   35.7637 C   0  0  0  0  0  0  0  0  0  0  0  0
    2.3937   -2.7119   36.7867 C   0  0  0  0  0  0  0  0  0  0  0  0
    1.7992   -2.8087   38.0438 C   0  0  0  0  0  0  0  0  0  0  0  0
    2.3715   -1.6619   39.4339 Br  0  0  0  0  0  0  0  0  0  0  0  0
    0.7985   -3.7518   38.2703 C   0  0  0  0  0  0  0  0  0  0  0  0
    0.2037   -3.8457   39.4692 F   0  0  0  0  0  0  0  0  0  0  0  0
    0.3824   -4.6059   37.2517 C   0  0  0  0  0  0  0  0  0  0  0  0
    0.9604   -4.5081   35.9840 C   0  0  0  0  0  0  0  0  0  0  0  0
    0.4887   -5.3214   34.9573 N   0  0  0  0  0  0  0  0  0  0  0  0
   -0.1348   -6.7306   35.0024 C   0  0  0  0  0  0  0  0  0  0  0  0
   -0.2809   -7.4627   35.8961 O   0  0  0  0  0  0  0  0  0  0  0  0
   -0.6742   -7.1785   33.6652 C   0  0  0  0  0  0  0  0  0  0  0  0
   -0.1116   -6.7100   32.4724 C   0  0  0  0  0  0  0  0  0  0  0  0
   -0.6487   -7.1320   31.2724 C   0  0  0  0  0  0  0  0  0  0  0  0
   -0.1769   -6.5999   30.1372 F   0  0  0  0  0  0  0  0  0  0  0  0
   -1.6646   -8.0074   31.1653 N   0  0  0  0  0  0  0  0  0  0  0  0
   -2.1496   -8.4938   32.3218 C   0  0  0  0  0  0  0  0  0  0  0  0
   -1.7298   -8.1081   33.5878 C   0  0  0  0  0  0  0  0  0  0  0  0
   -2.4436   -8.7743   34.7239 C   0  0  0  0  0  0  0  0  0  0  0  0
  1  2  1  0
  2  3  2  0
  2  4  1  0
  4  5  2  0
  5  6  1  0
  6  7  1  0
  6  8  2  0
  8  9  1  0
  8 10  1  0
 10 11  2  0
 11 12  1  0
 12 13  1  0
 13 14  2  0
 13 15  1  0
 15 16  2  0
 16 17  1  0
 17 18  1  0
 17 19  2  0
 19 20  1  0
 20 21  2  0
 21 22  1  0
 11  4  1  0
 21 15  1  0
M  END
>  <ref_mols>  (556) 
7gov-a

>  <gnina_score>  (556) 
5.062

>  <smina_score_min>  (556) 
-5.912

>  <ref_pdb>  (556) 
7gov-a

>  <inspiration_score>  (556) 
None

>  <inchikey>  (556) 
OVHYSUIYBHJCCI-UHFFFAOYSA-N

>  <tags>  (556) 
BulkDock Fragalysis export,openbind_d68ev3c_c2_elabs_scored,openbind_d68ev3c_c2_elabs_scored_4.5plus,openbind_d68ev3c_c2_elabs,openbind_d68ev3c_c2_elabs_scored_5plus,syndirella_product,openbind_d68ev3c_c2_elabs_scored_top80percent,syndirella_placed

>  <smiles>  (556) 
CC(=O)c1cc(Br)c(F)cc1NC(=O)c1cc(F)ncc1C

>  <subsites>  (556) 
None

>  <rmsd(smina/fragmenstein)>  (556) 
1.494

>  <alias>  (556) 
None

>  <energy_score>  (556) 
-14.500898

>  <HIPPO Pose ID>  (556) 
66225

>  <distance_score>  (556) 
0.507222

>  <HIPPO Compound ID>  (556) 
104143

>  <gnina_score_min>  (556) 
5.027

>  <name>  (556) 
P66225

>  <exports>  (556) 
['/opt/xchem-fragalysis-2/maxwin/BulkDock/OUTPUTS/openbind_d68ev3c_c2_elabs_1LOTQJ3.sdf', '/opt/xchem-fragalysis-2/maxwin/BulkDock/OUTPUTS/openbind_d68ev3c_c2_elabs_1LSYEHW.sdf', '/opt/xchem-fragalysis-2/maxwin/BulkDock/OUTPUTS/openbind_d68ev3c_c2_elabs_1LSYI5W.sdf']

$$$$
P66228
     RDKit          3D

 22 23  0  0  0  0  0  0  0  0999 V2000
    3.4724   -4.7372   34.0578 C   0  0  0  0  0  0  0  0  0  0  0  0
    2.7260   -3.5000   34.4824 C   0  0  0  0  0  0  0  0  0  0  0  0
    2.7384   -2.4591   33.8322 O   0  0  0  0  0  0  0  0  0  0  0  0
    1.9653   -3.5472   35.7452 C   0  0  0  0  0  0  0  0  0  0  0  0
    2.3766   -2.6989   36.7829 C   0  0  0  0  0  0  0  0  0  0  0  0
    1.7768   -2.7986   38.0386 C   0  0  0  0  0  0  0  0  0  0  0  0
    0.7796   -3.7459   38.2475 C   0  0  0  0  0  0  0  0  0  0  0  0
    0.1951   -3.8242   39.4515 F   0  0  0  0  0  0  0  0  0  0  0  0
    0.3688   -4.5858   37.2159 C   0  0  0  0  0  0  0  0  0  0  0  0
   -0.6388   -5.4441   37.4408 F   0  0  0  0  0  0  0  0  0  0  0  0
    0.9450   -4.4817   35.9446 C   0  0  0  0  0  0  0  0  0  0  0  0
    0.4697   -5.2668   34.8949 N   0  0  0  0  0  0  0  0  0  0  0  0
    0.0427   -6.7446   34.8662 C   0  0  0  0  0  0  0  0  0  0  0  0
    0.0925   -7.5602   35.6946 O   0  0  0  0  0  0  0  0  0  0  0  0
   -0.5815   -7.1451   33.5659 C   0  0  0  0  0  0  0  0  0  0  0  0
   -0.0638   -6.6735   32.3578 C   0  0  0  0  0  0  0  0  0  0  0  0
   -0.6540   -7.0978   31.1859 C   0  0  0  0  0  0  0  0  0  0  0  0
   -0.2209   -6.5833   30.0271 F   0  0  0  0  0  0  0  0  0  0  0  0
   -1.6853   -7.9629   31.1270 N   0  0  0  0  0  0  0  0  0  0  0  0
   -2.1364   -8.4353   32.3044 C   0  0  0  0  0  0  0  0  0  0  0  0
   -1.6563   -8.0515   33.5458 C   0  0  0  0  0  0  0  0  0  0  0  0
   -2.3195   -8.6796   34.7320 C   0  0  0  0  0  0  0  0  0  0  0  0
  1  2  1  0
  2  3  2  0
  2  4  1  0
  4  5  2  0
  5  6  1  0
  6  7  2  0
  7  8  1  0
  7  9  1  0
  9 10  1  0
  9 11  2  0
 11 12  1  0
 12 13  1  0
 13 14  2  0
 13 15  1  0
 15 16  2  0
 16 17  1  0
 17 18  1  0
 17 19  2  0
 19 20  1  0
 20 21  2  0
 21 22  1  0
 11  4  1  0
 21 15  1  0
M  END
>  <ref_mols>  (557) 
7gov-a

>  <gnina_score>  (557) 
5.087

>  <smina_score_min>  (557) 
-5.549

>  <ref_pdb>  (557) 
7gov-a

>  <inspiration_score>  (557) 
None

>  <inchikey>  (557) 
SJDMXDHYVRHBNL-UHFFFAOYSA-N

>  <tags>  (557) 
BulkDock Fragalysis export,openbind_d68ev3c_c2_elabs_scored,openbind_d68ev3c_c2_elabs_scored_4.5plus,openbind_d68ev3c_c2_elabs,openbind_d68ev3c_c2_elabs_scored_5plus,syndirella_product,openbind_d68ev3c_c2_elabs_scored_top80percent,syndirella_placed

>  <smiles>  (557) 
CC(=O)c1ccc(F)c(F)c1NC(=O)c1cc(F)ncc1C

>  <subsites>  (557) 
None

>  <rmsd(smina/fragmenstein)>  (557) 
1.046

>  <alias>  (557) 
None

>  <energy_score>  (557) 
-19.931683

>  <HIPPO Pose ID>  (557) 
66228

>  <distance_score>  (557) 
0.441371

>  <HIPPO Compound ID>  (557) 
104151

>  <gnina_score_min>  (557) 
5.01

>  <name>  (557) 
P66228

>  <exports>  (557) 
['/opt/xchem-fragalysis-2/maxwin/BulkDock/OUTPUTS/openbind_d68ev3c_c2_elabs_1LOTQJ3.sdf', '/opt/xchem-fragalysis-2/maxwin/BulkDock/OUTPUTS/openbind_d68ev3c_c2_elabs_1LSYEHW.sdf', '/opt/xchem-fragalysis-2/maxwin/BulkDock/OUTPUTS/openbind_d68ev3c_c2_elabs_1LSYI5W.sdf']

$$$$
P66229
     RDKit          3D

 22 23  0  0  0  0  0  0  0  0999 V2000
    2.9902   -3.2747   33.3051 C   0  0  0  0  0  0  0  0  0  0  0  0
    2.4947   -3.3837   34.3936 C   0  0  0  0  0  0  0  0  0  0  0  0
    1.9015   -3.5120   35.6941 C   0  0  0  0  0  0  0  0  0  0  0  0
    2.3830   -2.7117   36.7376 C   0  0  0  0  0  0  0  0  0  0  0  0
    1.8595   -2.8500   38.0250 C   0  0  0  0  0  0  0  0  0  0  0  0
    2.4539   -1.8413   39.2890 Cl  0  0  0  0  0  0  0  0  0  0  0  0
    0.8574   -3.7813   38.2748 C   0  0  0  0  0  0  0  0  0  0  0  0
    0.3065   -3.8824   39.4951 F   0  0  0  0  0  0  0  0  0  0  0  0
    0.3974   -4.5973   37.2483 C   0  0  0  0  0  0  0  0  0  0  0  0
   -0.6034   -5.4536   37.5072 F   0  0  0  0  0  0  0  0  0  0  0  0
    0.9114   -4.4713   35.9517 C   0  0  0  0  0  0  0  0  0  0  0  0
    0.4447   -5.2819   34.9167 N   0  0  0  0  0  0  0  0  0  0  0  0
   -0.0475   -6.7406   34.9333 C   0  0  0  0  0  0  0  0  0  0  0  0
   -0.0690   -7.5197   35.7979 O   0  0  0  0  0  0  0  0  0  0  0  0
   -0.6310   -7.1666   33.6187 C   0  0  0  0  0  0  0  0  0  0  0  0
   -0.0849   -6.6935   32.4222 C   0  0  0  0  0  0  0  0  0  0  0  0
   -0.6464   -7.1127   31.2344 C   0  0  0  0  0  0  0  0  0  0  0  0
   -0.1929   -6.5847   30.0894 F   0  0  0  0  0  0  0  0  0  0  0  0
   -1.6729   -7.9808   31.1473 N   0  0  0  0  0  0  0  0  0  0  0  0
   -2.1437   -8.4639   32.3129 C   0  0  0  0  0  0  0  0  0  0  0  0
   -1.6957   -8.0833   33.5684 C   0  0  0  0  0  0  0  0  0  0  0  0
   -2.3840   -8.7277   34.7313 C   0  0  0  0  0  0  0  0  0  0  0  0
  1  2  3  0
  2  3  1  0
  3  4  2  0
  4  5  1  0
  5  6  1  0
  5  7  2  0
  7  8  1  0
  7  9  1  0
  9 10  1  0
  9 11  2  0
 11 12  1  0
 12 13  1  0
 13 14  2  0
 13 15  1  0
 15 16  2  0
 16 17  1  0
 17 18  1  0
 17 19  2  0
 19 20  1  0
 20 21  2  0
 21 22  1  0
 11  3  1  0
 21 15  1  0
M  END
>  <ref_mols>  (558) 
7gov-a

>  <gnina_score>  (558) 
5.212

>  <smina_score_min>  (558) 
-5.421

>  <ref_pdb>  (558) 
7gov-a

>  <inspiration_score>  (558) 
None

>  <inchikey>  (558) 
VSBILQYIEYLBSJ-UHFFFAOYSA-N

>  <tags>  (558) 
BulkDock Fragalysis export,openbind_d68ev3c_c2_elabs_scored,openbind_d68ev3c_c2_elabs_scored_4.5plus,openbind_d68ev3c_c2_elabs,openbind_d68ev3c_c2_elabs_scored_5plus,syndirella_product,openbind_d68ev3c_c2_elabs_scored_top80percent,syndirella_placed

>  <smiles>  (558) 
C#Cc1cc(Cl)c(F)c(F)c1NC(=O)c1cc(F)ncc1C

>  <subsites>  (558) 
None

>  <rmsd(smina/fragmenstein)>  (558) 
0.897

>  <alias>  (558) 
None

>  <energy_score>  (558) 
-3.785241

>  <HIPPO Pose ID>  (558) 
66229

>  <distance_score>  (558) 
0.490338

>  <HIPPO Compound ID>  (558) 
104153

>  <gnina_score_min>  (558) 
5.15

>  <name>  (558) 
P66229

>  <exports>  (558) 
['/opt/xchem-fragalysis-2/maxwin/BulkDock/OUTPUTS/openbind_d68ev3c_c2_elabs_1LOTQJ3.sdf', '/opt/xchem-fragalysis-2/maxwin/BulkDock/OUTPUTS/openbind_d68ev3c_c2_elabs_1LSYEHW.sdf', '/opt/xchem-fragalysis-2/maxwin/BulkDock/OUTPUTS/openbind_d68ev3c_c2_elabs_1LSYI5W.sdf']

$$$$
P66234
     RDKit          3D

 22 23  0  0  0  0  0  0  0  0999 V2000
    3.2625   -3.7411   33.5205 C   0  0  0  0  0  0  0  0  0  0  0  0
    2.7066   -3.7300   34.5848 C   0  0  0  0  0  0  0  0  0  0  0  0
    2.0382   -3.7198   35.8564 C   0  0  0  0  0  0  0  0  0  0  0  0
    2.5628   -2.9039   36.8677 C   0  0  0  0  0  0  0  0  0  0  0  0
    1.9652   -2.8812   38.1268 C   0  0  0  0  0  0  0  0  0  0  0  0
    2.6327   -1.8815   39.3607 Cl  0  0  0  0  0  0  0  0  0  0  0  0
    0.8383   -3.6552   38.3739 C   0  0  0  0  0  0  0  0  0  0  0  0
    0.2365   -3.6214   39.5736 F   0  0  0  0  0  0  0  0  0  0  0  0
    0.3112   -4.4650   37.3734 C   0  0  0  0  0  0  0  0  0  0  0  0
   -0.8020   -5.1540   37.6563 F   0  0  0  0  0  0  0  0  0  0  0  0
    0.9056   -4.5206   36.1060 C   0  0  0  0  0  0  0  0  0  0  0  0
    0.3958   -5.3179   35.0707 N   0  0  0  0  0  0  0  0  0  0  0  0
   -0.5783   -6.5155   35.1133 C   0  0  0  0  0  0  0  0  0  0  0  0
   -1.1698   -6.9785   36.0073 O   0  0  0  0  0  0  0  0  0  0  0  0
   -0.8370   -7.1197   33.7684 C   0  0  0  0  0  0  0  0  0  0  0  0
   -1.6180   -8.2842   33.7327 C   0  0  0  0  0  0  0  0  0  0  0  0
   -1.9864   -8.7998   32.5060 C   0  0  0  0  0  0  0  0  0  0  0  0
   -1.6284   -8.2550   31.3259 N   0  0  0  0  0  0  0  0  0  0  0  0
   -0.8341   -7.1585   31.3870 C   0  0  0  0  0  0  0  0  0  0  0  0
   -0.5045   -6.5857   30.2202 F   0  0  0  0  0  0  0  0  0  0  0  0
   -0.4260   -6.5586   32.5649 C   0  0  0  0  0  0  0  0  0  0  0  0
    0.3053   -5.4358   32.5165 F   0  0  0  0  0  0  0  0  0  0  0  0
  1  2  3  0
  2  3  1  0
  3  4  2  0
  4  5  1  0
  5  6  1  0
  5  7  2  0
  7  8  1  0
  7  9  1  0
  9 10  1  0
  9 11  2  0
 11 12  1  0
 12 13  1  0
 13 14  2  0
 13 15  1  0
 15 16  2  0
 16 17  1  0
 17 18  2  0
 18 19  1  0
 19 20  1  0
 19 21  2  0
 21 22  1  0
 11  3  1  0
 21 15  1  0
M  END
>  <ref_mols>  (559) 
7gov-a

>  <gnina_score>  (559) 
5.242

>  <smina_score_min>  (559) 
-5.898

>  <ref_pdb>  (559) 
7gov-a

>  <inspiration_score>  (559) 
None

>  <inchikey>  (559) 
KPWGVQWAJDHYHS-UHFFFAOYSA-N

>  <tags>  (559) 
BulkDock Fragalysis export,openbind_d68ev3c_c2_elabs_scored,openbind_d68ev3c_c2_elabs_scored_4.5plus,openbind_d68ev3c_c2_elabs,openbind_d68ev3c_c2_elabs_scored_5plus,syndirella_product,openbind_d68ev3c_c2_elabs_scored_top80percent,syndirella_placed

>  <smiles>  (559) 
C#Cc1cc(Cl)c(F)c(F)c1NC(=O)c1ccnc(F)c1F

>  <subsites>  (559) 
None

>  <rmsd(smina/fragmenstein)>  (559) 
0.936

>  <alias>  (559) 
None

>  <energy_score>  (559) 
-9.673208

>  <HIPPO Pose ID>  (559) 
66234

>  <distance_score>  (559) 
0.664599

>  <HIPPO Compound ID>  (559) 
104171

>  <gnina_score_min>  (559) 
5.083

>  <name>  (559) 
P66234

>  <exports>  (559) 
['/opt/xchem-fragalysis-2/maxwin/BulkDock/OUTPUTS/openbind_d68ev3c_c2_elabs_1LOTQJ3.sdf', '/opt/xchem-fragalysis-2/maxwin/BulkDock/OUTPUTS/openbind_d68ev3c_c2_elabs_1LSYEHW.sdf', '/opt/xchem-fragalysis-2/maxwin/BulkDock/OUTPUTS/openbind_d68ev3c_c2_elabs_1LSYI5W.sdf']

$$$$
P66236
     RDKit          3D

 22 23  0  0  0  0  0  0  0  0999 V2000
    0.0291   -3.6177   39.6762 C   0  0  0  0  0  0  0  0  0  0  0  0
    0.7770   -3.6516   38.3740 C   0  0  0  0  0  0  0  0  0  0  0  0
    0.2790   -4.4530   37.3328 C   0  0  0  0  0  0  0  0  0  0  0  0
    0.9575   -4.5370   36.1153 C   0  0  0  0  0  0  0  0  0  0  0  0
    0.4945   -5.3327   35.0761 N   0  0  0  0  0  0  0  0  0  0  0  0
   -0.6522   -6.3658   35.0381 C   0  0  0  0  0  0  0  0  0  0  0  0
   -1.4376   -6.6551   35.8524 O   0  0  0  0  0  0  0  0  0  0  0  0
   -0.8116   -7.0080   33.6975 C   0  0  0  0  0  0  0  0  0  0  0  0
   -1.5771   -8.1723   33.6402 C   0  0  0  0  0  0  0  0  0  0  0  0
   -1.8996   -8.6646   32.3975 C   0  0  0  0  0  0  0  0  0  0  0  0
   -2.7042   -9.7257   32.3178 F   0  0  0  0  0  0  0  0  0  0  0  0
   -1.5076   -8.1254   31.2306 N   0  0  0  0  0  0  0  0  0  0  0  0
   -0.7223   -7.0394   31.3259 C   0  0  0  0  0  0  0  0  0  0  0  0
   -0.2712   -6.3525   29.8243 Cl  0  0  0  0  0  0  0  0  0  0  0  0
   -0.3685   -6.4255   32.5102 C   0  0  0  0  0  0  0  0  0  0  0  0
    2.1184   -3.7899   35.9100 C   0  0  0  0  0  0  0  0  0  0  0  0
    2.7474   -3.8545   34.7251 F   0  0  0  0  0  0  0  0  0  0  0  0
    2.6381   -2.9892   36.9139 C   0  0  0  0  0  0  0  0  0  0  0  0
    1.9800   -2.9516   38.1499 C   0  0  0  0  0  0  0  0  0  0  0  0
    2.6045   -2.1659   39.2072 N   0  0  0  0  0  0  0  0  0  0  0  0
    2.9688   -1.0181   38.9142 O   0  0  0  0  0  0  0  0  0  0  0  0
    2.7466   -2.6961   40.3181 O   0  0  0  0  0  0  0  0  0  0  0  0
  1  2  1  0
  2  3  2  0
  3  4  1  0
  4  5  1  0
  5  6  1  0
  6  7  2  0
  6  8  1  0
  8  9  2  0
  9 10  1  0
 10 11  1  0
 10 12  2  0
 12 13  1  0
 13 14  1  0
 13 15  2  0
  4 16  2  0
 16 17  1  0
 16 18  1  0
 18 19  2  0
 19 20  1  0
 20 21  2  0
 20 22  1  0
 19  2  1  0
 15  8  1  0
M  CHG  2  20   1  22  -1
M  END
>  <ref_mols>  (560) 
7gov-a

>  <gnina_score>  (560) 
5.04

>  <smina_score_min>  (560) 
-6.03

>  <ref_pdb>  (560) 
7gov-a

>  <inspiration_score>  (560) 
None

>  <inchikey>  (560) 
UJJYMKJIAMQFGT-UHFFFAOYSA-N

>  <tags>  (560) 
BulkDock Fragalysis export,openbind_d68ev3c_c2_elabs_scored,openbind_d68ev3c_c2_elabs_scored_4.5plus,openbind_d68ev3c_c2_elabs,openbind_d68ev3c_c2_elabs_scored_5plus,syndirella_product,openbind_d68ev3c_c2_elabs_scored_top80percent,syndirella_placed

>  <smiles>  (560) 
Cc1cc(NC(=O)c2cc(F)nc(Cl)c2)c(F)cc1[N+](=O)[O-]

>  <subsites>  (560) 
None

>  <rmsd(smina/fragmenstein)>  (560) 
1.105

>  <alias>  (560) 
None

>  <energy_score>  (560) 
-34.033517

>  <HIPPO Pose ID>  (560) 
66236

>  <distance_score>  (560) 
0.734034

>  <HIPPO Compound ID>  (560) 
104178

>  <gnina_score_min>  (560) 
5.029

>  <name>  (560) 
P66236

>  <exports>  (560) 
['/opt/xchem-fragalysis-2/maxwin/BulkDock/OUTPUTS/openbind_d68ev3c_c2_elabs_1LOTQJ3.sdf', '/opt/xchem-fragalysis-2/maxwin/BulkDock/OUTPUTS/openbind_d68ev3c_c2_elabs_1LSYEHW.sdf', '/opt/xchem-fragalysis-2/maxwin/BulkDock/OUTPUTS/openbind_d68ev3c_c2_elabs_1LSYI5W.sdf']

$$$$
P66237
     RDKit          3D

 22 23  0  0  0  0  0  0  0  0999 V2000
    3.0829   -4.0819   34.7939 C   0  0  0  0  0  0  0  0  0  0  0  0
    2.2147   -3.9010   36.0138 C   0  0  0  0  0  0  0  0  0  0  0  0
    1.0143   -4.6272   36.1654 C   0  0  0  0  0  0  0  0  0  0  0  0
    0.5924   -5.4969   35.1582 N   0  0  0  0  0  0  0  0  0  0  0  0
   -0.6333   -6.4361   35.0911 C   0  0  0  0  0  0  0  0  0  0  0  0
   -1.4395   -6.6871   35.8977 O   0  0  0  0  0  0  0  0  0  0  0  0
   -0.8190   -7.0418   33.7397 C   0  0  0  0  0  0  0  0  0  0  0  0
   -1.5985   -8.1941   33.6580 C   0  0  0  0  0  0  0  0  0  0  0  0
   -1.9198   -8.6579   32.4037 C   0  0  0  0  0  0  0  0  0  0  0  0
   -2.7322   -9.7112   32.2991 F   0  0  0  0  0  0  0  0  0  0  0  0
   -1.5154   -8.0999   31.2489 N   0  0  0  0  0  0  0  0  0  0  0  0
   -0.7233   -7.0210   31.3695 C   0  0  0  0  0  0  0  0  0  0  0  0
   -0.2493   -6.3094   29.8869 Cl  0  0  0  0  0  0  0  0  0  0  0  0
   -0.3694   -6.4353   32.5675 C   0  0  0  0  0  0  0  0  0  0  0  0
    0.2334   -4.4772   37.3180 C   0  0  0  0  0  0  0  0  0  0  0  0
    0.6398   -3.6199   38.3320 C   0  0  0  0  0  0  0  0  0  0  0  0
   -0.1049   -3.5080   39.4391 F   0  0  0  0  0  0  0  0  0  0  0  0
    1.7972   -2.8741   38.2158 C   0  0  0  0  0  0  0  0  0  0  0  0
    2.5668   -3.0115   37.0556 C   0  0  0  0  0  0  0  0  0  0  0  0
    3.7605   -2.1808   36.9705 N   0  0  0  0  0  0  0  0  0  0  0  0
    4.5417   -2.1986   37.9334 O   0  0  0  0  0  0  0  0  0  0  0  0
    3.8884   -1.4750   35.9596 O   0  0  0  0  0  0  0  0  0  0  0  0
  1  2  1  0
  2  3  2  0
  3  4  1  0
  4  5  1  0
  5  6  2  0
  5  7  1  0
  7  8  2  0
  8  9  1  0
  9 10  1  0
  9 11  2  0
 11 12  1  0
 12 13  1  0
 12 14  2  0
  3 15  1  0
 15 16  2  0
 16 17  1  0
 16 18  1  0
 18 19  2  0
 19 20  1  0
 20 21  2  0
 20 22  1  0
 19  2  1  0
 14  7  1  0
M  CHG  2  20   1  22  -1
M  END
>  <ref_mols>  (561) 
7gov-a

>  <gnina_score>  (561) 
5.082

>  <smina_score_min>  (561) 
-6.13

>  <ref_pdb>  (561) 
7gov-a

>  <inspiration_score>  (561) 
None

>  <inchikey>  (561) 
BVKHZGLQRRIIHC-UHFFFAOYSA-N

>  <tags>  (561) 
BulkDock Fragalysis export,openbind_d68ev3c_c2_elabs_scored,openbind_d68ev3c_c2_elabs_scored_4.5plus,openbind_d68ev3c_c2_elabs,openbind_d68ev3c_c2_elabs_scored_5plus,syndirella_product,openbind_d68ev3c_c2_elabs_scored_top80percent,syndirella_placed

>  <smiles>  (561) 
Cc1c(NC(=O)c2cc(F)nc(Cl)c2)cc(F)cc1[N+](=O)[O-]

>  <subsites>  (561) 
None

>  <rmsd(smina/fragmenstein)>  (561) 
1.088

>  <alias>  (561) 
None

>  <energy_score>  (561) 
-15.79123

>  <HIPPO Pose ID>  (561) 
66237

>  <distance_score>  (561) 
0.749551

>  <HIPPO Compound ID>  (561) 
104179

>  <gnina_score_min>  (561) 
5.025

>  <name>  (561) 
P66237

>  <exports>  (561) 
['/opt/xchem-fragalysis-2/maxwin/BulkDock/OUTPUTS/openbind_d68ev3c_c2_elabs_1LOTQJ3.sdf', '/opt/xchem-fragalysis-2/maxwin/BulkDock/OUTPUTS/openbind_d68ev3c_c2_elabs_1LSYEHW.sdf', '/opt/xchem-fragalysis-2/maxwin/BulkDock/OUTPUTS/openbind_d68ev3c_c2_elabs_1LSYI5W.sdf']

$$$$
P66238
     RDKit          3D

 22 23  0  0  0  0  0  0  0  0999 V2000
    4.3200   -3.4616   34.7174 C   0  0  0  0  0  0  0  0  0  0  0  0
    2.8589   -3.8297   34.7274 C   0  0  0  0  0  0  0  0  0  0  0  0
    2.2873   -4.1815   33.6944 O   0  0  0  0  0  0  0  0  0  0  0  0
    2.0958   -3.7486   36.0156 C   0  0  0  0  0  0  0  0  0  0  0  0
    2.5525   -2.8983   37.0371 C   0  0  0  0  0  0  0  0  0  0  0  0
    1.8724   -2.8322   38.2524 C   0  0  0  0  0  0  0  0  0  0  0  0
    0.7357   -3.6058   38.4421 C   0  0  0  0  0  0  0  0  0  0  0  0
    0.0877   -3.5333   39.6130 F   0  0  0  0  0  0  0  0  0  0  0  0
    0.2575   -4.4366   37.4345 C   0  0  0  0  0  0  0  0  0  0  0  0
   -0.8699   -5.1161   37.6763 F   0  0  0  0  0  0  0  0  0  0  0  0
    0.9264   -4.5230   36.2085 C   0  0  0  0  0  0  0  0  0  0  0  0
    0.4644   -5.3078   35.1445 N   0  0  0  0  0  0  0  0  0  0  0  0
   -0.5963   -6.4303   35.1119 C   0  0  0  0  0  0  0  0  0  0  0  0
   -1.3065   -6.8249   35.9503 O   0  0  0  0  0  0  0  0  0  0  0  0
   -0.7878   -7.0211   33.7449 C   0  0  0  0  0  0  0  0  0  0  0  0
   -1.5780   -8.1700   33.6643 C   0  0  0  0  0  0  0  0  0  0  0  0
   -1.9149   -8.6375   32.4149 C   0  0  0  0  0  0  0  0  0  0  0  0
   -2.7359   -9.6859   32.3226 F   0  0  0  0  0  0  0  0  0  0  0  0
   -1.5175   -8.0884   31.2549 N   0  0  0  0  0  0  0  0  0  0  0  0
   -0.7104   -7.0192   31.3686 C   0  0  0  0  0  0  0  0  0  0  0  0
   -0.2484   -6.3164   29.8767 Cl  0  0  0  0  0  0  0  0  0  0  0  0
   -0.3371   -6.4334   32.5626 C   0  0  0  0  0  0  0  0  0  0  0  0
  1  2  1  0
  2  3  2  0
  2  4  1  0
  4  5  2  0
  5  6  1  0
  6  7  2  0
  7  8  1  0
  7  9  1  0
  9 10  1  0
  9 11  2  0
 11 12  1  0
 12 13  1  0
 13 14  2  0
 13 15  1  0
 15 16  2  0
 16 17  1  0
 17 18  1  0
 17 19  2  0
 19 20  1  0
 20 21  1  0
 20 22  2  0
 11  4  1  0
 22 15  1  0
M  END
>  <ref_mols>  (562) 
7gov-a

>  <gnina_score>  (562) 
5.242

>  <smina_score_min>  (562) 
-6.003

>  <ref_pdb>  (562) 
7gov-a

>  <inspiration_score>  (562) 
None

>  <inchikey>  (562) 
KYDFRWJPXCOXDT-UHFFFAOYSA-N

>  <tags>  (562) 
BulkDock Fragalysis export,openbind_d68ev3c_c2_elabs_scored,openbind_d68ev3c_c2_elabs_scored_4.5plus,openbind_d68ev3c_c2_elabs,openbind_d68ev3c_c2_elabs_scored_5plus,syndirella_product,openbind_d68ev3c_c2_elabs_scored_top80percent,syndirella_placed

>  <smiles>  (562) 
CC(=O)c1ccc(F)c(F)c1NC(=O)c1cc(F)nc(Cl)c1

>  <subsites>  (562) 
None

>  <rmsd(smina/fragmenstein)>  (562) 
0.561

>  <alias>  (562) 
None

>  <energy_score>  (562) 
-20.245086

>  <HIPPO Pose ID>  (562) 
66238

>  <distance_score>  (562) 
0.714705

>  <HIPPO Compound ID>  (562) 
104180

>  <gnina_score_min>  (562) 
5.147

>  <name>  (562) 
P66238

>  <exports>  (562) 
['/opt/xchem-fragalysis-2/maxwin/BulkDock/OUTPUTS/openbind_d68ev3c_c2_elabs_1LOTQJ3.sdf', '/opt/xchem-fragalysis-2/maxwin/BulkDock/OUTPUTS/openbind_d68ev3c_c2_elabs_1LSYEHW.sdf', '/opt/xchem-fragalysis-2/maxwin/BulkDock/OUTPUTS/openbind_d68ev3c_c2_elabs_1LSYI5W.sdf']

$$$$
P66241
     RDKit          3D

 22 23  0  0  0  0  0  0  0  0999 V2000
    4.6697   -3.1758   34.9242 C   0  0  0  0  0  0  0  0  0  0  0  0
    3.2188   -3.5804   34.8866 C   0  0  0  0  0  0  0  0  0  0  0  0
    2.6913   -3.9540   33.8379 O   0  0  0  0  0  0  0  0  0  0  0  0
    2.4155   -3.5016   36.1482 C   0  0  0  0  0  0  0  0  0  0  0  0
    2.8201   -2.6739   37.2010 C   0  0  0  0  0  0  0  0  0  0  0  0
    2.0760   -2.6451   38.3782 C   0  0  0  0  0  0  0  0  0  0  0  0
    2.4825   -1.8581   39.3845 F   0  0  0  0  0  0  0  0  0  0  0  0
    0.9258   -3.4110   38.5138 C   0  0  0  0  0  0  0  0  0  0  0  0
    0.2153   -3.3751   39.6489 F   0  0  0  0  0  0  0  0  0  0  0  0
    0.4973   -4.2183   37.4729 C   0  0  0  0  0  0  0  0  0  0  0  0
    1.2454   -4.2721   36.2934 C   0  0  0  0  0  0  0  0  0  0  0  0
    0.8312   -5.0873   35.2517 N   0  0  0  0  0  0  0  0  0  0  0  0
   -0.3372   -6.0797   35.1649 C   0  0  0  0  0  0  0  0  0  0  0  0
   -1.0942   -6.4295   35.9800 O   0  0  0  0  0  0  0  0  0  0  0  0
   -0.5204   -6.6215   33.7872 C   0  0  0  0  0  0  0  0  0  0  0  0
   -0.0765   -6.0098   32.6127 C   0  0  0  0  0  0  0  0  0  0  0  0
   -0.4649   -6.5587   31.4027 C   0  0  0  0  0  0  0  0  0  0  0  0
   -0.0886   -5.9410   30.2744 F   0  0  0  0  0  0  0  0  0  0  0  0
   -1.2863   -7.6135   31.2814 N   0  0  0  0  0  0  0  0  0  0  0  0
   -1.6633   -8.1676   32.4419 C   0  0  0  0  0  0  0  0  0  0  0  0
   -2.7806   -9.4114   32.2782 Cl  0  0  0  0  0  0  0  0  0  0  0  0
   -1.3106   -7.7551   33.6983 C   0  0  0  0  0  0  0  0  0  0  0  0
  1  2  1  0
  2  3  2  0
  2  4  1  0
  4  5  2  0
  5  6  1  0
  6  7  1  0
  6  8  2  0
  8  9  1  0
  8 10  1  0
 10 11  2  0
 11 12  1  0
 12 13  1  0
 13 14  2  0
 13 15  1  0
 15 16  2  0
 16 17  1  0
 17 18  1  0
 17 19  2  0
 19 20  1  0
 20 21  1  0
 20 22  2  0
 11  4  1  0
 22 15  1  0
M  END
>  <ref_mols>  (563) 
7gov-a

>  <gnina_score>  (563) 
5.017

>  <smina_score_min>  (563) 
-5.519

>  <ref_pdb>  (563) 
7gov-a

>  <inspiration_score>  (563) 
None

>  <inchikey>  (563) 
WVCFHVPNGXCRNN-UHFFFAOYSA-N

>  <tags>  (563) 
BulkDock Fragalysis export,openbind_d68ev3c_c2_elabs_scored,openbind_d68ev3c_c2_elabs_scored_4.5plus,openbind_d68ev3c_c2_elabs,openbind_d68ev3c_c2_elabs_scored_5plus,syndirella_product,openbind_d68ev3c_c2_elabs_scored_top80percent,syndirella_placed

>  <smiles>  (563) 
CC(=O)c1cc(F)c(F)cc1NC(=O)c1cc(F)nc(Cl)c1

>  <subsites>  (563) 
None

>  <rmsd(smina/fragmenstein)>  (563) 
0.9

>  <alias>  (563) 
None

>  <energy_score>  (563) 
-26.428032

>  <HIPPO Pose ID>  (563) 
66241

>  <distance_score>  (563) 
0.885344

>  <HIPPO Compound ID>  (563) 
104190

>  <gnina_score_min>  (563) 
5.045

>  <name>  (563) 
P66241

>  <exports>  (563) 
['/opt/xchem-fragalysis-2/maxwin/BulkDock/OUTPUTS/openbind_d68ev3c_c2_elabs_1LOTQJ3.sdf', '/opt/xchem-fragalysis-2/maxwin/BulkDock/OUTPUTS/openbind_d68ev3c_c2_elabs_1LSYEHW.sdf', '/opt/xchem-fragalysis-2/maxwin/BulkDock/OUTPUTS/openbind_d68ev3c_c2_elabs_1LSYI5W.sdf']

$$$$
P66243
     RDKit          3D

 22 23  0  0  0  0  0  0  0  0999 V2000
    3.3854   -3.8503   33.6516 C   0  0  0  0  0  0  0  0  0  0  0  0
    2.7943   -3.8228   34.6967 C   0  0  0  0  0  0  0  0  0  0  0  0
    2.0877   -3.7914   35.9484 C   0  0  0  0  0  0  0  0  0  0  0  0
    2.5233   -2.8842   36.9228 C   0  0  0  0  0  0  0  0  0  0  0  0
    1.8752   -2.8213   38.1542 C   0  0  0  0  0  0  0  0  0  0  0  0
    2.4358   -1.7131   39.3475 Cl  0  0  0  0  0  0  0  0  0  0  0  0
    0.7883   -3.6484   38.4094 C   0  0  0  0  0  0  0  0  0  0  0  0
    0.1562   -3.5960   39.5925 F   0  0  0  0  0  0  0  0  0  0  0  0
    0.3467   -4.5479   37.4440 C   0  0  0  0  0  0  0  0  0  0  0  0
   -0.6795   -5.3443   37.7675 F   0  0  0  0  0  0  0  0  0  0  0  0
    0.9886   -4.6404   36.2028 C   0  0  0  0  0  0  0  0  0  0  0  0
    0.5911   -5.5288   35.1904 N   0  0  0  0  0  0  0  0  0  0  0  0
   -0.6473   -6.4482   35.0906 C   0  0  0  0  0  0  0  0  0  0  0  0
   -1.4904   -6.6687   35.8671 O   0  0  0  0  0  0  0  0  0  0  0  0
   -0.8111   -7.0591   33.7393 C   0  0  0  0  0  0  0  0  0  0  0  0
   -1.5939   -8.2092   33.6540 C   0  0  0  0  0  0  0  0  0  0  0  0
   -1.9160   -8.6689   32.3987 C   0  0  0  0  0  0  0  0  0  0  0  0
   -2.7331   -9.7182   32.2907 F   0  0  0  0  0  0  0  0  0  0  0  0
   -1.5101   -8.1091   31.2452 N   0  0  0  0  0  0  0  0  0  0  0  0
   -0.7144   -7.0333   31.3692 C   0  0  0  0  0  0  0  0  0  0  0  0
   -0.2467   -6.3130   29.8883 Cl  0  0  0  0  0  0  0  0  0  0  0  0
   -0.3576   -6.4524   32.5687 C   0  0  0  0  0  0  0  0  0  0  0  0
  1  2  3  0
  2  3  1  0
  3  4  2  0
  4  5  1  0
  5  6  1  0
  5  7  2  0
  7  8  1  0
  7  9  1  0
  9 10  1  0
  9 11  2  0
 11 12  1  0
 12 13  1  0
 13 14  2  0
 13 15  1  0
 15 16  2  0
 16 17  1  0
 17 18  1  0
 17 19  2  0
 19 20  1  0
 20 21  1  0
 20 22  2  0
 11  3  1  0
 22 15  1  0
M  END
>  <ref_mols>  (564) 
7gov-a

>  <gnina_score>  (564) 
5.425

>  <smina_score_min>  (564) 
-5.719

>  <ref_pdb>  (564) 
7gov-a

>  <inspiration_score>  (564) 
None

>  <inchikey>  (564) 
YYRCZRMOZGTVTD-UHFFFAOYSA-N

>  <tags>  (564) 
BulkDock Fragalysis export,openbind_d68ev3c_c2_elabs_scored,openbind_d68ev3c_c2_elabs_scored_4.5plus,openbind_d68ev3c_c2_elabs,openbind_d68ev3c_c2_elabs_scored_5plus,syndirella_product,openbind_d68ev3c_c2_elabs_scored_top80percent,syndirella_placed

>  <smiles>  (564) 
C#Cc1cc(Cl)c(F)c(F)c1NC(=O)c1cc(F)nc(Cl)c1

>  <subsites>  (564) 
None

>  <rmsd(smina/fragmenstein)>  (564) 
0.793

>  <alias>  (564) 
None

>  <energy_score>  (564) 
-8.332809

>  <HIPPO Pose ID>  (564) 
66243

>  <distance_score>  (564) 
0.765077

>  <HIPPO Compound ID>  (564) 
104192

>  <gnina_score_min>  (564) 
5.318

>  <name>  (564) 
P66243

>  <exports>  (564) 
['/opt/xchem-fragalysis-2/maxwin/BulkDock/OUTPUTS/openbind_d68ev3c_c2_elabs_1LOTQJ3.sdf', '/opt/xchem-fragalysis-2/maxwin/BulkDock/OUTPUTS/openbind_d68ev3c_c2_elabs_1LSYEHW.sdf', '/opt/xchem-fragalysis-2/maxwin/BulkDock/OUTPUTS/openbind_d68ev3c_c2_elabs_1LSYI5W.sdf']

$$$$
P66244
     RDKit          3D

 22 23  0  0  0  0  0  0  0  0999 V2000
    3.7415   -3.4384   33.8249 C   0  0  0  0  0  0  0  0  0  0  0  0
    3.1207   -3.4479   34.8529 C   0  0  0  0  0  0  0  0  0  0  0  0
    2.3826   -3.4557   36.0851 C   0  0  0  0  0  0  0  0  0  0  0  0
    2.8578   -2.7086   37.1668 C   0  0  0  0  0  0  0  0  0  0  0  0
    2.1718   -2.7257   38.3884 C   0  0  0  0  0  0  0  0  0  0  0  0
    2.6905   -2.0111   39.5119 C   0  0  0  0  0  0  0  0  0  0  0  0
    3.1466   -1.4265   40.4056 N   0  0  0  0  0  0  0  0  0  0  0  0
    0.9954   -3.4597   38.5080 C   0  0  0  0  0  0  0  0  0  0  0  0
    0.3122   -3.4774   39.6615 F   0  0  0  0  0  0  0  0  0  0  0  0
    0.5050   -4.1944   37.4381 C   0  0  0  0  0  0  0  0  0  0  0  0
    1.2096   -4.2101   36.2331 C   0  0  0  0  0  0  0  0  0  0  0  0
    0.7395   -4.9666   35.1689 N   0  0  0  0  0  0  0  0  0  0  0  0
   -0.3956   -5.9997   35.1028 C   0  0  0  0  0  0  0  0  0  0  0  0
   -1.1689   -6.3261   35.9121 O   0  0  0  0  0  0  0  0  0  0  0  0
   -0.5504   -6.5788   33.7387 C   0  0  0  0  0  0  0  0  0  0  0  0
   -0.1201   -5.9710   32.5573 C   0  0  0  0  0  0  0  0  0  0  0  0
   -0.4840   -6.5499   31.3545 C   0  0  0  0  0  0  0  0  0  0  0  0
   -0.1170   -5.9378   30.2203 F   0  0  0  0  0  0  0  0  0  0  0  0
   -1.2731   -7.6283   31.2467 N   0  0  0  0  0  0  0  0  0  0  0  0
   -1.6394   -8.1765   32.4140 C   0  0  0  0  0  0  0  0  0  0  0  0
   -2.7156   -9.4552   32.2591 Cl  0  0  0  0  0  0  0  0  0  0  0  0
   -1.3050   -7.7368   33.6660 C   0  0  0  0  0  0  0  0  0  0  0  0
  1  2  3  0
  2  3  1  0
  3  4  2  0
  4  5  1  0
  5  6  1  0
  6  7  3  0
  5  8  2  0
  8  9  1  0
  8 10  1  0
 10 11  2  0
 11 12  1  0
 12 13  1  0
 13 14  2  0
 13 15  1  0
 15 16  2  0
 16 17  1  0
 17 18  1  0
 17 19  2  0
 19 20  1  0
 20 21  1  0
 20 22  2  0
 11  3  1  0
 22 15  1  0
M  END
>  <ref_mols>  (565) 
7gov-a

>  <gnina_score>  (565) 
4.989

>  <smina_score_min>  (565) 
-5.292

>  <ref_pdb>  (565) 
7gov-a

>  <inspiration_score>  (565) 
None

>  <inchikey>  (565) 
ZBYRUOHKTFSNRH-UHFFFAOYSA-N

>  <tags>  (565) 
BulkDock Fragalysis export,openbind_d68ev3c_c2_elabs_scored,openbind_d68ev3c_c2_elabs_scored_4.5plus,openbind_d68ev3c_c2_elabs,openbind_d68ev3c_c2_elabs_scored_5plus,syndirella_product,openbind_d68ev3c_c2_elabs_scored_top80percent,syndirella_placed

>  <smiles>  (565) 
C#Cc1cc(C#N)c(F)cc1NC(=O)c1cc(F)nc(Cl)c1

>  <subsites>  (565) 
None

>  <rmsd(smina/fragmenstein)>  (565) 
1.364

>  <alias>  (565) 
None

>  <energy_score>  (565) 
-12.730079

>  <HIPPO Pose ID>  (565) 
66244

>  <distance_score>  (565) 
0.899795

>  <HIPPO Compound ID>  (565) 
104193

>  <gnina_score_min>  (565) 
5.067

>  <name>  (565) 
P66244

>  <exports>  (565) 
['/opt/xchem-fragalysis-2/maxwin/BulkDock/OUTPUTS/openbind_d68ev3c_c2_elabs_1LOTQJ3.sdf', '/opt/xchem-fragalysis-2/maxwin/BulkDock/OUTPUTS/openbind_d68ev3c_c2_elabs_1LSYEHW.sdf', '/opt/xchem-fragalysis-2/maxwin/BulkDock/OUTPUTS/openbind_d68ev3c_c2_elabs_1LSYI5W.sdf']

$$$$
P66245
     RDKit          3D

 22 23  0  0  0  0  0  0  0  0999 V2000
    4.3290   -3.4215   34.7200 C   0  0  0  0  0  0  0  0  0  0  0  0
    2.8733   -3.8097   34.7241 C   0  0  0  0  0  0  0  0  0  0  0  0
    2.3044   -4.1526   33.6862 O   0  0  0  0  0  0  0  0  0  0  0  0
    2.1113   -3.7574   36.0129 C   0  0  0  0  0  0  0  0  0  0  0  0
    2.5518   -2.9322   37.0571 C   0  0  0  0  0  0  0  0  0  0  0  0
    1.8533   -2.9111   38.2652 C   0  0  0  0  0  0  0  0  0  0  0  0
    2.4793   -1.8188   39.6774 Br  0  0  0  0  0  0  0  0  0  0  0  0
    0.7109   -3.6898   38.4277 C   0  0  0  0  0  0  0  0  0  0  0  0
    0.0300   -3.6727   39.5827 F   0  0  0  0  0  0  0  0  0  0  0  0
    0.2498   -4.4974   37.3943 C   0  0  0  0  0  0  0  0  0  0  0  0
    0.9488   -4.5405   36.1865 C   0  0  0  0  0  0  0  0  0  0  0  0
    0.4927   -5.3294   35.1345 N   0  0  0  0  0  0  0  0  0  0  0  0
   -0.6669   -6.3469   35.0729 C   0  0  0  0  0  0  0  0  0  0  0  0
   -1.4709   -6.6277   35.8723 O   0  0  0  0  0  0  0  0  0  0  0  0
   -0.8151   -6.9873   33.7264 C   0  0  0  0  0  0  0  0  0  0  0  0
   -1.5849   -8.1496   33.6644 C   0  0  0  0  0  0  0  0  0  0  0  0
   -1.9028   -8.6446   32.4207 C   0  0  0  0  0  0  0  0  0  0  0  0
   -2.7106   -9.7039   32.3406 F   0  0  0  0  0  0  0  0  0  0  0  0
   -1.5050   -8.1098   31.2543 N   0  0  0  0  0  0  0  0  0  0  0  0
   -0.7137   -7.0273   31.3530 C   0  0  0  0  0  0  0  0  0  0  0  0
   -0.2596   -6.3415   29.8513 Cl  0  0  0  0  0  0  0  0  0  0  0  0
   -0.3604   -6.4137   32.5386 C   0  0  0  0  0  0  0  0  0  0  0  0
  1  2  1  0
  2  3  2  0
  2  4  1  0
  4  5  2  0
  5  6  1  0
  6  7  1  0
  6  8  2  0
  8  9  1  0
  8 10  1  0
 10 11  2  0
 11 12  1  0
 12 13  1  0
 13 14  2  0
 13 15  1  0
 15 16  2  0
 16 17  1  0
 17 18  1  0
 17 19  2  0
 19 20  1  0
 20 21  1  0
 20 22  2  0
 11  4  1  0
 22 15  1  0
M  END
>  <ref_mols>  (566) 
7gov-a

>  <gnina_score>  (566) 
5.215

>  <smina_score_min>  (566) 
-6.046

>  <ref_pdb>  (566) 
7gov-a

>  <inspiration_score>  (566) 
None

>  <inchikey>  (566) 
QZCNHZZJGMKIIM-UHFFFAOYSA-N

>  <tags>  (566) 
BulkDock Fragalysis export,openbind_d68ev3c_c2_elabs_scored,openbind_d68ev3c_c2_elabs_scored_4.5plus,openbind_d68ev3c_c2_elabs,openbind_d68ev3c_c2_elabs_scored_5plus,syndirella_product,openbind_d68ev3c_c2_elabs_scored_top80percent,syndirella_placed

>  <smiles>  (566) 
CC(=O)c1cc(Br)c(F)cc1NC(=O)c1cc(F)nc(Cl)c1

>  <subsites>  (566) 
None

>  <rmsd(smina/fragmenstein)>  (566) 
1.062

>  <alias>  (566) 
None

>  <energy_score>  (566) 
-2.954758

>  <HIPPO Pose ID>  (566) 
66245

>  <distance_score>  (566) 
0.753608

>  <HIPPO Compound ID>  (566) 
104195

>  <gnina_score_min>  (566) 
5.102

>  <name>  (566) 
P66245

>  <exports>  (566) 
['/opt/xchem-fragalysis-2/maxwin/BulkDock/OUTPUTS/openbind_d68ev3c_c2_elabs_1LOTQJ3.sdf', '/opt/xchem-fragalysis-2/maxwin/BulkDock/OUTPUTS/openbind_d68ev3c_c2_elabs_1LSYEHW.sdf', '/opt/xchem-fragalysis-2/maxwin/BulkDock/OUTPUTS/openbind_d68ev3c_c2_elabs_1LSYI5W.sdf']

$$$$
P66247
     RDKit          3D

 22 23  0  0  0  0  0  0  0  0999 V2000
    3.3551   -3.7460   33.6194 C   0  0  0  0  0  0  0  0  0  0  0  0
    2.7734   -3.7474   34.6701 C   0  0  0  0  0  0  0  0  0  0  0  0
    2.0797   -3.7493   35.9295 C   0  0  0  0  0  0  0  0  0  0  0  0
    2.5601   -2.9083   36.9417 C   0  0  0  0  0  0  0  0  0  0  0  0
    1.9304   -2.8842   38.1839 C   0  0  0  0  0  0  0  0  0  0  0  0
    2.5438   -1.8559   39.4219 Cl  0  0  0  0  0  0  0  0  0  0  0  0
    0.8195   -3.6863   38.4137 C   0  0  0  0  0  0  0  0  0  0  0  0
    0.1993   -3.6650   39.6041 F   0  0  0  0  0  0  0  0  0  0  0  0
    0.3346   -4.5213   37.4113 C   0  0  0  0  0  0  0  0  0  0  0  0
   -0.7299   -5.2779   37.7037 F   0  0  0  0  0  0  0  0  0  0  0  0
    0.9535   -4.5702   36.1560 C   0  0  0  0  0  0  0  0  0  0  0  0
    0.4934   -5.3638   35.0937 N   0  0  0  0  0  0  0  0  0  0  0  0
   -0.6778   -6.3704   35.0263 C   0  0  0  0  0  0  0  0  0  0  0  0
   -1.4905   -6.6402   35.8200 O   0  0  0  0  0  0  0  0  0  0  0  0
   -0.8223   -7.0114   33.6841 C   0  0  0  0  0  0  0  0  0  0  0  0
   -0.4038   -6.4137   32.4953 C   0  0  0  0  0  0  0  0  0  0  0  0
   -0.7560   -7.0207   31.3064 C   0  0  0  0  0  0  0  0  0  0  0  0
   -0.4129   -6.4163   30.1607 F   0  0  0  0  0  0  0  0  0  0  0  0
   -1.5137   -8.1258   31.2155 N   0  0  0  0  0  0  0  0  0  0  0  0
   -1.8833   -8.6809   32.3826 C   0  0  0  0  0  0  0  0  0  0  0  0
   -2.6593   -9.7627   32.3011 F   0  0  0  0  0  0  0  0  0  0  0  0
   -1.5638   -8.1900   33.6261 C   0  0  0  0  0  0  0  0  0  0  0  0
  1  2  3  0
  2  3  1  0
  3  4  2  0
  4  5  1  0
  5  6  1  0
  5  7  2  0
  7  8  1  0
  7  9  1  0
  9 10  1  0
  9 11  2  0
 11 12  1  0
 12 13  1  0
 13 14  2  0
 13 15  1  0
 15 16  2  0
 16 17  1  0
 17 18  1  0
 17 19  2  0
 19 20  1  0
 20 21  1  0
 20 22  2  0
 11  3  1  0
 22 15  1  0
M  END
>  <ref_mols>  (567) 
7gov-a

>  <gnina_score>  (567) 
5.267

>  <smina_score_min>  (567) 
-5.923

>  <ref_pdb>  (567) 
7gov-a

>  <inspiration_score>  (567) 
None

>  <inchikey>  (567) 
ZRNIIUWGLLDEQA-UHFFFAOYSA-N

>  <tags>  (567) 
BulkDock Fragalysis export,openbind_d68ev3c_c2_elabs_scored,openbind_d68ev3c_c2_elabs_scored_4.5plus,openbind_d68ev3c_c2_elabs,openbind_d68ev3c_c2_elabs_scored_5plus,syndirella_product,openbind_d68ev3c_c2_elabs_scored_top80percent,syndirella_placed

>  <smiles>  (567) 
C#Cc1cc(Cl)c(F)c(F)c1NC(=O)c1cc(F)nc(F)c1

>  <subsites>  (567) 
None

>  <rmsd(smina/fragmenstein)>  (567) 
0.574

>  <alias>  (567) 
None

>  <energy_score>  (567) 
-7.462518

>  <HIPPO Pose ID>  (567) 
66247

>  <distance_score>  (567) 
0.756133

>  <HIPPO Compound ID>  (567) 
104201

>  <gnina_score_min>  (567) 
5.174

>  <name>  (567) 
P66247

>  <exports>  (567) 
['/opt/xchem-fragalysis-2/maxwin/BulkDock/OUTPUTS/openbind_d68ev3c_c2_elabs_1LOTQJ3.sdf', '/opt/xchem-fragalysis-2/maxwin/BulkDock/OUTPUTS/openbind_d68ev3c_c2_elabs_1LSYEHW.sdf', '/opt/xchem-fragalysis-2/maxwin/BulkDock/OUTPUTS/openbind_d68ev3c_c2_elabs_1LSYI5W.sdf']

$$$$
P66249
     RDKit          3D

 22 23  0  0  0  0  0  0  0  0999 V2000
    4.5753   -2.8082   34.7865 C   0  0  0  0  0  0  0  0  0  0  0  0
    3.1253   -3.2170   34.7869 C   0  0  0  0  0  0  0  0  0  0  0  0
    2.5430   -3.5060   33.7405 O   0  0  0  0  0  0  0  0  0  0  0  0
    2.3935   -3.2452   36.0903 C   0  0  0  0  0  0  0  0  0  0  0  0
    2.7964   -2.4441   37.1646 C   0  0  0  0  0  0  0  0  0  0  0  0
    2.1265   -2.5371   38.3895 C   0  0  0  0  0  0  0  0  0  0  0  0
    2.6913   -1.4529   39.8339 Br  0  0  0  0  0  0  0  0  0  0  0  0
    1.0577   -3.4157   38.5447 C   0  0  0  0  0  0  0  0  0  0  0  0
    0.3908   -3.5010   39.7047 F   0  0  0  0  0  0  0  0  0  0  0  0
    0.6546   -4.2174   37.4904 C   0  0  0  0  0  0  0  0  0  0  0  0
    1.3220   -4.1307   36.2669 C   0  0  0  0  0  0  0  0  0  0  0  0
    0.9177   -4.9381   35.2219 N   0  0  0  0  0  0  0  0  0  0  0  0
    0.1195   -6.2465   35.2248 C   0  0  0  0  0  0  0  0  0  0  0  0
   -0.2616   -6.8981   36.1142 O   0  0  0  0  0  0  0  0  0  0  0  0
   -0.2889   -6.6924   33.8583 C   0  0  0  0  0  0  0  0  0  0  0  0
    0.3229   -6.2896   32.6648 C   0  0  0  0  0  0  0  0  0  0  0  0
   -0.1714   -6.7675   31.4590 C   0  0  0  0  0  0  0  0  0  0  0  0
   -1.2146   -7.6062   31.3619 N   0  0  0  0  0  0  0  0  0  0  0  0
   -1.7568   -7.9977   32.5326 C   0  0  0  0  0  0  0  0  0  0  0  0
   -3.1613   -9.2041   32.4229 Br  0  0  0  0  0  0  0  0  0  0  0  0
   -1.3599   -7.5776   33.7876 C   0  0  0  0  0  0  0  0  0  0  0  0
   -2.0503   -8.0197   34.8905 O   0  0  0  0  0  0  0  0  0  0  0  0
  1  2  1  0
  2  3  2  0
  2  4  1  0
  4  5  2  0
  5  6  1  0
  6  7  1  0
  6  8  2  0
  8  9  1  0
  8 10  1  0
 10 11  2  0
 11 12  1  0
 12 13  1  0
 13 14  2  0
 13 15  1  0
 15 16  2  0
 16 17  1  0
 17 18  2  0
 18 19  1  0
 19 20  1  0
 19 21  2  0
 21 22  1  0
 11  4  1  0
 21 15  1  0
M  END
>  <ref_mols>  (568) 
7gov-a

>  <gnina_score>  (568) 
4.995

>  <smina_score_min>  (568) 
-5.582

>  <ref_pdb>  (568) 
7gov-a

>  <inspiration_score>  (568) 
None

>  <inchikey>  (568) 
HJELIOZCWWKJQS-UHFFFAOYSA-N

>  <tags>  (568) 
BulkDock Fragalysis export,openbind_d68ev3c_c2_elabs_scored,openbind_d68ev3c_c2_elabs_scored_4.5plus,openbind_d68ev3c_c2_elabs,openbind_d68ev3c_c2_elabs_scored_5plus,syndirella_product,openbind_d68ev3c_c2_elabs_scored_top80percent,syndirella_placed

>  <smiles>  (568) 
CC(=O)c1cc(Br)c(F)cc1NC(=O)c1ccnc(Br)c1O

>  <subsites>  (568) 
None

>  <rmsd(smina/fragmenstein)>  (568) 
1.447

>  <alias>  (568) 
None

>  <energy_score>  (568) 
-39.976329

>  <HIPPO Pose ID>  (568) 
66249

>  <distance_score>  (568) 
0.830735

>  <HIPPO Compound ID>  (568) 
104207

>  <gnina_score_min>  (568) 
5.005

>  <name>  (568) 
P66249

>  <exports>  (568) 
['/opt/xchem-fragalysis-2/maxwin/BulkDock/OUTPUTS/openbind_d68ev3c_c2_elabs_1LOTQJ3.sdf', '/opt/xchem-fragalysis-2/maxwin/BulkDock/OUTPUTS/openbind_d68ev3c_c2_elabs_1LSYEHW.sdf', '/opt/xchem-fragalysis-2/maxwin/BulkDock/OUTPUTS/openbind_d68ev3c_c2_elabs_1LSYI5W.sdf']

$$$$
P66251
     RDKit          3D

 22 23  0  0  0  0  0  0  0  0999 V2000
    3.5300   -2.9243   33.6573 C   0  0  0  0  0  0  0  0  0  0  0  0
    2.9693   -3.0516   34.7117 C   0  0  0  0  0  0  0  0  0  0  0  0
    2.3046   -3.1947   35.9760 C   0  0  0  0  0  0  0  0  0  0  0  0
    2.7208   -2.4194   37.0621 C   0  0  0  0  0  0  0  0  0  0  0  0
    2.1128   -2.5787   38.3116 C   0  0  0  0  0  0  0  0  0  0  0  0
    2.6403   -1.6044   39.6313 Cl  0  0  0  0  0  0  0  0  0  0  0  0
    1.0862   -3.5013   38.4813 C   0  0  0  0  0  0  0  0  0  0  0  0
    0.4558   -3.6247   39.6597 F   0  0  0  0  0  0  0  0  0  0  0  0
    0.6870   -4.2875   37.4133 C   0  0  0  0  0  0  0  0  0  0  0  0
   -0.3398   -5.1340   37.5890 F   0  0  0  0  0  0  0  0  0  0  0  0
    1.2950   -4.1441   36.1592 C   0  0  0  0  0  0  0  0  0  0  0  0
    0.8905   -4.9314   35.0906 N   0  0  0  0  0  0  0  0  0  0  0  0
    0.3215   -6.3539   35.0607 C   0  0  0  0  0  0  0  0  0  0  0  0
    0.1709   -7.1262   35.9209 O   0  0  0  0  0  0  0  0  0  0  0  0
   -0.1990   -6.7420   33.7297 C   0  0  0  0  0  0  0  0  0  0  0  0
    0.3540   -6.3218   32.5170 C   0  0  0  0  0  0  0  0  0  0  0  0
   -0.2154   -6.7775   31.3383 C   0  0  0  0  0  0  0  0  0  0  0  0
   -1.2772   -7.5999   31.2935 N   0  0  0  0  0  0  0  0  0  0  0  0
   -1.7643   -7.9979   32.4890 C   0  0  0  0  0  0  0  0  0  0  0  0
   -3.1858   -9.1900   32.4453 Br  0  0  0  0  0  0  0  0  0  0  0  0
   -1.2899   -7.6007   33.7219 C   0  0  0  0  0  0  0  0  0  0  0  0
   -1.9137   -8.0331   34.8657 O   0  0  0  0  0  0  0  0  0  0  0  0
  1  2  3  0
  2  3  1  0
  3  4  2  0
  4  5  1  0
  5  6  1  0
  5  7  2  0
  7  8  1  0
  7  9  1  0
  9 10  1  0
  9 11  2  0
 11 12  1  0
 12 13  1  0
 13 14  2  0
 13 15  1  0
 15 16  2  0
 16 17  1  0
 17 18  2  0
 18 19  1  0
 19 20  1  0
 19 21  2  0
 21 22  1  0
 11  3  1  0
 21 15  1  0
M  END
>  <ref_mols>  (569) 
7gov-a

>  <gnina_score>  (569) 
5.187

>  <smina_score_min>  (569) 
-5.416

>  <ref_pdb>  (569) 
7gov-a

>  <inspiration_score>  (569) 
None

>  <inchikey>  (569) 
MCBFNHNTJBWWHA-UHFFFAOYSA-N

>  <tags>  (569) 
BulkDock Fragalysis export,openbind_d68ev3c_c2_elabs_scored,openbind_d68ev3c_c2_elabs_scored_4.5plus,openbind_d68ev3c_c2_elabs,openbind_d68ev3c_c2_elabs_scored_5plus,syndirella_product,openbind_d68ev3c_c2_elabs_scored_top80percent,syndirella_placed

>  <smiles>  (569) 
C#Cc1cc(Cl)c(F)c(F)c1NC(=O)c1ccnc(Br)c1O

>  <subsites>  (569) 
None

>  <rmsd(smina/fragmenstein)>  (569) 
0.676

>  <alias>  (569) 
None

>  <energy_score>  (569) 
-22.657735

>  <HIPPO Pose ID>  (569) 
66251

>  <distance_score>  (569) 
0.753635

>  <HIPPO Compound ID>  (569) 
104210

>  <gnina_score_min>  (569) 
5.159

>  <name>  (569) 
P66251

>  <exports>  (569) 
['/opt/xchem-fragalysis-2/maxwin/BulkDock/OUTPUTS/openbind_d68ev3c_c2_elabs_1LOTQJ3.sdf', '/opt/xchem-fragalysis-2/maxwin/BulkDock/OUTPUTS/openbind_d68ev3c_c2_elabs_1LSYEHW.sdf', '/opt/xchem-fragalysis-2/maxwin/BulkDock/OUTPUTS/openbind_d68ev3c_c2_elabs_1LSYI5W.sdf']

$$$$
P66255
     RDKit          3D

 22 23  0  0  0  0  0  0  0  0999 V2000
    2.8714   -3.9170   34.6146 C   0  0  0  0  0  0  0  0  0  0  0  0
    2.1011   -3.7825   35.9025 C   0  0  0  0  0  0  0  0  0  0  0  0
    0.9530   -4.5645   36.1410 C   0  0  0  0  0  0  0  0  0  0  0  0
    0.4788   -5.4419   35.1642 N   0  0  0  0  0  0  0  0  0  0  0  0
   -0.5944   -6.5481   35.2461 C   0  0  0  0  0  0  0  0  0  0  0  0
   -1.1948   -6.9509   36.1596 O   0  0  0  0  0  0  0  0  0  0  0  0
   -0.8986   -7.1794   33.8939 C   0  0  0  0  0  0  0  0  0  0  0  0
   -0.1861   -6.8703   32.7232 C   0  0  0  0  0  0  0  0  0  0  0  0
    0.9382   -6.0893   32.7281 O   0  0  0  0  0  0  0  0  0  0  0  0
   -0.5779   -7.4037   31.4987 C   0  0  0  0  0  0  0  0  0  0  0  0
   -1.5958   -8.2734   31.3541 N   0  0  0  0  0  0  0  0  0  0  0  0
   -2.2243   -8.6277   32.4959 C   0  0  0  0  0  0  0  0  0  0  0  0
   -1.9375   -8.1191   33.7605 C   0  0  0  0  0  0  0  0  0  0  0  0
   -2.9865   -8.6849   35.0111 Cl  0  0  0  0  0  0  0  0  0  0  0  0
    0.2834   -4.4892   37.3692 C   0  0  0  0  0  0  0  0  0  0  0  0
    0.7365   -3.6332   38.3633 C   0  0  0  0  0  0  0  0  0  0  0  0
    0.0848   -3.5741   39.5316 F   0  0  0  0  0  0  0  0  0  0  0  0
    1.8448   -2.8326   38.1631 C   0  0  0  0  0  0  0  0  0  0  0  0
    2.5128   -2.9097   36.9357 C   0  0  0  0  0  0  0  0  0  0  0  0
    3.6634   -2.0315   36.7696 N   0  0  0  0  0  0  0  0  0  0  0  0
    4.5179   -2.0302   37.6680 O   0  0  0  0  0  0  0  0  0  0  0  0
    3.6883   -1.3115   35.7608 O   0  0  0  0  0  0  0  0  0  0  0  0
  1  2  1  0
  2  3  2  0
  3  4  1  0
  4  5  1  0
  5  6  2  0
  5  7  1  0
  7  8  2  0
  8  9  1  0
  8 10  1  0
 10 11  2  0
 11 12  1  0
 12 13  2  0
 13 14  1  0
  3 15  1  0
 15 16  2  0
 16 17  1  0
 16 18  1  0
 18 19  2  0
 19 20  1  0
 20 21  2  0
 20 22  1  0
 19  2  1  0
 13  7  1  0
M  CHG  2  20   1  22  -1
M  END
>  <ref_mols>  (570) 
7gov-a

>  <gnina_score>  (570) 
5.043

>  <smina_score_min>  (570) 
-6.158

>  <ref_pdb>  (570) 
7gov-a

>  <inspiration_score>  (570) 
None

>  <inchikey>  (570) 
DEXJAYNUMKHBPA-UHFFFAOYSA-N

>  <tags>  (570) 
BulkDock Fragalysis export,openbind_d68ev3c_c2_elabs_scored,openbind_d68ev3c_c2_elabs_scored_4.5plus,openbind_d68ev3c_c2_elabs,openbind_d68ev3c_c2_elabs_scored_5plus,syndirella_product,openbind_d68ev3c_c2_elabs_scored_top80percent,syndirella_placed

>  <smiles>  (570) 
Cc1c(NC(=O)c2c(O)cncc2Cl)cc(F)cc1[N+](=O)[O-]

>  <subsites>  (570) 
None

>  <rmsd(smina/fragmenstein)>  (570) 
1.147

>  <alias>  (570) 
None

>  <energy_score>  (570) 
-40.190595

>  <HIPPO Pose ID>  (570) 
66255

>  <distance_score>  (570) 
0.711795

>  <HIPPO Compound ID>  (570) 
104219

>  <gnina_score_min>  (570) 
5.087

>  <name>  (570) 
P66255

>  <exports>  (570) 
['/opt/xchem-fragalysis-2/maxwin/BulkDock/OUTPUTS/openbind_d68ev3c_c2_elabs_1LOTQJ3.sdf', '/opt/xchem-fragalysis-2/maxwin/BulkDock/OUTPUTS/openbind_d68ev3c_c2_elabs_1LSYEHW.sdf', '/opt/xchem-fragalysis-2/maxwin/BulkDock/OUTPUTS/openbind_d68ev3c_c2_elabs_1LSYI5W.sdf']

$$$$
P66257
     RDKit          3D

 22 23  0  0  0  0  0  0  0  0999 V2000
    2.6410   -3.6637   34.4519 C   0  0  0  0  0  0  0  0  0  0  0  0
    1.9630   -3.6649   35.7941 C   0  0  0  0  0  0  0  0  0  0  0  0
    2.4830   -2.8622   36.8222 C   0  0  0  0  0  0  0  0  0  0  0  0
    1.9152   -2.9147   38.1020 C   0  0  0  0  0  0  0  0  0  0  0  0
    2.4934   -2.1213   39.1655 N   0  0  0  0  0  0  0  0  0  0  0  0
    2.8553   -0.9707   38.8746 O   0  0  0  0  0  0  0  0  0  0  0  0
    2.6242   -2.6407   40.2825 O   0  0  0  0  0  0  0  0  0  0  0  0
    0.8192   -3.7210   38.3654 C   0  0  0  0  0  0  0  0  0  0  0  0
    0.2250   -3.7344   39.5666 F   0  0  0  0  0  0  0  0  0  0  0  0
    0.3010   -4.5251   37.3573 C   0  0  0  0  0  0  0  0  0  0  0  0
    0.8775   -4.5136   36.0812 C   0  0  0  0  0  0  0  0  0  0  0  0
    0.3915   -5.3759   35.1042 N   0  0  0  0  0  0  0  0  0  0  0  0
   -0.5083   -6.6226   35.2259 C   0  0  0  0  0  0  0  0  0  0  0  0
   -0.9200   -7.1669   36.1701 O   0  0  0  0  0  0  0  0  0  0  0  0
   -0.8725   -7.2078   33.8751 C   0  0  0  0  0  0  0  0  0  0  0  0
   -0.1795   -6.8879   32.6963 C   0  0  0  0  0  0  0  0  0  0  0  0
    0.9448   -6.1067   32.6933 O   0  0  0  0  0  0  0  0  0  0  0  0
   -0.5956   -7.4081   31.4761 C   0  0  0  0  0  0  0  0  0  0  0  0
   -1.6231   -8.2697   31.3454 N   0  0  0  0  0  0  0  0  0  0  0  0
   -2.2409   -8.6228   32.4947 C   0  0  0  0  0  0  0  0  0  0  0  0
   -1.9286   -8.1258   33.7566 C   0  0  0  0  0  0  0  0  0  0  0  0
   -2.9761   -8.6504   35.0243 Cl  0  0  0  0  0  0  0  0  0  0  0  0
  1  2  1  0
  2  3  2  0
  3  4  1  0
  4  5  1  0
  5  6  2  0
  5  7  1  0
  4  8  2  0
  8  9  1  0
  8 10  1  0
 10 11  2  0
 11 12  1  0
 12 13  1  0
 13 14  2  0
 13 15  1  0
 15 16  2  0
 16 17  1  0
 16 18  1  0
 18 19  2  0
 19 20  1  0
 20 21  2  0
 21 22  1  0
 11  2  1  0
 21 15  1  0
M  CHG  2   5   1   7  -1
M  END
>  <ref_mols>  (571) 
7gov-a

>  <gnina_score>  (571) 
4.968

>  <smina_score_min>  (571) 
-6.045

>  <ref_pdb>  (571) 
7gov-a

>  <inspiration_score>  (571) 
None

>  <inchikey>  (571) 
PQRUPDZRLIJLBP-UHFFFAOYSA-N

>  <tags>  (571) 
BulkDock Fragalysis export,openbind_d68ev3c_c2_elabs_scored,openbind_d68ev3c_c2_elabs_scored_4.5plus,openbind_d68ev3c_c2_elabs,openbind_d68ev3c_c2_elabs_scored_5plus,syndirella_product,openbind_d68ev3c_c2_elabs_scored_top80percent,syndirella_placed

>  <smiles>  (571) 
Cc1cc([N+](=O)[O-])c(F)cc1NC(=O)c1c(O)cncc1Cl

>  <subsites>  (571) 
None

>  <rmsd(smina/fragmenstein)>  (571) 
1.204

>  <alias>  (571) 
None

>  <energy_score>  (571) 
-50.510451

>  <HIPPO Pose ID>  (571) 
66257

>  <distance_score>  (571) 
0.652221

>  <HIPPO Compound ID>  (571) 
104222

>  <gnina_score_min>  (571) 
5.053

>  <name>  (571) 
P66257

>  <exports>  (571) 
['/opt/xchem-fragalysis-2/maxwin/BulkDock/OUTPUTS/openbind_d68ev3c_c2_elabs_1LOTQJ3.sdf', '/opt/xchem-fragalysis-2/maxwin/BulkDock/OUTPUTS/openbind_d68ev3c_c2_elabs_1LSYEHW.sdf', '/opt/xchem-fragalysis-2/maxwin/BulkDock/OUTPUTS/openbind_d68ev3c_c2_elabs_1LSYI5W.sdf']

$$$$
P66261
     RDKit          3D

 22 23  0  0  0  0  0  0  0  0999 V2000
    3.1476   -3.5734   33.4241 C   0  0  0  0  0  0  0  0  0  0  0  0
    2.6103   -3.6114   34.4974 C   0  0  0  0  0  0  0  0  0  0  0  0
    1.9711   -3.6423   35.7820 C   0  0  0  0  0  0  0  0  0  0  0  0
    2.4830   -2.8260   36.7988 C   0  0  0  0  0  0  0  0  0  0  0  0
    1.9230   -2.8614   38.0811 C   0  0  0  0  0  0  0  0  0  0  0  0
    2.4754   -2.0629   39.1296 C   0  0  0  0  0  0  0  0  0  0  0  0
    2.9524   -1.4029   39.9576 N   0  0  0  0  0  0  0  0  0  0  0  0
    0.8377   -3.6945   38.3312 C   0  0  0  0  0  0  0  0  0  0  0  0
    0.2673   -3.7241   39.5447 F   0  0  0  0  0  0  0  0  0  0  0  0
    0.3253   -4.5169   37.3337 C   0  0  0  0  0  0  0  0  0  0  0  0
    0.8975   -4.5052   36.0586 C   0  0  0  0  0  0  0  0  0  0  0  0
    0.4122   -5.3717   35.0817 N   0  0  0  0  0  0  0  0  0  0  0  0
   -0.4870   -6.6184   35.2058 C   0  0  0  0  0  0  0  0  0  0  0  0
   -0.8996   -7.1604   36.1510 O   0  0  0  0  0  0  0  0  0  0  0  0
   -0.8586   -7.2059   33.8584 C   0  0  0  0  0  0  0  0  0  0  0  0
   -0.1737   -6.8880   32.6749 C   0  0  0  0  0  0  0  0  0  0  0  0
    0.9470   -6.1040   32.6605 O   0  0  0  0  0  0  0  0  0  0  0  0
   -0.5981   -7.4093   31.4583 C   0  0  0  0  0  0  0  0  0  0  0  0
   -1.6263   -8.2710   31.3351 N   0  0  0  0  0  0  0  0  0  0  0  0
   -2.2375   -8.6216   32.4885 C   0  0  0  0  0  0  0  0  0  0  0  0
   -1.9171   -8.1227   33.7474 C   0  0  0  0  0  0  0  0  0  0  0  0
   -2.9594   -8.6438   35.0210 Cl  0  0  0  0  0  0  0  0  0  0  0  0
  1  2  3  0
  2  3  1  0
  3  4  2  0
  4  5  1  0
  5  6  1  0
  6  7  3  0
  5  8  2  0
  8  9  1  0
  8 10  1  0
 10 11  2  0
 11 12  1  0
 12 13  1  0
 13 14  2  0
 13 15  1  0
 15 16  2  0
 16 17  1  0
 16 18  1  0
 18 19  2  0
 19 20  1  0
 20 21  2  0
 21 22  1  0
 11  3  1  0
 21 15  1  0
M  END
>  <ref_mols>  (572) 
7gov-a

>  <gnina_score>  (572) 
5.106

>  <smina_score_min>  (572) 
-5.834

>  <ref_pdb>  (572) 
7gov-a

>  <inspiration_score>  (572) 
None

>  <inchikey>  (572) 
XYOBKJAGIIQIBA-UHFFFAOYSA-N

>  <tags>  (572) 
BulkDock Fragalysis export,openbind_d68ev3c_c2_elabs_scored,openbind_d68ev3c_c2_elabs_scored_4.5plus,openbind_d68ev3c_c2_elabs,openbind_d68ev3c_c2_elabs_scored_5plus,syndirella_product,openbind_d68ev3c_c2_elabs_scored_top80percent,syndirella_placed

>  <smiles>  (572) 
C#Cc1cc(C#N)c(F)cc1NC(=O)c1c(O)cncc1Cl

>  <subsites>  (572) 
None

>  <rmsd(smina/fragmenstein)>  (572) 
1.225

>  <alias>  (572) 
None

>  <energy_score>  (572) 
-12.377574

>  <HIPPO Pose ID>  (572) 
66261

>  <distance_score>  (572) 
0.648501

>  <HIPPO Compound ID>  (572) 
104227

>  <gnina_score_min>  (572) 
5.099

>  <name>  (572) 
P66261

>  <exports>  (572) 
['/opt/xchem-fragalysis-2/maxwin/BulkDock/OUTPUTS/openbind_d68ev3c_c2_elabs_1LOTQJ3.sdf', '/opt/xchem-fragalysis-2/maxwin/BulkDock/OUTPUTS/openbind_d68ev3c_c2_elabs_1LSYEHW.sdf', '/opt/xchem-fragalysis-2/maxwin/BulkDock/OUTPUTS/openbind_d68ev3c_c2_elabs_1LSYI5W.sdf']

$$$$
P66262
     RDKit          3D

 22 23  0  0  0  0  0  0  0  0999 V2000
    3.9478   -4.8593   34.8858 C   0  0  0  0  0  0  0  0  0  0  0  0
    2.5565   -4.3036   34.7546 C   0  0  0  0  0  0  0  0  0  0  0  0
    2.0273   -4.1511   33.6529 O   0  0  0  0  0  0  0  0  0  0  0  0
    1.7861   -3.9699   35.9858 C   0  0  0  0  0  0  0  0  0  0  0  0
    2.4040   -3.2615   37.0205 C   0  0  0  0  0  0  0  0  0  0  0  0
    1.6791   -2.9617   38.1728 C   0  0  0  0  0  0  0  0  0  0  0  0
    2.5409   -2.0798   39.6076 Br  0  0  0  0  0  0  0  0  0  0  0  0
    0.3351   -3.3214   38.2679 C   0  0  0  0  0  0  0  0  0  0  0  0
   -0.3504   -3.0942   39.3968 F   0  0  0  0  0  0  0  0  0  0  0  0
   -0.3152   -3.9547   37.2134 C   0  0  0  0  0  0  0  0  0  0  0  0
    0.4161   -4.2970   36.0814 C   0  0  0  0  0  0  0  0  0  0  0  0
   -0.1771   -5.1247   35.1413 N   0  0  0  0  0  0  0  0  0  0  0  0
    0.1917   -6.5441   34.6888 C   0  0  0  0  0  0  0  0  0  0  0  0
    1.0051   -7.2757   35.0866 O   0  0  0  0  0  0  0  0  0  0  0  0
   -0.5678   -6.9634   33.5004 C   0  0  0  0  0  0  0  0  0  0  0  0
   -0.1634   -6.5820   32.2205 C   0  0  0  0  0  0  0  0  0  0  0  0
    0.7742   -5.6423   31.9195 O   0  0  0  0  0  0  0  0  0  0  0  0
   -0.7700   -7.2063   31.1420 C   0  0  0  0  0  0  0  0  0  0  0  0
   -1.7473   -8.1389   31.2528 N   0  0  0  0  0  0  0  0  0  0  0  0
   -2.1262   -8.4637   32.5096 C   0  0  0  0  0  0  0  0  0  0  0  0
   -1.5847   -7.9005   33.6514 C   0  0  0  0  0  0  0  0  0  0  0  0
   -2.2695   -8.3014   35.1677 Cl  0  0  0  0  0  0  0  0  0  0  0  0
  1  2  1  0
  2  3  2  0
  2  4  1  0
  4  5  2  0
  5  6  1  0
  6  7  1  0
  6  8  2  0
  8  9  1  0
  8 10  1  0
 10 11  2  0
 11 12  1  0
 12 13  1  0
 13 14  2  0
 13 15  1  0
 15 16  2  0
 16 17  1  0
 16 18  1  0
 18 19  2  0
 19 20  1  0
 20 21  2  0
 21 22  1  0
 11  4  1  0
 21 15  1  0
M  END
>  <ref_mols>  (573) 
7gov-a

>  <gnina_score>  (573) 
5.057

>  <smina_score_min>  (573) 
-6.26

>  <ref_pdb>  (573) 
7gov-a

>  <inspiration_score>  (573) 
None

>  <inchikey>  (573) 
BAVAYCYXQVEPEM-UHFFFAOYSA-N

>  <tags>  (573) 
BulkDock Fragalysis export,openbind_d68ev3c_c2_elabs_scored,openbind_d68ev3c_c2_elabs_scored_4.5plus,openbind_d68ev3c_c2_elabs,openbind_d68ev3c_c2_elabs_scored_5plus,syndirella_product,openbind_d68ev3c_c2_elabs_scored_top80percent,syndirella_placed

>  <smiles>  (573) 
CC(=O)c1cc(Br)c(F)cc1NC(=O)c1c(O)cncc1Cl

>  <subsites>  (573) 
None

>  <rmsd(smina/fragmenstein)>  (573) 
1.06

>  <alias>  (573) 
None

>  <energy_score>  (573) 
-25.696848

>  <HIPPO Pose ID>  (573) 
66262

>  <distance_score>  (573) 
0.379333

>  <HIPPO Compound ID>  (573) 
104229

>  <gnina_score_min>  (573) 
5.065

>  <name>  (573) 
P66262

>  <exports>  (573) 
['/opt/xchem-fragalysis-2/maxwin/BulkDock/OUTPUTS/openbind_d68ev3c_c2_elabs_1LOTQJ3.sdf', '/opt/xchem-fragalysis-2/maxwin/BulkDock/OUTPUTS/openbind_d68ev3c_c2_elabs_1LSYEHW.sdf', '/opt/xchem-fragalysis-2/maxwin/BulkDock/OUTPUTS/openbind_d68ev3c_c2_elabs_1LSYI5W.sdf']

$$$$
P66264
     RDKit          3D

 22 23  0  0  0  0  0  0  0  0999 V2000
    2.3424   -3.8211   33.6562 C   0  0  0  0  0  0  0  0  0  0  0  0
    2.9398   -3.5972   35.0204 C   0  0  0  0  0  0  0  0  0  0  0  0
    4.1431   -3.3455   35.1184 O   0  0  0  0  0  0  0  0  0  0  0  0
    2.0644   -3.5319   36.2400 C   0  0  0  0  0  0  0  0  0  0  0  0
    2.5767   -2.7968   37.3246 C   0  0  0  0  0  0  0  0  0  0  0  0
    1.8156   -2.5909   38.4772 C   0  0  0  0  0  0  0  0  0  0  0  0
    0.5177   -3.0783   38.5338 C   0  0  0  0  0  0  0  0  0  0  0  0
   -0.1978   -2.9218   39.6540 F   0  0  0  0  0  0  0  0  0  0  0  0
   -0.0243   -3.7639   37.4603 C   0  0  0  0  0  0  0  0  0  0  0  0
   -1.2719   -4.2549   37.5465 F   0  0  0  0  0  0  0  0  0  0  0  0
    0.7576   -4.0401   36.3373 C   0  0  0  0  0  0  0  0  0  0  0  0
    0.2504   -4.9986   35.4785 N   0  0  0  0  0  0  0  0  0  0  0  0
    0.8511   -6.3212   34.9994 C   0  0  0  0  0  0  0  0  0  0  0  0
    1.8986   -6.7833   35.1870 O   0  0  0  0  0  0  0  0  0  0  0  0
   -0.1181   -7.0136   34.1404 C   0  0  0  0  0  0  0  0  0  0  0  0
   -0.0752   -6.8579   32.7574 C   0  0  0  0  0  0  0  0  0  0  0  0
   -1.0354   -7.5131   32.0119 C   0  0  0  0  0  0  0  0  0  0  0  0
   -2.0450   -8.2326   32.5578 N   0  0  0  0  0  0  0  0  0  0  0  0
   -2.0465   -8.3417   33.9145 C   0  0  0  0  0  0  0  0  0  0  0  0
   -3.5750   -8.9986   34.8210 Br  0  0  0  0  0  0  0  0  0  0  0  0
   -1.0763   -7.8061   34.7373 C   0  0  0  0  0  0  0  0  0  0  0  0
   -1.0503   -8.0181   36.0868 O   0  0  0  0  0  0  0  0  0  0  0  0
  1  2  1  0
  2  3  2  0
  2  4  1  0
  4  5  2  0
  5  6  1  0
  6  7  2  0
  7  8  1  0
  7  9  1  0
  9 10  1  0
  9 11  2  0
 11 12  1  0
 12 13  1  0
 13 14  2  0
 13 15  1  0
 15 16  2  0
 16 17  1  0
 17 18  2  0
 18 19  1  0
 19 20  1  0
 19 21  2  0
 21 22  1  0
 11  4  1  0
 21 15  1  0
M  END
>  <ref_mols>  (574) 
7gov-a

>  <gnina_score>  (574) 
4.871

>  <smina_score_min>  (574) 
-5.666

>  <ref_pdb>  (574) 
7gov-a

>  <inspiration_score>  (574) 
None

>  <inchikey>  (574) 
UWOHKWOHSZQFJU-UHFFFAOYSA-N

>  <tags>  (574) 
BulkDock Fragalysis export,openbind_d68ev3c_c2_elabs_scored,openbind_d68ev3c_c2_elabs_scored_4.5plus,openbind_d68ev3c_c2_elabs,openbind_d68ev3c_c2_elabs_scored_5plus,syndirella_product,openbind_d68ev3c_c2_elabs_scored_top80percent,syndirella_placed

>  <smiles>  (574) 
CC(=O)c1ccc(F)c(F)c1NC(=O)c1ccnc(Br)c1O

>  <subsites>  (574) 
None

>  <rmsd(smina/fragmenstein)>  (574) 
2.187

>  <alias>  (574) 
None

>  <energy_score>  (574) 
-14.309955

>  <HIPPO Pose ID>  (574) 
66264

>  <distance_score>  (574) 
0.810196

>  <HIPPO Compound ID>  (574) 
104244

>  <gnina_score_min>  (574) 
5.167

>  <name>  (574) 
P66264

>  <exports>  (574) 
['/opt/xchem-fragalysis-2/maxwin/BulkDock/OUTPUTS/openbind_d68ev3c_c2_elabs_1LOTQJ3.sdf', '/opt/xchem-fragalysis-2/maxwin/BulkDock/OUTPUTS/openbind_d68ev3c_c2_elabs_1LSYEHW.sdf', '/opt/xchem-fragalysis-2/maxwin/BulkDock/OUTPUTS/openbind_d68ev3c_c2_elabs_1LSYI5W.sdf']

$$$$
P66267
     RDKit          3D

 22 23  0  0  0  0  0  0  0  0999 V2000
   -0.1601   -6.3695   29.9062 C   0  0  0  0  0  0  0  0  0  0  0  0
   -0.6651   -6.9438   31.1953 C   0  0  0  0  0  0  0  0  0  0  0  0
   -0.1089   -6.5078   32.3875 C   0  0  0  0  0  0  0  0  0  0  0  0
   -0.6154   -7.0102   33.5845 C   0  0  0  0  0  0  0  0  0  0  0  0
    0.1101   -6.6368   34.8084 C   0  0  0  0  0  0  0  0  0  0  0  0
    0.8422   -7.4164   35.2691 O   0  0  0  0  0  0  0  0  0  0  0  0
   -0.1789   -5.1807   35.2111 N   0  0  0  0  0  0  0  0  0  0  0  0
    0.4164   -4.3779   36.1676 C   0  0  0  0  0  0  0  0  0  0  0  0
   -0.2984   -4.0760   37.3233 C   0  0  0  0  0  0  0  0  0  0  0  0
    0.3455   -3.4204   38.3689 C   0  0  0  0  0  0  0  0  0  0  0  0
   -0.3245   -3.2511   39.5162 F   0  0  0  0  0  0  0  0  0  0  0  0
    1.6669   -3.0100   38.2327 C   0  0  0  0  0  0  0  0  0  0  0  0
    2.3205   -2.3189   39.3278 N   0  0  0  0  0  0  0  0  0  0  0  0
    3.5186   -2.5660   39.5346 O   0  0  0  0  0  0  0  0  0  0  0  0
    1.6554   -1.4900   39.9647 O   0  0  0  0  0  0  0  0  0  0  0  0
    2.3752   -3.2648   37.0557 C   0  0  0  0  0  0  0  0  0  0  0  0
    1.7592   -3.9774   36.0158 C   0  0  0  0  0  0  0  0  0  0  0  0
    2.5711   -4.3293   34.7974 C   0  0  0  0  0  0  0  0  0  0  0  0
   -1.6508   -7.9250   33.5710 C   0  0  0  0  0  0  0  0  0  0  0  0
   -2.5373   -8.5299   35.1026 Br  0  0  0  0  0  0  0  0  0  0  0  0
   -2.1257   -8.3262   32.3386 C   0  0  0  0  0  0  0  0  0  0  0  0
   -1.6804   -7.8428   31.1522 N   0  0  0  0  0  0  0  0  0  0  0  0
  1  2  1  0
  2  3  2  0
  3  4  1  0
  4  5  1  0
  5  6  2  0
  5  7  1  0
  7  8  1  0
  8  9  2  0
  9 10  1  0
 10 11  1  0
 10 12  2  0
 12 13  1  0
 13 14  2  0
 13 15  1  0
 12 16  1  0
 16 17  2  0
 17 18  1  0
  4 19  2  0
 19 20  1  0
 19 21  1  0
 21 22  2  0
 22  2  1  0
 17  8  1  0
M  CHG  2  13   1  15  -1
M  END
>  <ref_mols>  (575) 
7gov-a

>  <gnina_score>  (575) 
5.131

>  <smina_score_min>  (575) 
-5.99

>  <ref_pdb>  (575) 
7gov-a

>  <inspiration_score>  (575) 
None

>  <inchikey>  (575) 
FZVPUDUDCFFHNC-UHFFFAOYSA-N

>  <tags>  (575) 
BulkDock Fragalysis export,openbind_d68ev3c_c2_elabs_scored,openbind_d68ev3c_c2_elabs_scored_4.5plus,openbind_d68ev3c_c2_elabs,openbind_d68ev3c_c2_elabs_scored_5plus,syndirella_product,openbind_d68ev3c_c2_elabs_scored_top80percent,syndirella_placed

>  <smiles>  (575) 
Cc1cc(C(=O)Nc2cc(F)c([N+](=O)[O-])cc2C)c(Br)cn1

>  <subsites>  (575) 
None

>  <rmsd(smina/fragmenstein)>  (575) 
1.052

>  <alias>  (575) 
None

>  <energy_score>  (575) 
-15.390779

>  <HIPPO Pose ID>  (575) 
66267

>  <distance_score>  (575) 
0.417783

>  <HIPPO Compound ID>  (575) 
104247

>  <gnina_score_min>  (575) 
5.064

>  <name>  (575) 
P66267

>  <exports>  (575) 
['/opt/xchem-fragalysis-2/maxwin/BulkDock/OUTPUTS/openbind_d68ev3c_c2_elabs_1LOTQJ3.sdf', '/opt/xchem-fragalysis-2/maxwin/BulkDock/OUTPUTS/openbind_d68ev3c_c2_elabs_1LSYEHW.sdf', '/opt/xchem-fragalysis-2/maxwin/BulkDock/OUTPUTS/openbind_d68ev3c_c2_elabs_1LSYI5W.sdf']

$$$$
P66268
     RDKit          3D

 22 23  0  0  0  0  0  0  0  0999 V2000
    4.4839   -3.6870   34.6470 C   0  0  0  0  0  0  0  0  0  0  0  0
    3.0116   -4.0069   34.6512 C   0  0  0  0  0  0  0  0  0  0  0  0
    2.4426   -4.3869   33.6272 O   0  0  0  0  0  0  0  0  0  0  0  0
    2.2363   -3.8355   35.9181 C   0  0  0  0  0  0  0  0  0  0  0  0
    2.6939   -2.9529   36.9063 C   0  0  0  0  0  0  0  0  0  0  0  0
    1.9767   -2.8112   38.0905 C   0  0  0  0  0  0  0  0  0  0  0  0
    2.4355   -1.9772   39.0346 F   0  0  0  0  0  0  0  0  0  0  0  0
    0.7982   -3.5149   38.2937 C   0  0  0  0  0  0  0  0  0  0  0  0
    0.1175   -3.3775   39.4397 F   0  0  0  0  0  0  0  0  0  0  0  0
    0.3121   -4.3666   37.3112 C   0  0  0  0  0  0  0  0  0  0  0  0
    1.0323   -4.5419   36.1235 C   0  0  0  0  0  0  0  0  0  0  0  0
    0.5481   -5.4105   35.1475 N   0  0  0  0  0  0  0  0  0  0  0  0
   -0.7525   -6.2419   35.1006 C   0  0  0  0  0  0  0  0  0  0  0  0
   -1.5837   -6.3892   35.9040 O   0  0  0  0  0  0  0  0  0  0  0  0
   -0.9633   -6.9128   33.7647 C   0  0  0  0  0  0  0  0  0  0  0  0
   -0.4218   -6.3576   32.5961 C   0  0  0  0  0  0  0  0  0  0  0  0
   -0.6826   -6.9435   31.3601 C   0  0  0  0  0  0  0  0  0  0  0  0
   -0.1057   -6.3149   30.1256 C   0  0  0  0  0  0  0  0  0  0  0  0
   -1.4749   -8.0308   31.2200 N   0  0  0  0  0  0  0  0  0  0  0  0
   -1.9885   -8.5521   32.3565 C   0  0  0  0  0  0  0  0  0  0  0  0
   -1.7961   -8.0284   33.6258 C   0  0  0  0  0  0  0  0  0  0  0  0
   -2.8384   -8.8237   34.9862 Br  0  0  0  0  0  0  0  0  0  0  0  0
  1  2  1  0
  2  3  2  0
  2  4  1  0
  4  5  2  0
  5  6  1  0
  6  7  1  0
  6  8  2  0
  8  9  1  0
  8 10  1  0
 10 11  2  0
 11 12  1  0
 12 13  1  0
 13 14  2  0
 13 15  1  0
 15 16  2  0
 16 17  1  0
 17 18  1  0
 17 19  2  0
 19 20  1  0
 20 21  2  0
 21 22  1  0
 11  4  1  0
 21 15  1  0
M  END
>  <ref_mols>  (576) 
7gov-a

>  <gnina_score>  (576) 
5.292

>  <smina_score_min>  (576) 
-5.578

>  <ref_pdb>  (576) 
7gov-a

>  <inspiration_score>  (576) 
None

>  <inchikey>  (576) 
QVDGVZLKHDEUBY-UHFFFAOYSA-N

>  <tags>  (576) 
BulkDock Fragalysis export,openbind_d68ev3c_c2_elabs_scored,openbind_d68ev3c_c2_elabs_scored_4.5plus,openbind_d68ev3c_c2_elabs,openbind_d68ev3c_c2_elabs_scored_5plus,syndirella_product,openbind_d68ev3c_c2_elabs_scored_top80percent,syndirella_placed

>  <smiles>  (576) 
CC(=O)c1cc(F)c(F)cc1NC(=O)c1cc(C)ncc1Br

>  <subsites>  (576) 
None

>  <rmsd(smina/fragmenstein)>  (576) 
1.197

>  <alias>  (576) 
None

>  <energy_score>  (576) 
-10.380218

>  <HIPPO Pose ID>  (576) 
66268

>  <distance_score>  (576) 
0.828519

>  <HIPPO Compound ID>  (576) 
104249

>  <gnina_score_min>  (576) 
5.204

>  <name>  (576) 
P66268

>  <exports>  (576) 
['/opt/xchem-fragalysis-2/maxwin/BulkDock/OUTPUTS/openbind_d68ev3c_c2_elabs_1LOTQJ3.sdf', '/opt/xchem-fragalysis-2/maxwin/BulkDock/OUTPUTS/openbind_d68ev3c_c2_elabs_1LSYEHW.sdf', '/opt/xchem-fragalysis-2/maxwin/BulkDock/OUTPUTS/openbind_d68ev3c_c2_elabs_1LSYI5W.sdf']

$$$$
P66270
     RDKit          3D

 22 23  0  0  0  0  0  0  0  0999 V2000
    2.8494   -3.3963   33.3792 C   0  0  0  0  0  0  0  0  0  0  0  0
    2.3823   -3.4657   34.4834 C   0  0  0  0  0  0  0  0  0  0  0  0
    1.8272   -3.5477   35.8053 C   0  0  0  0  0  0  0  0  0  0  0  0
    2.3897   -2.7631   36.8195 C   0  0  0  0  0  0  0  0  0  0  0  0
    1.9087   -2.8602   38.1268 C   0  0  0  0  0  0  0  0  0  0  0  0
    2.6038   -1.8724   39.3555 Cl  0  0  0  0  0  0  0  0  0  0  0  0
    0.8709   -3.7365   38.4257 C   0  0  0  0  0  0  0  0  0  0  0  0
    0.3625   -3.7979   39.6662 F   0  0  0  0  0  0  0  0  0  0  0  0
    0.3287   -4.5370   37.4290 C   0  0  0  0  0  0  0  0  0  0  0  0
   -0.7041   -5.3351   37.7392 F   0  0  0  0  0  0  0  0  0  0  0  0
    0.7948   -4.4484   36.1126 C   0  0  0  0  0  0  0  0  0  0  0  0
    0.2334   -5.2313   35.1056 N   0  0  0  0  0  0  0  0  0  0  0  0
   -0.3114   -6.6742   35.1444 C   0  0  0  0  0  0  0  0  0  0  0  0
   -0.4465   -7.4058   36.0401 O   0  0  0  0  0  0  0  0  0  0  0  0
   -0.7717   -7.1425   33.7931 C   0  0  0  0  0  0  0  0  0  0  0  0
   -0.1453   -6.6757   32.6298 C   0  0  0  0  0  0  0  0  0  0  0  0
   -0.6264   -7.0640   31.3834 C   0  0  0  0  0  0  0  0  0  0  0  0
   -0.0799   -6.4081   30.1503 C   0  0  0  0  0  0  0  0  0  0  0  0
   -1.6397   -7.9476   31.2380 N   0  0  0  0  0  0  0  0  0  0  0  0
   -2.1730   -8.4497   32.3757 C   0  0  0  0  0  0  0  0  0  0  0  0
   -1.8143   -8.0607   33.6554 C   0  0  0  0  0  0  0  0  0  0  0  0
   -2.9187   -8.7155   35.0412 Br  0  0  0  0  0  0  0  0  0  0  0  0
  1  2  3  0
  2  3  1  0
  3  4  2  0
  4  5  1  0
  5  6  1  0
  5  7  2  0
  7  8  1  0
  7  9  1  0
  9 10  1  0
  9 11  2  0
 11 12  1  0
 12 13  1  0
 13 14  2  0
 13 15  1  0
 15 16  2  0
 16 17  1  0
 17 18  1  0
 17 19  2  0
 19 20  1  0
 20 21  2  0
 21 22  1  0
 11  3  1  0
 21 15  1  0
M  END
>  <ref_mols>  (577) 
7gov-a

>  <gnina_score>  (577) 
5.504

>  <smina_score_min>  (577) 
-5.22

>  <ref_pdb>  (577) 
7gov-a

>  <inspiration_score>  (577) 
None

>  <inchikey>  (577) 
HQXFAVZGMRIDNU-UHFFFAOYSA-N

>  <tags>  (577) 
BulkDock Fragalysis export,openbind_d68ev3c_c2_elabs_scored,openbind_d68ev3c_c2_elabs_scored_4.5plus,openbind_d68ev3c_c2_elabs,openbind_d68ev3c_c2_elabs_scored_5plus,syndirella_product,openbind_d68ev3c_c2_elabs_scored_top80percent,syndirella_placed

>  <smiles>  (577) 
C#Cc1cc(Cl)c(F)c(F)c1NC(=O)c1cc(C)ncc1Br

>  <subsites>  (577) 
None

>  <rmsd(smina/fragmenstein)>  (577) 
0.946

>  <alias>  (577) 
None

>  <energy_score>  (577) 
-8.179429

>  <HIPPO Pose ID>  (577) 
66270

>  <distance_score>  (577) 
0.586649

>  <HIPPO Compound ID>  (577) 
104251

>  <gnina_score_min>  (577) 
5.406

>  <name>  (577) 
P66270

>  <exports>  (577) 
['/opt/xchem-fragalysis-2/maxwin/BulkDock/OUTPUTS/openbind_d68ev3c_c2_elabs_1LOTQJ3.sdf', '/opt/xchem-fragalysis-2/maxwin/BulkDock/OUTPUTS/openbind_d68ev3c_c2_elabs_1LSYEHW.sdf', '/opt/xchem-fragalysis-2/maxwin/BulkDock/OUTPUTS/openbind_d68ev3c_c2_elabs_1LSYI5W.sdf']

$$$$
P66285
     RDKit          3D

 22 23  0  0  0  0  0  0  0  0999 V2000
   -0.0929   -6.4432   30.1411 C   0  0  0  0  0  0  0  0  0  0  0  0
   -0.6374   -7.0887   31.3808 C   0  0  0  0  0  0  0  0  0  0  0  0
   -0.1501   -6.6947   32.6240 C   0  0  0  0  0  0  0  0  0  0  0  0
   -0.7769   -7.1384   33.7980 C   0  0  0  0  0  0  0  0  0  0  0  0
   -0.3201   -6.6508   35.1527 C   0  0  0  0  0  0  0  0  0  0  0  0
   -0.5429   -7.3366   36.0683 O   0  0  0  0  0  0  0  0  0  0  0  0
    0.3939   -5.2824   35.0774 N   0  0  0  0  0  0  0  0  0  0  0  0
    0.8800   -4.4600   36.0889 C   0  0  0  0  0  0  0  0  0  0  0  0
    0.3121   -4.5638   37.3639 C   0  0  0  0  0  0  0  0  0  0  0  0
    0.7660   -3.7555   38.3957 C   0  0  0  0  0  0  0  0  0  0  0  0
    0.1892   -3.8365   39.6012 F   0  0  0  0  0  0  0  0  0  0  0  0
    1.8061   -2.8669   38.1978 C   0  0  0  0  0  0  0  0  0  0  0  0
    2.3911   -2.7894   36.9276 C   0  0  0  0  0  0  0  0  0  0  0  0
    3.5129   -1.8680   36.7905 N   0  0  0  0  0  0  0  0  0  0  0  0
    3.3366   -0.7103   37.1975 O   0  0  0  0  0  0  0  0  0  0  0  0
    4.5620   -2.2929   36.2895 O   0  0  0  0  0  0  0  0  0  0  0  0
    1.9235   -3.5494   35.8310 C   0  0  0  0  0  0  0  0  0  0  0  0
    2.6043   -3.4996   34.4871 C   0  0  0  0  0  0  0  0  0  0  0  0
   -1.8234   -8.0561   33.6652 C   0  0  0  0  0  0  0  0  0  0  0  0
   -2.9303   -8.7136   35.0494 Br  0  0  0  0  0  0  0  0  0  0  0  0
   -2.1854   -8.4564   32.3882 C   0  0  0  0  0  0  0  0  0  0  0  0
   -1.6549   -7.9664   31.2452 N   0  0  0  0  0  0  0  0  0  0  0  0
  1  2  1  0
  2  3  2  0
  3  4  1  0
  4  5  1  0
  5  6  2  0
  5  7  1  0
  7  8  1  0
  8  9  2  0
  9 10  1  0
 10 11  1  0
 10 12  2  0
 12 13  1  0
 13 14  1  0
 14 15  2  0
 14 16  1  0
 13 17  2  0
 17 18  1  0
  4 19  2  0
 19 20  1  0
 19 21  1  0
 21 22  2  0
 22  2  1  0
 17  8  1  0
M  CHG  2  14   1  16  -1
M  END
>  <ref_mols>  (578) 
7gov-a

>  <gnina_score>  (578) 
5.198

>  <smina_score_min>  (578) 
-5.726

>  <ref_pdb>  (578) 
7gov-a

>  <inspiration_score>  (578) 
None

>  <inchikey>  (578) 
XKFQDBURPHMMDR-UHFFFAOYSA-N

>  <tags>  (578) 
BulkDock Fragalysis export,openbind_d68ev3c_c2_elabs_scored,openbind_d68ev3c_c2_elabs_scored_4.5plus,openbind_d68ev3c_c2_elabs,openbind_d68ev3c_c2_elabs_scored_5plus,syndirella_product,openbind_d68ev3c_c2_elabs_scored_top80percent,syndirella_placed

>  <smiles>  (578) 
Cc1cc(C(=O)Nc2cc(F)cc([N+](=O)[O-])c2C)c(Br)cn1

>  <subsites>  (578) 
None

>  <rmsd(smina/fragmenstein)>  (578) 
1.074

>  <alias>  (578) 
None

>  <energy_score>  (578) 
-17.08329

>  <HIPPO Pose ID>  (578) 
66285

>  <distance_score>  (578) 
0.583624

>  <HIPPO Compound ID>  (578) 
104312

>  <gnina_score_min>  (578) 
5.185

>  <name>  (578) 
P66285

>  <exports>  (578) 
['/opt/xchem-fragalysis-2/maxwin/BulkDock/OUTPUTS/openbind_d68ev3c_c2_elabs_1LOTQJ3.sdf', '/opt/xchem-fragalysis-2/maxwin/BulkDock/OUTPUTS/openbind_d68ev3c_c2_elabs_1LSYEHW.sdf', '/opt/xchem-fragalysis-2/maxwin/BulkDock/OUTPUTS/openbind_d68ev3c_c2_elabs_1LSYI5W.sdf']

$$$$
P66286
     RDKit          3D

 22 23  0  0  0  0  0  0  0  0999 V2000
    3.9342   -3.2837   34.3655 C   0  0  0  0  0  0  0  0  0  0  0  0
    2.4567   -3.5459   34.4934 C   0  0  0  0  0  0  0  0  0  0  0  0
    1.7441   -3.7203   33.5043 O   0  0  0  0  0  0  0  0  0  0  0  0
    1.8512   -3.5731   35.8561 C   0  0  0  0  0  0  0  0  0  0  0  0
    2.3837   -2.7733   36.8795 C   0  0  0  0  0  0  0  0  0  0  0  0
    1.8512   -2.8408   38.1689 C   0  0  0  0  0  0  0  0  0  0  0  0
    0.8011   -3.7124   38.4350 C   0  0  0  0  0  0  0  0  0  0  0  0
    0.2785   -3.7483   39.6685 F   0  0  0  0  0  0  0  0  0  0  0  0
    0.2769   -4.5196   37.4336 C   0  0  0  0  0  0  0  0  0  0  0  0
   -0.7688   -5.3084   37.7229 F   0  0  0  0  0  0  0  0  0  0  0  0
    0.7856   -4.4478   36.1337 C   0  0  0  0  0  0  0  0  0  0  0  0
    0.2356   -5.2233   35.1168 N   0  0  0  0  0  0  0  0  0  0  0  0
   -0.2928   -6.6718   35.1360 C   0  0  0  0  0  0  0  0  0  0  0  0
   -0.4215   -7.4164   36.0222 O   0  0  0  0  0  0  0  0  0  0  0  0
   -0.7527   -7.1338   33.7810 C   0  0  0  0  0  0  0  0  0  0  0  0
   -0.1354   -6.6663   32.6140 C   0  0  0  0  0  0  0  0  0  0  0  0
   -0.6222   -7.0558   31.3697 C   0  0  0  0  0  0  0  0  0  0  0  0
   -0.0808   -6.3962   30.1359 C   0  0  0  0  0  0  0  0  0  0  0  0
   -1.6337   -7.9430   31.2274 N   0  0  0  0  0  0  0  0  0  0  0  0
   -2.1621   -8.4419   32.3680 C   0  0  0  0  0  0  0  0  0  0  0  0
   -1.7976   -8.0513   33.6460 C   0  0  0  0  0  0  0  0  0  0  0  0
   -2.9001   -8.7066   35.0345 Br  0  0  0  0  0  0  0  0  0  0  0  0
  1  2  1  0
  2  3  2  0
  2  4  1  0
  4  5  2  0
  5  6  1  0
  6  7  2  0
  7  8  1  0
  7  9  1  0
  9 10  1  0
  9 11  2  0
 11 12  1  0
 12 13  1  0
 13 14  2  0
 13 15  1  0
 15 16  2  0
 16 17  1  0
 17 18  1  0
 17 19  2  0
 19 20  1  0
 20 21  2  0
 21 22  1  0
 11  4  1  0
 21 15  1  0
M  END
>  <ref_mols>  (579) 
7gov-a

>  <gnina_score>  (579) 
5.383

>  <smina_score_min>  (579) 
-5.349

>  <ref_pdb>  (579) 
7gov-a

>  <inspiration_score>  (579) 
None

>  <inchikey>  (579) 
FJCLRZLCDNSNPY-UHFFFAOYSA-N

>  <tags>  (579) 
BulkDock Fragalysis export,openbind_d68ev3c_c2_elabs_scored,openbind_d68ev3c_c2_elabs_scored_4.5plus,openbind_d68ev3c_c2_elabs,openbind_d68ev3c_c2_elabs_scored_5plus,syndirella_product,openbind_d68ev3c_c2_elabs_scored_top80percent,syndirella_placed

>  <smiles>  (579) 
CC(=O)c1ccc(F)c(F)c1NC(=O)c1cc(C)ncc1Br

>  <subsites>  (579) 
None

>  <rmsd(smina/fragmenstein)>  (579) 
0.746

>  <alias>  (579) 
None

>  <energy_score>  (579) 
-24.126348

>  <HIPPO Pose ID>  (579) 
66286

>  <distance_score>  (579) 
0.566255

>  <HIPPO Compound ID>  (579) 
104313

>  <gnina_score_min>  (579) 
5.267

>  <name>  (579) 
P66286

>  <exports>  (579) 
['/opt/xchem-fragalysis-2/maxwin/BulkDock/OUTPUTS/openbind_d68ev3c_c2_elabs_1LOTQJ3.sdf', '/opt/xchem-fragalysis-2/maxwin/BulkDock/OUTPUTS/openbind_d68ev3c_c2_elabs_1LSYEHW.sdf', '/opt/xchem-fragalysis-2/maxwin/BulkDock/OUTPUTS/openbind_d68ev3c_c2_elabs_1LSYI5W.sdf']

$$$$
P66290
     RDKit          3D

 22 23  0  0  0  0  0  0  0  0999 V2000
    2.9203   -3.4004   33.4055 C   0  0  0  0  0  0  0  0  0  0  0  0
    2.4355   -3.4703   34.5020 C   0  0  0  0  0  0  0  0  0  0  0  0
    1.8595   -3.5525   35.8146 C   0  0  0  0  0  0  0  0  0  0  0  0
    2.4261   -2.7967   36.8474 C   0  0  0  0  0  0  0  0  0  0  0  0
    1.9286   -2.9043   38.1523 C   0  0  0  0  0  0  0  0  0  0  0  0
    2.5291   -2.1609   39.2148 C   0  0  0  0  0  0  0  0  0  0  0  0
    3.0411   -1.5431   40.0545 N   0  0  0  0  0  0  0  0  0  0  0  0
    0.8593   -3.7573   38.4116 C   0  0  0  0  0  0  0  0  0  0  0  0
    0.3404   -3.8442   39.6449 F   0  0  0  0  0  0  0  0  0  0  0  0
    0.3042   -4.5328   37.4007 C   0  0  0  0  0  0  0  0  0  0  0  0
    0.8026   -4.4311   36.1014 C   0  0  0  0  0  0  0  0  0  0  0  0
    0.2416   -5.2164   35.1018 N   0  0  0  0  0  0  0  0  0  0  0  0
   -0.3867   -6.6254   35.1674 C   0  0  0  0  0  0  0  0  0  0  0  0
   -0.6010   -7.3144   36.0823 O   0  0  0  0  0  0  0  0  0  0  0  0
   -0.8055   -7.1361   33.8091 C   0  0  0  0  0  0  0  0  0  0  0  0
   -0.1694   -6.6934   32.6400 C   0  0  0  0  0  0  0  0  0  0  0  0
   -0.6405   -7.0982   31.3940 C   0  0  0  0  0  0  0  0  0  0  0  0
   -0.0919   -6.4499   30.1574 C   0  0  0  0  0  0  0  0  0  0  0  0
   -1.6472   -7.9874   31.2517 N   0  0  0  0  0  0  0  0  0  0  0  0
   -2.1835   -8.4785   32.3916 C   0  0  0  0  0  0  0  0  0  0  0  0
   -1.8393   -8.0677   33.6701 C   0  0  0  0  0  0  0  0  0  0  0  0
   -2.9555   -8.7275   35.0468 Br  0  0  0  0  0  0  0  0  0  0  0  0
  1  2  3  0
  2  3  1  0
  3  4  2  0
  4  5  1  0
  5  6  1  0
  6  7  3  0
  5  8  2  0
  8  9  1  0
  8 10  1  0
 10 11  2  0
 11 12  1  0
 12 13  1  0
 13 14  2  0
 13 15  1  0
 15 16  2  0
 16 17  1  0
 17 18  1  0
 17 19  2  0
 19 20  1  0
 20 21  2  0
 21 22  1  0
 11  3  1  0
 21 15  1  0
M  END
>  <ref_mols>  (580) 
7gov-a

>  <gnina_score>  (580) 
5.258

>  <smina_score_min>  (580) 
-5.342

>  <ref_pdb>  (580) 
7gov-a

>  <inspiration_score>  (580) 
None

>  <inchikey>  (580) 
AILLDVGVSMHJNC-UHFFFAOYSA-N

>  <tags>  (580) 
BulkDock Fragalysis export,openbind_d68ev3c_c2_elabs_scored,openbind_d68ev3c_c2_elabs_scored_4.5plus,openbind_d68ev3c_c2_elabs,openbind_d68ev3c_c2_elabs_scored_5plus,syndirella_product,openbind_d68ev3c_c2_elabs_scored_top80percent,syndirella_placed

>  <smiles>  (580) 
C#Cc1cc(C#N)c(F)cc1NC(=O)c1cc(C)ncc1Br

>  <subsites>  (580) 
None

>  <rmsd(smina/fragmenstein)>  (580) 
1.134

>  <alias>  (580) 
None

>  <energy_score>  (580) 
-7.449699

>  <HIPPO Pose ID>  (580) 
66290

>  <distance_score>  (580) 
0.607198

>  <HIPPO Compound ID>  (580) 
104322

>  <gnina_score_min>  (580) 
5.255

>  <name>  (580) 
P66290

>  <exports>  (580) 
['/opt/xchem-fragalysis-2/maxwin/BulkDock/OUTPUTS/openbind_d68ev3c_c2_elabs_1LOTQJ3.sdf', '/opt/xchem-fragalysis-2/maxwin/BulkDock/OUTPUTS/openbind_d68ev3c_c2_elabs_1LSYEHW.sdf', '/opt/xchem-fragalysis-2/maxwin/BulkDock/OUTPUTS/openbind_d68ev3c_c2_elabs_1LSYI5W.sdf']

$$$$
P66291
     RDKit          3D

 22 23  0  0  0  0  0  0  0  0999 V2000
    4.0074   -3.2598   34.4243 C   0  0  0  0  0  0  0  0  0  0  0  0
    2.5393   -3.5771   34.5376 C   0  0  0  0  0  0  0  0  0  0  0  0
    1.8540   -3.8100   33.5409 O   0  0  0  0  0  0  0  0  0  0  0  0
    1.9104   -3.5905   35.8921 C   0  0  0  0  0  0  0  0  0  0  0  0
    2.4372   -2.8037   36.9251 C   0  0  0  0  0  0  0  0  0  0  0  0
    1.8771   -2.8739   38.2027 C   0  0  0  0  0  0  0  0  0  0  0  0
    2.5995   -1.8087   39.5896 Br  0  0  0  0  0  0  0  0  0  0  0  0
    0.8009   -3.7222   38.4515 C   0  0  0  0  0  0  0  0  0  0  0  0
    0.2399   -3.7810   39.6678 F   0  0  0  0  0  0  0  0  0  0  0  0
    0.2774   -4.5153   37.4386 C   0  0  0  0  0  0  0  0  0  0  0  0
    0.8221   -4.4429   36.1557 C   0  0  0  0  0  0  0  0  0  0  0  0
    0.2744   -5.2213   35.1448 N   0  0  0  0  0  0  0  0  0  0  0  0
   -0.4186   -6.5998   35.2043 C   0  0  0  0  0  0  0  0  0  0  0  0
   -0.7061   -7.2614   36.1197 O   0  0  0  0  0  0  0  0  0  0  0  0
   -0.8150   -7.1185   33.8353 C   0  0  0  0  0  0  0  0  0  0  0  0
   -0.1800   -6.6719   32.6666 C   0  0  0  0  0  0  0  0  0  0  0  0
   -0.6369   -7.0848   31.4164 C   0  0  0  0  0  0  0  0  0  0  0  0
   -0.0841   -6.4288   30.1853 C   0  0  0  0  0  0  0  0  0  0  0  0
   -1.6310   -7.9870   31.2653 N   0  0  0  0  0  0  0  0  0  0  0  0
   -2.1695   -8.4791   32.4024 C   0  0  0  0  0  0  0  0  0  0  0  0
   -1.8393   -8.0618   33.6843 C   0  0  0  0  0  0  0  0  0  0  0  0
   -2.9680   -8.7385   35.0451 Br  0  0  0  0  0  0  0  0  0  0  0  0
  1  2  1  0
  2  3  2  0
  2  4  1  0
  4  5  2  0
  5  6  1  0
  6  7  1  0
  6  8  2  0
  8  9  1  0
  8 10  1  0
 10 11  2  0
 11 12  1  0
 12 13  1  0
 13 14  2  0
 13 15  1  0
 15 16  2  0
 16 17  1  0
 17 18  1  0
 17 19  2  0
 19 20  1  0
 20 21  2  0
 21 22  1  0
 11  4  1  0
 21 15  1  0
M  END
>  <ref_mols>  (581) 
7gov-a

>  <gnina_score>  (581) 
5.343

>  <smina_score_min>  (581) 
-5.714

>  <ref_pdb>  (581) 
7gov-a

>  <inspiration_score>  (581) 
None

>  <inchikey>  (581) 
WNAAEHBXENRCLA-UHFFFAOYSA-N

>  <tags>  (581) 
BulkDock Fragalysis export,openbind_d68ev3c_c2_elabs_scored,openbind_d68ev3c_c2_elabs_scored_4.5plus,openbind_d68ev3c_c2_elabs,openbind_d68ev3c_c2_elabs_scored_5plus,syndirella_product,openbind_d68ev3c_c2_elabs_scored_top80percent,syndirella_placed

>  <smiles>  (581) 
CC(=O)c1cc(Br)c(F)cc1NC(=O)c1cc(C)ncc1Br

>  <subsites>  (581) 
None

>  <rmsd(smina/fragmenstein)>  (581) 
0.941

>  <alias>  (581) 
None

>  <energy_score>  (581) 
-23.218403

>  <HIPPO Pose ID>  (581) 
66291

>  <distance_score>  (581) 
0.622045

>  <HIPPO Compound ID>  (581) 
104324

>  <gnina_score_min>  (581) 
5.274

>  <name>  (581) 
P66291

>  <exports>  (581) 
['/opt/xchem-fragalysis-2/maxwin/BulkDock/OUTPUTS/openbind_d68ev3c_c2_elabs_1LOTQJ3.sdf', '/opt/xchem-fragalysis-2/maxwin/BulkDock/OUTPUTS/openbind_d68ev3c_c2_elabs_1LSYEHW.sdf', '/opt/xchem-fragalysis-2/maxwin/BulkDock/OUTPUTS/openbind_d68ev3c_c2_elabs_1LSYI5W.sdf']

$$$$
P66296
     RDKit          3D

 22 23  0  0  0  0  0  0  0  0999 V2000
    1.1262   -2.6671   31.9403 C   0  0  0  0  0  0  0  0  0  0  0  0
    0.8909   -3.1416   33.2696 O   0  0  0  0  0  0  0  0  0  0  0  0
    1.5936   -2.4704   34.2227 C   0  0  0  0  0  0  0  0  0  0  0  0
    2.3538   -1.5393   34.0009 O   0  0  0  0  0  0  0  0  0  0  0  0
    1.2938   -2.9681   35.5987 C   0  0  0  0  0  0  0  0  0  0  0  0
    1.7565   -2.1695   36.6627 C   0  0  0  0  0  0  0  0  0  0  0  0
    1.5029   -2.5243   37.9884 C   0  0  0  0  0  0  0  0  0  0  0  0
    0.7950   -3.6845   38.2562 C   0  0  0  0  0  0  0  0  0  0  0  0
    0.4806   -3.9879   39.5224 F   0  0  0  0  0  0  0  0  0  0  0  0
    0.3841   -4.5220   37.2272 C   0  0  0  0  0  0  0  0  0  0  0  0
    0.6376   -4.1780   35.8942 C   0  0  0  0  0  0  0  0  0  0  0  0
    0.2180   -5.0498   34.8925 N   0  0  0  0  0  0  0  0  0  0  0  0
   -0.0944   -6.5607   34.9442 C   0  0  0  0  0  0  0  0  0  0  0  0
    0.0243   -7.3274   35.8145 O   0  0  0  0  0  0  0  0  0  0  0  0
   -0.6507   -7.0702   33.6596 C   0  0  0  0  0  0  0  0  0  0  0  0
   -0.1136   -6.6547   32.4381 C   0  0  0  0  0  0  0  0  0  0  0  0
   -0.6904   -7.1449   31.2835 C   0  0  0  0  0  0  0  0  0  0  0  0
   -0.2794   -6.5024   29.7526 Cl  0  0  0  0  0  0  0  0  0  0  0  0
   -1.6946   -8.0470   31.2499 N   0  0  0  0  0  0  0  0  0  0  0  0
   -2.1512   -8.4712   32.4485 C   0  0  0  0  0  0  0  0  0  0  0  0
   -1.7006   -7.9942   33.6670 C   0  0  0  0  0  0  0  0  0  0  0  0
   -2.5864   -8.4713   35.0590 Cl  0  0  0  0  0  0  0  0  0  0  0  0
  1  2  1  0
  2  3  1  0
  3  4  2  0
  3  5  1  0
  5  6  2  0
  6  7  1  0
  7  8  2  0
  8  9  1  0
  8 10  1  0
 10 11  2  0
 11 12  1  0
 12 13  1  0
 13 14  2  0
 13 15  1  0
 15 16  2  0
 16 17  1  0
 17 18  1  0
 17 19  2  0
 19 20  1  0
 20 21  2  0
 21 22  1  0
 11  5  1  0
 21 15  1  0
M  END
>  <ref_mols>  (582) 
7gov-a

>  <gnina_score>  (582) 
5.174

>  <smina_score_min>  (582) 
-5.755

>  <ref_pdb>  (582) 
7gov-a

>  <inspiration_score>  (582) 
None

>  <inchikey>  (582) 
XRQHSJUKZNVACX-UHFFFAOYSA-N

>  <tags>  (582) 
BulkDock Fragalysis export,openbind_d68ev3c_c2_elabs_scored,openbind_d68ev3c_c2_elabs_scored_4.5plus,openbind_d68ev3c_c2_elabs,openbind_d68ev3c_c2_elabs_scored_5plus,syndirella_product,openbind_d68ev3c_c2_elabs_scored_top80percent,syndirella_placed

>  <smiles>  (582) 
COC(=O)c1ccc(F)cc1NC(=O)c1cc(Cl)ncc1Cl

>  <subsites>  (582) 
None

>  <rmsd(smina/fragmenstein)>  (582) 
1.338

>  <alias>  (582) 
None

>  <energy_score>  (582) 
-20.350656

>  <HIPPO Pose ID>  (582) 
66296

>  <distance_score>  (582) 
0.786025

>  <HIPPO Compound ID>  (582) 
104340

>  <gnina_score_min>  (582) 
5.184

>  <name>  (582) 
P66296

>  <exports>  (582) 
['/opt/xchem-fragalysis-2/maxwin/BulkDock/OUTPUTS/openbind_d68ev3c_c2_elabs_1LOTQJ3.sdf', '/opt/xchem-fragalysis-2/maxwin/BulkDock/OUTPUTS/openbind_d68ev3c_c2_elabs_1LSYEHW.sdf', '/opt/xchem-fragalysis-2/maxwin/BulkDock/OUTPUTS/openbind_d68ev3c_c2_elabs_1LSYI5W.sdf']

$$$$
P66298
     RDKit          3D

 22 23  0  0  0  0  0  0  0  0999 V2000
    3.0004   -3.2797   33.3258 C   0  0  0  0  0  0  0  0  0  0  0  0
    2.4995   -3.3857   34.4121 C   0  0  0  0  0  0  0  0  0  0  0  0
    1.9034   -3.5081   35.7120 C   0  0  0  0  0  0  0  0  0  0  0  0
    2.3870   -2.7061   36.7532 C   0  0  0  0  0  0  0  0  0  0  0  0
    1.8632   -2.8394   38.0410 C   0  0  0  0  0  0  0  0  0  0  0  0
    2.4618   -1.8296   39.3021 Cl  0  0  0  0  0  0  0  0  0  0  0  0
    0.8585   -3.7670   38.2935 C   0  0  0  0  0  0  0  0  0  0  0  0
    0.3083   -3.8640   39.5144 F   0  0  0  0  0  0  0  0  0  0  0  0
    0.3956   -4.5839   37.2693 C   0  0  0  0  0  0  0  0  0  0  0  0
   -0.6078   -5.4361   37.5315 F   0  0  0  0  0  0  0  0  0  0  0  0
    0.9102   -4.4635   35.9723 C   0  0  0  0  0  0  0  0  0  0  0  0
    0.4445   -5.2783   34.9402 N   0  0  0  0  0  0  0  0  0  0  0  0
   -0.0626   -6.7314   34.9647 C   0  0  0  0  0  0  0  0  0  0  0  0
   -0.0999   -7.5025   35.8355 O   0  0  0  0  0  0  0  0  0  0  0  0
   -0.6254   -7.1618   33.6439 C   0  0  0  0  0  0  0  0  0  0  0  0
   -0.0285   -6.7243   32.4550 C   0  0  0  0  0  0  0  0  0  0  0  0
   -0.5431   -7.1643   31.2499 C   0  0  0  0  0  0  0  0  0  0  0  0
   -1.5939   -7.9959   31.1520 N   0  0  0  0  0  0  0  0  0  0  0  0
   -2.1159   -8.4373   32.3143 C   0  0  0  0  0  0  0  0  0  0  0  0
   -3.1432   -9.2913   32.2077 F   0  0  0  0  0  0  0  0  0  0  0  0
   -1.6996   -8.0612   33.5793 C   0  0  0  0  0  0  0  0  0  0  0  0
   -2.4148   -8.6943   34.7302 C   0  0  0  0  0  0  0  0  0  0  0  0
  1  2  3  0
  2  3  1  0
  3  4  2  0
  4  5  1  0
  5  6  1  0
  5  7  2  0
  7  8  1  0
  7  9  1  0
  9 10  1  0
  9 11  2  0
 11 12  1  0
 12 13  1  0
 13 14  2  0
 13 15  1  0
 15 16  2  0
 16 17  1  0
 17 18  2  0
 18 19  1  0
 19 20  1  0
 19 21  2  0
 21 22  1  0
 11  3  1  0
 21 15  1  0
M  END
>  <ref_mols>  (583) 
7gov-a

>  <gnina_score>  (583) 
5.299

>  <smina_score_min>  (583) 
-5.688

>  <ref_pdb>  (583) 
7gov-a

>  <inspiration_score>  (583) 
None

>  <inchikey>  (583) 
QCDHEWZDWMMHJK-UHFFFAOYSA-N

>  <tags>  (583) 
BulkDock Fragalysis export,openbind_d68ev3c_c2_elabs_scored,openbind_d68ev3c_c2_elabs_scored_4.5plus,openbind_d68ev3c_c2_elabs,openbind_d68ev3c_c2_elabs_scored_5plus,syndirella_product,openbind_d68ev3c_c2_elabs_scored_top80percent,syndirella_placed

>  <smiles>  (583) 
C#Cc1cc(Cl)c(F)c(F)c1NC(=O)c1ccnc(F)c1C

>  <subsites>  (583) 
None

>  <rmsd(smina/fragmenstein)>  (583) 
0.915

>  <alias>  (583) 
None

>  <energy_score>  (583) 
-4.821198

>  <HIPPO Pose ID>  (583) 
66298

>  <distance_score>  (583) 
0.501554

>  <HIPPO Compound ID>  (583) 
104346

>  <gnina_score_min>  (583) 
5.206

>  <name>  (583) 
P66298

>  <exports>  (583) 
['/opt/xchem-fragalysis-2/maxwin/BulkDock/OUTPUTS/openbind_d68ev3c_c2_elabs_1LOTQJ3.sdf', '/opt/xchem-fragalysis-2/maxwin/BulkDock/OUTPUTS/openbind_d68ev3c_c2_elabs_1LSYEHW.sdf', '/opt/xchem-fragalysis-2/maxwin/BulkDock/OUTPUTS/openbind_d68ev3c_c2_elabs_1LSYI5W.sdf']

$$$$
P66299
     RDKit          3D

 22 23  0  0  0  0  0  0  0  0999 V2000
    2.9473   -3.3433   33.3075 C   0  0  0  0  0  0  0  0  0  0  0  0
    2.4624   -3.4329   34.4025 C   0  0  0  0  0  0  0  0  0  0  0  0
    1.8861   -3.5359   35.7125 C   0  0  0  0  0  0  0  0  0  0  0  0
    2.4277   -2.7686   36.7511 C   0  0  0  0  0  0  0  0  0  0  0  0
    1.9290   -2.8934   38.0544 C   0  0  0  0  0  0  0  0  0  0  0  0
    2.5022   -2.1337   39.1205 C   0  0  0  0  0  0  0  0  0  0  0  0
    2.9905   -1.5010   39.9631 N   0  0  0  0  0  0  0  0  0  0  0  0
    0.8841   -3.7771   38.3075 C   0  0  0  0  0  0  0  0  0  0  0  0
    0.3603   -3.8799   39.5380 F   0  0  0  0  0  0  0  0  0  0  0  0
    0.3582   -4.5666   37.2913 C   0  0  0  0  0  0  0  0  0  0  0  0
    0.8570   -4.4464   35.9923 C   0  0  0  0  0  0  0  0  0  0  0  0
    0.3144   -5.2467   34.9936 N   0  0  0  0  0  0  0  0  0  0  0  0
   -0.2141   -6.6935   35.0469 C   0  0  0  0  0  0  0  0  0  0  0  0
   -0.3487   -7.4149   35.9512 O   0  0  0  0  0  0  0  0  0  0  0  0
   -0.6916   -7.1806   33.7036 C   0  0  0  0  0  0  0  0  0  0  0  0
   -0.0573   -6.7582   32.5268 C   0  0  0  0  0  0  0  0  0  0  0  0
   -0.5317   -7.2064   31.3070 C   0  0  0  0  0  0  0  0  0  0  0  0
   -1.5736   -8.0427   31.1797 N   0  0  0  0  0  0  0  0  0  0  0  0
   -2.1221   -8.4852   32.3279 C   0  0  0  0  0  0  0  0  0  0  0  0
   -3.1368   -9.3499   32.1943 F   0  0  0  0  0  0  0  0  0  0  0  0
   -1.7486   -8.0997   33.6054 C   0  0  0  0  0  0  0  0  0  0  0  0
   -2.4967   -8.7512   34.7258 C   0  0  0  0  0  0  0  0  0  0  0  0
  1  2  3  0
  2  3  1  0
  3  4  2  0
  4  5  1  0
  5  6  1  0
  6  7  3  0
  5  8  2  0
  8  9  1  0
  8 10  1  0
 10 11  2  0
 11 12  1  0
 12 13  1  0
 13 14  2  0
 13 15  1  0
 15 16  2  0
 16 17  1  0
 17 18  2  0
 18 19  1  0
 19 20  1  0
 19 21  2  0
 21 22  1  0
 11  3  1  0
 21 15  1  0
M  END
>  <ref_mols>  (584) 
7gov-a

>  <gnina_score>  (584) 
5.07

>  <smina_score_min>  (584) 
-5.782

>  <ref_pdb>  (584) 
7gov-a

>  <inspiration_score>  (584) 
None

>  <inchikey>  (584) 
QBVJONPSKSVPOW-UHFFFAOYSA-N

>  <tags>  (584) 
BulkDock Fragalysis export,openbind_d68ev3c_c2_elabs_scored,openbind_d68ev3c_c2_elabs_scored_4.5plus,openbind_d68ev3c_c2_elabs,openbind_d68ev3c_c2_elabs_scored_5plus,syndirella_product,openbind_d68ev3c_c2_elabs_scored_top80percent,syndirella_placed

>  <smiles>  (584) 
C#Cc1cc(C#N)c(F)cc1NC(=O)c1ccnc(F)c1C

>  <subsites>  (584) 
None

>  <rmsd(smina/fragmenstein)>  (584) 
1.252

>  <alias>  (584) 
None

>  <energy_score>  (584) 
-20.681721

>  <HIPPO Pose ID>  (584) 
66299

>  <distance_score>  (584) 
0.539694

>  <HIPPO Compound ID>  (584) 
104347

>  <gnina_score_min>  (584) 
5.092

>  <name>  (584) 
P66299

>  <exports>  (584) 
['/opt/xchem-fragalysis-2/maxwin/BulkDock/OUTPUTS/openbind_d68ev3c_c2_elabs_1LOTQJ3.sdf', '/opt/xchem-fragalysis-2/maxwin/BulkDock/OUTPUTS/openbind_d68ev3c_c2_elabs_1LSYEHW.sdf', '/opt/xchem-fragalysis-2/maxwin/BulkDock/OUTPUTS/openbind_d68ev3c_c2_elabs_1LSYI5W.sdf']

$$$$
P66300
     RDKit          3D

 22 23  0  0  0  0  0  0  0  0999 V2000
    3.7489   -5.0372   34.7333 C   0  0  0  0  0  0  0  0  0  0  0  0
    2.4733   -4.2456   34.6644 C   0  0  0  0  0  0  0  0  0  0  0  0
    2.0211   -3.8024   33.6103 O   0  0  0  0  0  0  0  0  0  0  0  0
    1.7500   -3.9806   35.9321 C   0  0  0  0  0  0  0  0  0  0  0  0
    2.3919   -3.2631   36.9444 C   0  0  0  0  0  0  0  0  0  0  0  0
    1.7018   -2.9916   38.1243 C   0  0  0  0  0  0  0  0  0  0  0  0
    2.5858   -2.0841   39.5292 Br  0  0  0  0  0  0  0  0  0  0  0  0
    0.3730   -3.3953   38.2675 C   0  0  0  0  0  0  0  0  0  0  0  0
   -0.2818   -3.1841   39.4180 F   0  0  0  0  0  0  0  0  0  0  0  0
   -0.2941   -4.0543   37.2383 C   0  0  0  0  0  0  0  0  0  0  0  0
    0.4044   -4.3651   36.0779 C   0  0  0  0  0  0  0  0  0  0  0  0
   -0.1807   -5.2027   35.1457 N   0  0  0  0  0  0  0  0  0  0  0  0
    0.1429   -6.6550   34.7682 C   0  0  0  0  0  0  0  0  0  0  0  0
    0.9020   -7.4044   35.2335 O   0  0  0  0  0  0  0  0  0  0  0  0
   -0.5916   -7.0690   33.5599 C   0  0  0  0  0  0  0  0  0  0  0  0
   -0.1068   -6.5870   32.3421 C   0  0  0  0  0  0  0  0  0  0  0  0
   -0.6710   -7.0768   31.1844 C   0  0  0  0  0  0  0  0  0  0  0  0
   -1.6837   -7.9659   31.1746 N   0  0  0  0  0  0  0  0  0  0  0  0
   -2.1094   -8.4139   32.3766 C   0  0  0  0  0  0  0  0  0  0  0  0
   -3.1217   -9.2917   32.3527 F   0  0  0  0  0  0  0  0  0  0  0  0
   -1.6089   -8.0148   33.6019 C   0  0  0  0  0  0  0  0  0  0  0  0
   -2.1824   -8.6067   34.8409 C   0  0  0  0  0  0  0  0  0  0  0  0
  1  2  1  0
  2  3  2  0
  2  4  1  0
  4  5  2  0
  5  6  1  0
  6  7  1  0
  6  8  2  0
  8  9  1  0
  8 10  1  0
 10 11  2  0
 11 12  1  0
 12 13  1  0
 13 14  2  0
 13 15  1  0
 15 16  2  0
 16 17  1  0
 17 18  2  0
 18 19  1  0
 19 20  1  0
 19 21  2  0
 21 22  1  0
 11  4  1  0
 21 15  1  0
M  END
>  <ref_mols>  (585) 
7gov-a

>  <gnina_score>  (585) 
5.096

>  <smina_score_min>  (585) 
-6.338

>  <ref_pdb>  (585) 
7gov-a

>  <inspiration_score>  (585) 
None

>  <inchikey>  (585) 
ZFUWZTOPAMQHIO-UHFFFAOYSA-N

>  <tags>  (585) 
BulkDock Fragalysis export,openbind_d68ev3c_c2_elabs_scored,openbind_d68ev3c_c2_elabs_scored_4.5plus,openbind_d68ev3c_c2_elabs,openbind_d68ev3c_c2_elabs_scored_5plus,syndirella_product,openbind_d68ev3c_c2_elabs_scored_top80percent,syndirella_placed

>  <smiles>  (585) 
CC(=O)c1cc(Br)c(F)cc1NC(=O)c1ccnc(F)c1C

>  <subsites>  (585) 
None

>  <rmsd(smina/fragmenstein)>  (585) 
0.961

>  <alias>  (585) 
None

>  <energy_score>  (585) 
-9.999116

>  <HIPPO Pose ID>  (585) 
66300

>  <distance_score>  (585) 
0.369065

>  <HIPPO Compound ID>  (585) 
104349

>  <gnina_score_min>  (585) 
5.113

>  <name>  (585) 
P66300

>  <exports>  (585) 
['/opt/xchem-fragalysis-2/maxwin/BulkDock/OUTPUTS/openbind_d68ev3c_c2_elabs_1LOTQJ3.sdf', '/opt/xchem-fragalysis-2/maxwin/BulkDock/OUTPUTS/openbind_d68ev3c_c2_elabs_1LSYEHW.sdf', '/opt/xchem-fragalysis-2/maxwin/BulkDock/OUTPUTS/openbind_d68ev3c_c2_elabs_1LSYI5W.sdf']

$$$$
P66301
     RDKit          3D

 22 23  0  0  0  0  0  0  0  0999 V2000
    2.7318   -3.6844   34.5449 C   0  0  0  0  0  0  0  0  0  0  0  0
    2.0144   -3.6571   35.8705 C   0  0  0  0  0  0  0  0  0  0  0  0
    0.9213   -4.5073   36.1201 C   0  0  0  0  0  0  0  0  0  0  0  0
    0.4309   -5.3357   35.1152 N   0  0  0  0  0  0  0  0  0  0  0  0
   -0.3895   -6.6423   35.2030 C   0  0  0  0  0  0  0  0  0  0  0  0
   -0.7156   -7.2679   36.1305 O   0  0  0  0  0  0  0  0  0  0  0  0
   -0.8249   -7.1681   33.8505 C   0  0  0  0  0  0  0  0  0  0  0  0
   -0.2135   -6.7496   32.6584 C   0  0  0  0  0  0  0  0  0  0  0  0
   -0.7236   -7.2016   31.4535 C   0  0  0  0  0  0  0  0  0  0  0  0
   -0.2380   -6.4882   29.9762 Cl  0  0  0  0  0  0  0  0  0  0  0  0
   -1.7159   -8.1019   31.3314 N   0  0  0  0  0  0  0  0  0  0  0  0
   -2.2355   -8.5557   32.4905 C   0  0  0  0  0  0  0  0  0  0  0  0
   -1.8705   -8.1030   33.7519 C   0  0  0  0  0  0  0  0  0  0  0  0
   -2.8754   -8.6532   35.0398 Cl  0  0  0  0  0  0  0  0  0  0  0  0
    0.3149   -4.5473   37.3808 C   0  0  0  0  0  0  0  0  0  0  0  0
    0.7691   -3.7199   38.3979 C   0  0  0  0  0  0  0  0  0  0  0  0
    0.1637   -3.7490   39.5919 F   0  0  0  0  0  0  0  0  0  0  0  0
    1.8272   -2.8537   38.1929 C   0  0  0  0  0  0  0  0  0  0  0  0
    2.4404   -2.8294   36.9343 C   0  0  0  0  0  0  0  0  0  0  0  0
    3.5448   -1.8921   36.7661 N   0  0  0  0  0  0  0  0  0  0  0  0
    3.5190   -1.1553   35.7699 O   0  0  0  0  0  0  0  0  0  0  0  0
    4.4123   -1.8642   37.6510 O   0  0  0  0  0  0  0  0  0  0  0  0
  1  2  1  0
  2  3  2  0
  3  4  1  0
  4  5  1  0
  5  6  2  0
  5  7  1  0
  7  8  2  0
  8  9  1  0
  9 10  1  0
  9 11  2  0
 11 12  1  0
 12 13  2  0
 13 14  1  0
  3 15  1  0
 15 16  2  0
 16 17  1  0
 16 18  1  0
 18 19  2  0
 19 20  1  0
 20 21  2  0
 20 22  1  0
 19  2  1  0
 13  7  1  0
M  CHG  2  20   1  22  -1
M  END
>  <ref_mols>  (586) 
7gov-a

>  <gnina_score>  (586) 
5.291

>  <smina_score_min>  (586) 
-6.176

>  <ref_pdb>  (586) 
7gov-a

>  <inspiration_score>  (586) 
None

>  <inchikey>  (586) 
MDJXGNWHQYCBJM-UHFFFAOYSA-N

>  <tags>  (586) 
BulkDock Fragalysis export,openbind_d68ev3c_c2_elabs_scored,openbind_d68ev3c_c2_elabs_scored_4.5plus,openbind_d68ev3c_c2_elabs,openbind_d68ev3c_c2_elabs_scored_5plus,syndirella_product,openbind_d68ev3c_c2_elabs_scored_top80percent,syndirella_placed

>  <smiles>  (586) 
Cc1c(NC(=O)c2cc(Cl)ncc2Cl)cc(F)cc1[N+](=O)[O-]

>  <subsites>  (586) 
None

>  <rmsd(smina/fragmenstein)>  (586) 
1.173

>  <alias>  (586) 
None

>  <energy_score>  (586) 
-19.95329

>  <HIPPO Pose ID>  (586) 
66301

>  <distance_score>  (586) 
0.601086

>  <HIPPO Compound ID>  (586) 
104352

>  <gnina_score_min>  (586) 
5.274

>  <name>  (586) 
P66301

>  <exports>  (586) 
['/opt/xchem-fragalysis-2/maxwin/BulkDock/OUTPUTS/openbind_d68ev3c_c2_elabs_1LOTQJ3.sdf', '/opt/xchem-fragalysis-2/maxwin/BulkDock/OUTPUTS/openbind_d68ev3c_c2_elabs_1LSYEHW.sdf', '/opt/xchem-fragalysis-2/maxwin/BulkDock/OUTPUTS/openbind_d68ev3c_c2_elabs_1LSYI5W.sdf']

$$$$
P66302
     RDKit          3D

 22 23  0  0  0  0  0  0  0  0999 V2000
    1.5228   -2.8541   33.2153 C   0  0  0  0  0  0  0  0  0  0  0  0
    2.4408   -3.2509   34.3415 C   0  0  0  0  0  0  0  0  0  0  0  0
    3.6543   -3.3338   34.1806 O   0  0  0  0  0  0  0  0  0  0  0  0
    1.8515   -3.4525   35.6851 C   0  0  0  0  0  0  0  0  0  0  0  0
    2.4113   -2.7000   36.7321 C   0  0  0  0  0  0  0  0  0  0  0  0
    1.9220   -2.8274   38.0328 C   0  0  0  0  0  0  0  0  0  0  0  0
    0.8931   -3.7240   38.2878 C   0  0  0  0  0  0  0  0  0  0  0  0
    0.3882   -3.8106   39.5267 F   0  0  0  0  0  0  0  0  0  0  0  0
    0.3716   -4.5106   37.2666 C   0  0  0  0  0  0  0  0  0  0  0  0
   -0.6489   -5.3353   37.5508 F   0  0  0  0  0  0  0  0  0  0  0  0
    0.8409   -4.3874   35.9499 C   0  0  0  0  0  0  0  0  0  0  0  0
    0.2860   -5.2027   34.9590 N   0  0  0  0  0  0  0  0  0  0  0  0
   -0.1204   -6.6892   34.9973 C   0  0  0  0  0  0  0  0  0  0  0  0
   -0.1280   -7.4465   35.8812 O   0  0  0  0  0  0  0  0  0  0  0  0
   -0.6700   -7.1674   33.6939 C   0  0  0  0  0  0  0  0  0  0  0  0
   -0.1119   -6.7486   32.4817 C   0  0  0  0  0  0  0  0  0  0  0  0
   -0.6986   -7.1932   31.3132 C   0  0  0  0  0  0  0  0  0  0  0  0
   -0.2741   -6.5167   29.8010 Cl  0  0  0  0  0  0  0  0  0  0  0  0
   -1.7256   -8.0653   31.2557 N   0  0  0  0  0  0  0  0  0  0  0  0
   -2.2014   -8.5005   32.4423 C   0  0  0  0  0  0  0  0  0  0  0  0
   -1.7498   -8.0590   33.6735 C   0  0  0  0  0  0  0  0  0  0  0  0
   -2.6781   -8.5364   35.0396 Cl  0  0  0  0  0  0  0  0  0  0  0  0
  1  2  1  0
  2  3  2  0
  2  4  1  0
  4  5  2  0
  5  6  1  0
  6  7  2  0
  7  8  1  0
  7  9  1  0
  9 10  1  0
  9 11  2  0
 11 12  1  0
 12 13  1  0
 13 14  2  0
 13 15  1  0
 15 16  2  0
 16 17  1  0
 17 18  1  0
 17 19  2  0
 19 20  1  0
 20 21  2  0
 21 22  1  0
 11  4  1  0
 21 15  1  0
M  END
>  <ref_mols>  (587) 
7gov-a

>  <gnina_score>  (587) 
5.451

>  <smina_score_min>  (587) 
-5.609

>  <ref_pdb>  (587) 
7gov-a

>  <inspiration_score>  (587) 
None

>  <inchikey>  (587) 
UDFSAEYULMUQER-UHFFFAOYSA-N

>  <tags>  (587) 
BulkDock Fragalysis export,openbind_d68ev3c_c2_elabs_scored,openbind_d68ev3c_c2_elabs_scored_4.5plus,openbind_d68ev3c_c2_elabs,openbind_d68ev3c_c2_elabs_scored_5plus,syndirella_product,openbind_d68ev3c_c2_elabs_scored_top80percent,syndirella_placed

>  <smiles>  (587) 
CC(=O)c1ccc(F)c(F)c1NC(=O)c1cc(Cl)ncc1Cl

>  <subsites>  (587) 
None

>  <rmsd(smina/fragmenstein)>  (587) 
1.299

>  <alias>  (587) 
None

>  <energy_score>  (587) 
-2.256762

>  <HIPPO Pose ID>  (587) 
66302

>  <distance_score>  (587) 
0.509439

>  <HIPPO Compound ID>  (587) 
104353

>  <gnina_score_min>  (587) 
5.428

>  <name>  (587) 
P66302

>  <exports>  (587) 
['/opt/xchem-fragalysis-2/maxwin/BulkDock/OUTPUTS/openbind_d68ev3c_c2_elabs_1LOTQJ3.sdf', '/opt/xchem-fragalysis-2/maxwin/BulkDock/OUTPUTS/openbind_d68ev3c_c2_elabs_1LSYEHW.sdf', '/opt/xchem-fragalysis-2/maxwin/BulkDock/OUTPUTS/openbind_d68ev3c_c2_elabs_1LSYI5W.sdf']

$$$$
P66318
     RDKit          3D

 22 23  0  0  0  0  0  0  0  0999 V2000
    3.2331   -3.4445   34.7797 C   0  0  0  0  0  0  0  0  0  0  0  0
    2.4222   -3.4495   36.0448 C   0  0  0  0  0  0  0  0  0  0  0  0
    2.8924   -2.7462   37.1637 C   0  0  0  0  0  0  0  0  0  0  0  0
    2.1792   -2.8005   38.3680 C   0  0  0  0  0  0  0  0  0  0  0  0
    2.7143   -2.1422   39.5375 N   0  0  0  0  0  0  0  0  0  0  0  0
    1.9513   -1.4210   40.1938 O   0  0  0  0  0  0  0  0  0  0  0  0
    3.9184   -2.3144   39.7840 O   0  0  0  0  0  0  0  0  0  0  0  0
    0.9920   -3.5067   38.4717 C   0  0  0  0  0  0  0  0  0  0  0  0
    0.3053   -3.5765   39.6204 F   0  0  0  0  0  0  0  0  0  0  0  0
    0.5102   -4.1922   37.3671 C   0  0  0  0  0  0  0  0  0  0  0  0
    1.2296   -4.1816   36.1647 C   0  0  0  0  0  0  0  0  0  0  0  0
    0.7549   -4.9194   35.0892 N   0  0  0  0  0  0  0  0  0  0  0  0
   -0.3291   -6.0040   35.0244 C   0  0  0  0  0  0  0  0  0  0  0  0
   -1.0530   -6.3999   35.8490 O   0  0  0  0  0  0  0  0  0  0  0  0
   -0.5002   -6.6065   33.6542 C   0  0  0  0  0  0  0  0  0  0  0  0
   -1.3899   -7.6838   33.6461 C   0  0  0  0  0  0  0  0  0  0  0  0
   -1.7818   -8.1999   32.4400 C   0  0  0  0  0  0  0  0  0  0  0  0
   -3.0493   -9.3020   32.3932 Cl  0  0  0  0  0  0  0  0  0  0  0  0
   -1.3330   -7.8164   31.2380 N   0  0  0  0  0  0  0  0  0  0  0  0
   -0.4066   -6.8368   31.2659 C   0  0  0  0  0  0  0  0  0  0  0  0
    0.0213   -6.1829   32.4237 C   0  0  0  0  0  0  0  0  0  0  0  0
    1.1175   -4.8776   32.1855 Cl  0  0  0  0  0  0  0  0  0  0  0  0
  1  2  1  0
  2  3  2  0
  3  4  1  0
  4  5  1  0
  5  6  2  0
  5  7  1  0
  4  8  2  0
  8  9  1  0
  8 10  1  0
 10 11  2  0
 11 12  1  0
 12 13  1  0
 13 14  2  0
 13 15  1  0
 15 16  2  0
 16 17  1  0
 17 18  1  0
 17 19  2  0
 19 20  1  0
 20 21  2  0
 21 22  1  0
 11  2  1  0
 21 15  1  0
M  CHG  2   5   1   7  -1
M  END
>  <ref_mols>  (588) 
7gov-a

>  <gnina_score>  (588) 
5.106

>  <smina_score_min>  (588) 
-5.366

>  <ref_pdb>  (588) 
7gov-a

>  <inspiration_score>  (588) 
None

>  <inchikey>  (588) 
CEXPRZQMEAOIMF-UHFFFAOYSA-N

>  <tags>  (588) 
BulkDock Fragalysis export,openbind_d68ev3c_c2_elabs_scored,openbind_d68ev3c_c2_elabs_scored_4.5plus,openbind_d68ev3c_c2_elabs,openbind_d68ev3c_c2_elabs_scored_5plus,syndirella_product,openbind_d68ev3c_c2_elabs_scored_top80percent,syndirella_placed

>  <smiles>  (588) 
Cc1cc([N+](=O)[O-])c(F)cc1NC(=O)c1cc(Cl)ncc1Cl

>  <subsites>  (588) 
None

>  <rmsd(smina/fragmenstein)>  (588) 
1.38

>  <alias>  (588) 
None

>  <energy_score>  (588) 
-27.257036

>  <HIPPO Pose ID>  (588) 
66318

>  <distance_score>  (588) 
0.83229

>  <HIPPO Compound ID>  (588) 
104392

>  <gnina_score_min>  (588) 
5.053

>  <name>  (588) 
P66318

>  <exports>  (588) 
['/opt/xchem-fragalysis-2/maxwin/BulkDock/OUTPUTS/openbind_d68ev3c_c2_elabs_1LOTQJ3.sdf', '/opt/xchem-fragalysis-2/maxwin/BulkDock/OUTPUTS/openbind_d68ev3c_c2_elabs_1LSYEHW.sdf', '/opt/xchem-fragalysis-2/maxwin/BulkDock/OUTPUTS/openbind_d68ev3c_c2_elabs_1LSYI5W.sdf']

$$$$
P66319
     RDKit          3D

 22 23  0  0  0  0  0  0  0  0999 V2000
    0.2832   -3.5058   39.7575 C   0  0  0  0  0  0  0  0  0  0  0  0
    1.0465   -3.4693   38.4650 C   0  0  0  0  0  0  0  0  0  0  0  0
    0.5425   -4.1758   37.3662 C   0  0  0  0  0  0  0  0  0  0  0  0
    1.2378   -4.1921   36.1542 C   0  0  0  0  0  0  0  0  0  0  0  0
    0.7724   -4.9318   35.0828 N   0  0  0  0  0  0  0  0  0  0  0  0
   -0.3195   -6.0046   35.0124 C   0  0  0  0  0  0  0  0  0  0  0  0
   -1.0583   -6.3863   35.8299 O   0  0  0  0  0  0  0  0  0  0  0  0
   -0.4838   -6.6066   33.6434 C   0  0  0  0  0  0  0  0  0  0  0  0
   -1.3703   -7.6860   33.6330 C   0  0  0  0  0  0  0  0  0  0  0  0
   -1.7625   -8.1968   32.4255 C   0  0  0  0  0  0  0  0  0  0  0  0
   -3.0225   -9.3077   32.3788 Cl  0  0  0  0  0  0  0  0  0  0  0  0
   -1.3176   -7.8049   31.2247 N   0  0  0  0  0  0  0  0  0  0  0  0
   -0.3918   -6.8232   31.2559 C   0  0  0  0  0  0  0  0  0  0  0  0
    0.0375   -6.1747   32.4158 C   0  0  0  0  0  0  0  0  0  0  0  0
    1.1333   -4.8651   32.1891 Cl  0  0  0  0  0  0  0  0  0  0  0  0
    2.4147   -3.4669   36.0042 C   0  0  0  0  0  0  0  0  0  0  0  0
    3.0612   -3.4922   34.8277 F   0  0  0  0  0  0  0  0  0  0  0  0
    2.9354   -2.7437   37.0636 C   0  0  0  0  0  0  0  0  0  0  0  0
    2.2540   -2.7645   38.2890 C   0  0  0  0  0  0  0  0  0  0  0  0
    2.8672   -2.0503   39.3995 N   0  0  0  0  0  0  0  0  0  0  0  0
    4.0535   -2.3062   39.6538 O   0  0  0  0  0  0  0  0  0  0  0  0
    2.1697   -1.2235   40.0025 O   0  0  0  0  0  0  0  0  0  0  0  0
  1  2  1  0
  2  3  2  0
  3  4  1  0
  4  5  1  0
  5  6  1  0
  6  7  2  0
  6  8  1  0
  8  9  2  0
  9 10  1  0
 10 11  1  0
 10 12  2  0
 12 13  1  0
 13 14  2  0
 14 15  1  0
  4 16  2  0
 16 17  1  0
 16 18  1  0
 18 19  2  0
 19 20  1  0
 20 21  2  0
 20 22  1  0
 19  2  1  0
 14  8  1  0
M  CHG  2  20   1  22  -1
M  END
>  <ref_mols>  (589) 
7gov-a

>  <gnina_score>  (589) 
5.125

>  <smina_score_min>  (589) 
-5.356

>  <ref_pdb>  (589) 
7gov-a

>  <inspiration_score>  (589) 
None

>  <inchikey>  (589) 
FAOZLXLCZBHLJW-UHFFFAOYSA-N

>  <tags>  (589) 
BulkDock Fragalysis export,openbind_d68ev3c_c2_elabs_scored,openbind_d68ev3c_c2_elabs_scored_4.5plus,openbind_d68ev3c_c2_elabs,openbind_d68ev3c_c2_elabs_scored_5plus,syndirella_product,openbind_d68ev3c_c2_elabs_scored_top80percent,syndirella_placed

>  <smiles>  (589) 
Cc1cc(NC(=O)c2cc(Cl)ncc2Cl)c(F)cc1[N+](=O)[O-]

>  <subsites>  (589) 
None

>  <rmsd(smina/fragmenstein)>  (589) 
1.384

>  <alias>  (589) 
None

>  <energy_score>  (589) 
-33.440582

>  <HIPPO Pose ID>  (589) 
66319

>  <distance_score>  (589) 
0.836357

>  <HIPPO Compound ID>  (589) 
104393

>  <gnina_score_min>  (589) 
5.104

>  <name>  (589) 
P66319

>  <exports>  (589) 
['/opt/xchem-fragalysis-2/maxwin/BulkDock/OUTPUTS/openbind_d68ev3c_c2_elabs_1LOTQJ3.sdf', '/opt/xchem-fragalysis-2/maxwin/BulkDock/OUTPUTS/openbind_d68ev3c_c2_elabs_1LSYEHW.sdf', '/opt/xchem-fragalysis-2/maxwin/BulkDock/OUTPUTS/openbind_d68ev3c_c2_elabs_1LSYI5W.sdf']

$$$$
P66320
     RDKit          3D

 22 23  0  0  0  0  0  0  0  0999 V2000
    4.0521   -4.9298   34.6197 C   0  0  0  0  0  0  0  0  0  0  0  0
    3.3925   -3.6070   34.9133 C   0  0  0  0  0  0  0  0  0  0  0  0
    3.6253   -2.5948   34.2584 O   0  0  0  0  0  0  0  0  0  0  0  0
    2.4894   -3.5181   36.0784 C   0  0  0  0  0  0  0  0  0  0  0  0
    2.8624   -2.6555   37.1139 C   0  0  0  0  0  0  0  0  0  0  0  0
    2.0961   -2.6142   38.2730 C   0  0  0  0  0  0  0  0  0  0  0  0
    2.4703   -1.8095   39.2776 F   0  0  0  0  0  0  0  0  0  0  0  0
    0.9577   -3.4006   38.3959 C   0  0  0  0  0  0  0  0  0  0  0  0
    0.2240   -3.3638   39.5169 F   0  0  0  0  0  0  0  0  0  0  0  0
    0.5600   -4.2280   37.3542 C   0  0  0  0  0  0  0  0  0  0  0  0
    1.3258   -4.2904   36.1842 C   0  0  0  0  0  0  0  0  0  0  0  0
    0.8919   -5.0860   35.1298 N   0  0  0  0  0  0  0  0  0  0  0  0
   -0.2441   -6.1136   35.0582 C   0  0  0  0  0  0  0  0  0  0  0  0
   -0.9520   -6.5171   35.8922 O   0  0  0  0  0  0  0  0  0  0  0  0
   -0.4682   -6.6637   33.6750 C   0  0  0  0  0  0  0  0  0  0  0  0
   -1.3687   -7.7307   33.6560 C   0  0  0  0  0  0  0  0  0  0  0  0
   -1.7879   -8.2089   32.4436 C   0  0  0  0  0  0  0  0  0  0  0  0
   -3.0668   -9.2976   32.3916 Cl  0  0  0  0  0  0  0  0  0  0  0  0
   -1.3568   -7.7975   31.2438 N   0  0  0  0  0  0  0  0  0  0  0  0
   -0.4294   -6.8186   31.2792 C   0  0  0  0  0  0  0  0  0  0  0  0
    0.0216   -6.1984   32.4460 C   0  0  0  0  0  0  0  0  0  0  0  0
    1.0974   -4.8723   32.2280 Cl  0  0  0  0  0  0  0  0  0  0  0  0
  1  2  1  0
  2  3  2  0
  2  4  1  0
  4  5  2  0
  5  6  1  0
  6  7  1  0
  6  8  2  0
  8  9  1  0
  8 10  1  0
 10 11  2  0
 11 12  1  0
 12 13  1  0
 13 14  2  0
 13 15  1  0
 15 16  2  0
 16 17  1  0
 17 18  1  0
 17 19  2  0
 19 20  1  0
 20 21  2  0
 21 22  1  0
 11  4  1  0
 21 15  1  0
M  END
>  <ref_mols>  (590) 
7gov-a

>  <gnina_score>  (590) 
5.213

>  <smina_score_min>  (590) 
-5.198

>  <ref_pdb>  (590) 
7gov-a

>  <inspiration_score>  (590) 
None

>  <inchikey>  (590) 
YRQKKTAAZNPGTH-UHFFFAOYSA-N

>  <tags>  (590) 
BulkDock Fragalysis export,openbind_d68ev3c_c2_elabs_scored,openbind_d68ev3c_c2_elabs_scored_4.5plus,openbind_d68ev3c_c2_elabs,openbind_d68ev3c_c2_elabs_scored_5plus,syndirella_product,openbind_d68ev3c_c2_elabs_scored_top80percent,syndirella_placed

>  <smiles>  (590) 
CC(=O)c1cc(F)c(F)cc1NC(=O)c1cc(Cl)ncc1Cl

>  <subsites>  (590) 
None

>  <rmsd(smina/fragmenstein)>  (590) 
0.938

>  <alias>  (590) 
None

>  <energy_score>  (590) 
-19.094493

>  <HIPPO Pose ID>  (590) 
66320

>  <distance_score>  (590) 
0.817206

>  <HIPPO Compound ID>  (590) 
104394

>  <gnina_score_min>  (590) 
5.193

>  <name>  (590) 
P66320

>  <exports>  (590) 
['/opt/xchem-fragalysis-2/maxwin/BulkDock/OUTPUTS/openbind_d68ev3c_c2_elabs_1LOTQJ3.sdf', '/opt/xchem-fragalysis-2/maxwin/BulkDock/OUTPUTS/openbind_d68ev3c_c2_elabs_1LSYEHW.sdf', '/opt/xchem-fragalysis-2/maxwin/BulkDock/OUTPUTS/openbind_d68ev3c_c2_elabs_1LSYI5W.sdf']

$$$$
P66321
     RDKit          3D

 22 23  0  0  0  0  0  0  0  0999 V2000
    4.0340   -3.2396   34.3748 C   0  0  0  0  0  0  0  0  0  0  0  0
    2.5793   -3.6098   34.4998 C   0  0  0  0  0  0  0  0  0  0  0  0
    1.9048   -3.9013   33.5110 O   0  0  0  0  0  0  0  0  0  0  0  0
    1.9487   -3.6060   35.8544 C   0  0  0  0  0  0  0  0  0  0  0  0
    2.4720   -2.8067   36.8802 C   0  0  0  0  0  0  0  0  0  0  0  0
    1.9064   -2.8585   38.1567 C   0  0  0  0  0  0  0  0  0  0  0  0
    2.6269   -1.7780   39.5326 Br  0  0  0  0  0  0  0  0  0  0  0  0
    0.8263   -3.6992   38.4118 C   0  0  0  0  0  0  0  0  0  0  0  0
    0.2601   -3.7420   39.6266 F   0  0  0  0  0  0  0  0  0  0  0  0
    0.3044   -4.5023   37.4061 C   0  0  0  0  0  0  0  0  0  0  0  0
    0.8568   -4.4517   36.1245 C   0  0  0  0  0  0  0  0  0  0  0  0
    0.3095   -5.2437   35.1225 N   0  0  0  0  0  0  0  0  0  0  0  0
   -0.4240   -6.5988   35.2043 C   0  0  0  0  0  0  0  0  0  0  0  0
   -0.7513   -7.2251   36.1306 O   0  0  0  0  0  0  0  0  0  0  0  0
   -0.8271   -7.1454   33.8475 C   0  0  0  0  0  0  0  0  0  0  0  0
   -0.2218   -6.7194   32.6544 C   0  0  0  0  0  0  0  0  0  0  0  0
   -0.7180   -7.1880   31.4496 C   0  0  0  0  0  0  0  0  0  0  0  0
   -0.2369   -6.4808   29.9673 Cl  0  0  0  0  0  0  0  0  0  0  0  0
   -1.6937   -8.1081   31.3272 N   0  0  0  0  0  0  0  0  0  0  0  0
   -2.2104   -8.5629   32.4864 C   0  0  0  0  0  0  0  0  0  0  0  0
   -1.8572   -8.0985   33.7470 C   0  0  0  0  0  0  0  0  0  0  0  0
   -2.8644   -8.6578   35.0308 Cl  0  0  0  0  0  0  0  0  0  0  0  0
  1  2  1  0
  2  3  2  0
  2  4  1  0
  4  5  2  0
  5  6  1  0
  6  7  1  0
  6  8  2  0
  8  9  1  0
  8 10  1  0
 10 11  2  0
 11 12  1  0
 12 13  1  0
 13 14  2  0
 13 15  1  0
 15 16  2  0
 16 17  1  0
 17 18  1  0
 17 19  2  0
 19 20  1  0
 20 21  2  0
 21 22  1  0
 11  4  1  0
 21 15  1  0
M  END
>  <ref_mols>  (591) 
7gov-a

>  <gnina_score>  (591) 
5.4

>  <smina_score_min>  (591) 
-6.079

>  <ref_pdb>  (591) 
7gov-a

>  <inspiration_score>  (591) 
None

>  <inchikey>  (591) 
WHGJXPRIZDPEPQ-UHFFFAOYSA-N

>  <tags>  (591) 
BulkDock Fragalysis export,openbind_d68ev3c_c2_elabs_scored,openbind_d68ev3c_c2_elabs_scored_4.5plus,openbind_d68ev3c_c2_elabs,openbind_d68ev3c_c2_elabs_scored_5plus,syndirella_product,openbind_d68ev3c_c2_elabs_scored_top80percent,syndirella_placed

>  <smiles>  (591) 
CC(=O)c1cc(Br)c(F)cc1NC(=O)c1cc(Cl)ncc1Cl

>  <subsites>  (591) 
None

>  <rmsd(smina/fragmenstein)>  (591) 
1.085

>  <alias>  (591) 
None

>  <energy_score>  (591) 
-15.24043

>  <HIPPO Pose ID>  (591) 
66321

>  <distance_score>  (591) 
0.614183

>  <HIPPO Compound ID>  (591) 
104399

>  <gnina_score_min>  (591) 
5.299

>  <name>  (591) 
P66321

>  <exports>  (591) 
['/opt/xchem-fragalysis-2/maxwin/BulkDock/OUTPUTS/openbind_d68ev3c_c2_elabs_1LOTQJ3.sdf', '/opt/xchem-fragalysis-2/maxwin/BulkDock/OUTPUTS/openbind_d68ev3c_c2_elabs_1LSYEHW.sdf', '/opt/xchem-fragalysis-2/maxwin/BulkDock/OUTPUTS/openbind_d68ev3c_c2_elabs_1LSYI5W.sdf']

$$$$
P66323
     RDKit          3D

 22 23  0  0  0  0  0  0  0  0999 V2000
   -1.5393   -6.4850   35.7705 O   0  0  0  0  0  0  0  0  0  0  0  0
   -0.7029   -6.2825   34.9811 C   0  0  0  0  0  0  0  0  0  0  0  0
    0.5665   -5.4048   35.0695 N   0  0  0  0  0  0  0  0  0  0  0  0
    1.0083   -4.5456   36.0809 C   0  0  0  0  0  0  0  0  0  0  0  0
    0.2501   -4.4208   37.2519 C   0  0  0  0  0  0  0  0  0  0  0  0
    0.6669   -3.5704   38.2686 C   0  0  0  0  0  0  0  0  0  0  0  0
   -0.0529   -3.4840   39.3950 F   0  0  0  0  0  0  0  0  0  0  0  0
    1.8164   -2.8091   38.1356 C   0  0  0  0  0  0  0  0  0  0  0  0
    2.5687   -2.9118   36.9675 C   0  0  0  0  0  0  0  0  0  0  0  0
    2.1871   -3.7925   35.9331 C   0  0  0  0  0  0  0  0  0  0  0  0
    3.0425   -3.8516   34.6961 C   0  0  0  0  0  0  0  0  0  0  0  0
    3.0133   -5.0586   34.0641 F   0  0  0  0  0  0  0  0  0  0  0  0
    4.3605   -3.5832   34.9210 F   0  0  0  0  0  0  0  0  0  0  0  0
    2.6457   -2.9423   33.7593 F   0  0  0  0  0  0  0  0  0  0  0  0
   -0.8667   -6.9575   33.6540 C   0  0  0  0  0  0  0  0  0  0  0  0
   -1.6034   -8.1474   33.6594 C   0  0  0  0  0  0  0  0  0  0  0  0
   -2.0502   -8.7079   34.7895 F   0  0  0  0  0  0  0  0  0  0  0  0
   -1.9129   -8.7692   32.4665 C   0  0  0  0  0  0  0  0  0  0  0  0
   -1.5260   -8.3100   31.2592 N   0  0  0  0  0  0  0  0  0  0  0  0
   -0.7775   -7.1803   31.2682 C   0  0  0  0  0  0  0  0  0  0  0  0
   -0.4511   -6.4570   32.4149 C   0  0  0  0  0  0  0  0  0  0  0  0
    0.3522   -4.9536   32.1689 Cl  0  0  0  0  0  0  0  0  0  0  0  0
  1  2  2  0
  2  3  1  0
  3  4  1  0
  4  5  2  0
  5  6  1  0
  6  7  1  0
  6  8  2  0
  8  9  1  0
  9 10  2  0
 10 11  1  0
 11 12  1  0
 11 13  1  0
 11 14  1  0
  2 15  1  0
 15 16  2  0
 16 17  1  0
 16 18  1  0
 18 19  2  0
 19 20  1  0
 20 21  2  0
 21 22  1  0
 10  4  1  0
 21 15  1  0
M  END
>  <ref_mols>  (592) 
7gov-a

>  <gnina_score>  (592) 
5.153

>  <smina_score_min>  (592) 
-5.83

>  <ref_pdb>  (592) 
7gov-a

>  <inspiration_score>  (592) 
None

>  <inchikey>  (592) 
IJEFTVHZLYOARH-UHFFFAOYSA-N

>  <tags>  (592) 
BulkDock Fragalysis export,openbind_d68ev3c_c2_elabs_scored,openbind_d68ev3c_c2_elabs_scored_4.5plus,openbind_d68ev3c_c2_elabs,openbind_d68ev3c_c2_elabs_scored_5plus,syndirella_product,openbind_d68ev3c_c2_elabs_scored_top80percent,syndirella_placed

>  <smiles>  (592) 
O=C(Nc1cc(F)ccc1C(F)(F)F)c1c(F)cncc1Cl

>  <subsites>  (592) 
None

>  <rmsd(smina/fragmenstein)>  (592) 
1.254

>  <alias>  (592) 
None

>  <energy_score>  (592) 
-28.90204

>  <HIPPO Pose ID>  (592) 
66323

>  <distance_score>  (592) 
0.766531

>  <HIPPO Compound ID>  (592) 
104407

>  <gnina_score_min>  (592) 
5.024

>  <name>  (592) 
P66323

>  <exports>  (592) 
['/opt/xchem-fragalysis-2/maxwin/BulkDock/OUTPUTS/openbind_d68ev3c_c2_elabs_1LOTQJ3.sdf', '/opt/xchem-fragalysis-2/maxwin/BulkDock/OUTPUTS/openbind_d68ev3c_c2_elabs_1LSYEHW.sdf', '/opt/xchem-fragalysis-2/maxwin/BulkDock/OUTPUTS/openbind_d68ev3c_c2_elabs_1LSYI5W.sdf']

$$$$
P66338
     RDKit          3D

 22 23  0  0  0  0  0  0  0  0999 V2000
    3.9796   -3.2257   34.2943 C   0  0  0  0  0  0  0  0  0  0  0  0
    2.5060   -3.5167   34.4057 C   0  0  0  0  0  0  0  0  0  0  0  0
    1.8081   -3.7006   33.4081 O   0  0  0  0  0  0  0  0  0  0  0  0
    1.8890   -3.5594   35.7618 C   0  0  0  0  0  0  0  0  0  0  0  0
    2.3943   -2.7524   36.7939 C   0  0  0  0  0  0  0  0  0  0  0  0
    1.8529   -2.8367   38.0792 C   0  0  0  0  0  0  0  0  0  0  0  0
    0.8214   -3.7333   38.3335 C   0  0  0  0  0  0  0  0  0  0  0  0
    0.2887   -3.7857   39.5625 F   0  0  0  0  0  0  0  0  0  0  0  0
    0.3263   -4.5487   37.3235 C   0  0  0  0  0  0  0  0  0  0  0  0
   -0.7020   -5.3657   37.5992 F   0  0  0  0  0  0  0  0  0  0  0  0
    0.8442   -4.4597   36.0267 C   0  0  0  0  0  0  0  0  0  0  0  0
    0.3148   -5.2468   35.0077 N   0  0  0  0  0  0  0  0  0  0  0  0
   -0.1340   -6.7190   35.0122 C   0  0  0  0  0  0  0  0  0  0  0  0
   -0.2038   -7.4837   35.8870 O   0  0  0  0  0  0  0  0  0  0  0  0
   -0.6451   -7.1654   33.6722 C   0  0  0  0  0  0  0  0  0  0  0  0
   -0.0356   -6.7163   32.4942 C   0  0  0  0  0  0  0  0  0  0  0  0
   -0.5264   -7.1550   31.2778 C   0  0  0  0  0  0  0  0  0  0  0  0
   -1.5631   -8.0018   31.1559 N   0  0  0  0  0  0  0  0  0  0  0  0
   -2.0966   -8.4546   32.3077 C   0  0  0  0  0  0  0  0  0  0  0  0
   -3.1090   -9.3235   32.1808 F   0  0  0  0  0  0  0  0  0  0  0  0
   -1.7070   -8.0789   33.5819 C   0  0  0  0  0  0  0  0  0  0  0  0
   -2.4404   -8.7271   34.7132 C   0  0  0  0  0  0  0  0  0  0  0  0
  1  2  1  0
  2  3  2  0
  2  4  1  0
  4  5  2  0
  5  6  1  0
  6  7  2  0
  7  8  1  0
  7  9  1  0
  9 10  1  0
  9 11  2  0
 11 12  1  0
 12 13  1  0
 13 14  2  0
 13 15  1  0
 15 16  2  0
 16 17  1  0
 17 18  2  0
 18 19  1  0
 19 20  1  0
 19 21  2  0
 21 22  1  0
 11  4  1  0
 21 15  1  0
M  END
>  <ref_mols>  (593) 
7gov-a

>  <gnina_score>  (593) 
5.127

>  <smina_score_min>  (593) 
-5.877

>  <ref_pdb>  (593) 
7gov-a

>  <inspiration_score>  (593) 
None

>  <inchikey>  (593) 
QDXVVJZXKANFGF-UHFFFAOYSA-N

>  <tags>  (593) 
BulkDock Fragalysis export,openbind_d68ev3c_c2_elabs_scored,openbind_d68ev3c_c2_elabs_scored_4.5plus,openbind_d68ev3c_c2_elabs,openbind_d68ev3c_c2_elabs_scored_5plus,syndirella_product,openbind_d68ev3c_c2_elabs_scored_top80percent,syndirella_placed

>  <smiles>  (593) 
CC(=O)c1ccc(F)c(F)c1NC(=O)c1ccnc(F)c1C

>  <subsites>  (593) 
None

>  <rmsd(smina/fragmenstein)>  (593) 
0.895

>  <alias>  (593) 
None

>  <energy_score>  (593) 
-16.095032

>  <HIPPO Pose ID>  (593) 
66338

>  <distance_score>  (593) 
0.501408

>  <HIPPO Compound ID>  (593) 
104467

>  <gnina_score_min>  (593) 
5.157

>  <name>  (593) 
P66338

>  <exports>  (593) 
['/opt/xchem-fragalysis-2/maxwin/BulkDock/OUTPUTS/openbind_d68ev3c_c2_elabs_1LOTQJ3.sdf', '/opt/xchem-fragalysis-2/maxwin/BulkDock/OUTPUTS/openbind_d68ev3c_c2_elabs_1LSYEHW.sdf', '/opt/xchem-fragalysis-2/maxwin/BulkDock/OUTPUTS/openbind_d68ev3c_c2_elabs_1LSYI5W.sdf']

$$$$
P66344
     RDKit          3D

 22 24  0  0  0  0  0  0  0  0999 V2000
    0.8490   -6.3768   35.2424 O   0  0  0  0  0  0  0  0  0  0  0  0
    0.4915   -5.9235   34.2303 C   0  0  0  0  0  0  0  0  0  0  0  0
    0.5114   -4.4696   33.7258 N   0  0  0  0  0  0  0  0  0  0  0  0
    0.8879   -3.2503   34.3965 C   0  0  1  0  0  0  0  0  0  0  0  0
   -0.4008   -2.4109   34.1519 C   0  0  0  0  0  0  0  0  0  0  0  0
   -0.8625   -2.0926   33.0629 O   0  0  0  0  0  0  0  0  0  0  0  0
   -1.0044   -2.1807   35.3718 N   0  0  0  0  0  0  0  0  0  0  0  0
   -0.2274   -2.6873   36.3951 C   0  0  0  0  0  0  0  0  0  0  0  0
   -0.5237   -2.6172   37.7376 C   0  0  0  0  0  0  0  0  0  0  0  0
    0.4460   -3.0915   38.6014 C   0  0  0  0  0  0  0  0  0  0  0  0
    0.2085   -3.0908   39.9182 F   0  0  0  0  0  0  0  0  0  0  0  0
    1.6735   -3.5588   38.1280 C   0  0  0  0  0  0  0  0  0  0  0  0
    1.9248   -3.6711   36.7550 C   0  0  0  0  0  0  0  0  0  0  0  0
    0.9386   -3.2589   35.8874 C   0  0  0  0  0  0  0  0  0  0  0  0
   -0.1973   -6.7907   33.2316 C   0  0  0  0  0  0  0  0  0  0  0  0
    0.0984   -6.6635   31.8774 C   0  0  0  0  0  0  0  0  0  0  0  0
    1.0194   -5.7962   31.4329 F   0  0  0  0  0  0  0  0  0  0  0  0
   -0.6107   -7.4174   30.9603 C   0  0  0  0  0  0  0  0  0  0  0  0
   -1.5951   -8.2853   31.2961 N   0  0  0  0  0  0  0  0  0  0  0  0
   -1.8496   -8.4082   32.6219 C   0  0  0  0  0  0  0  0  0  0  0  0
   -1.1974   -7.6865   33.6160 C   0  0  0  0  0  0  0  0  0  0  0  0
   -1.7550   -7.8714   35.2290 Cl  0  0  0  0  0  0  0  0  0  0  0  0
  1  2  2  0
  2  3  1  0
  4  3  1  1
  4  5  1  0
  5  6  2  0
  5  7  1  0
  7  8  1  0
  8  9  2  0
  9 10  1  0
 10 11  1  0
 10 12  2  0
 12 13  1  0
 13 14  2  0
  2 15  1  0
 15 16  2  0
 16 17  1  0
 16 18  1  0
 18 19  2  0
 19 20  1  0
 20 21  2  0
 21 22  1  0
 14  4  1  0
 21 15  1  0
 14  8  1  0
M  END
>  <ref_mols>  (594) 
7gov-a

>  <gnina_score>  (594) 
5.222

>  <smina_score_min>  (594) 
-5.726

>  <ref_pdb>  (594) 
7gov-a

>  <inspiration_score>  (594) 
None

>  <inchikey>  (594) 
BYCZQQOPXINWNS-GFCCVEGCSA-N

>  <tags>  (594) 
BulkDock Fragalysis export,openbind_d68ev3c_c2_elabs_scored,openbind_d68ev3c_c2_elabs_scored_4.5plus,openbind_d68ev3c_c2_elabs,openbind_d68ev3c_c2_elabs_scored_5plus,syndirella_product,openbind_d68ev3c_c2_elabs_scored_top80percent,syndirella_placed

>  <smiles>  (594) 
O=C(N[C@H]1C(=O)Nc2cc(F)ccc21)c1c(F)cncc1Cl

>  <subsites>  (594) 
None

>  <rmsd(smina/fragmenstein)>  (594) 
1.042

>  <alias>  (594) 
None

>  <energy_score>  (594) 
-2.437791

>  <HIPPO Pose ID>  (594) 
66344

>  <distance_score>  (594) 
1.538637

>  <HIPPO Compound ID>  (594) 
104475

>  <gnina_score_min>  (594) 
5.033

>  <name>  (594) 
P66344

>  <exports>  (594) 
['/opt/xchem-fragalysis-2/maxwin/BulkDock/OUTPUTS/openbind_d68ev3c_c2_elabs_1LOTQJ3.sdf', '/opt/xchem-fragalysis-2/maxwin/BulkDock/OUTPUTS/openbind_d68ev3c_c2_elabs_1LSYEHW.sdf', '/opt/xchem-fragalysis-2/maxwin/BulkDock/OUTPUTS/openbind_d68ev3c_c2_elabs_1LSYI5W.sdf']

$$$$
P66346
     RDKit          3D

 22 23  0  0  0  0  0  0  0  0999 V2000
    1.1211   -2.6635   32.0705 C   0  0  0  0  0  0  0  0  0  0  0  0
    0.8720   -3.1422   33.3950 O   0  0  0  0  0  0  0  0  0  0  0  0
    1.5887   -2.4953   34.3540 C   0  0  0  0  0  0  0  0  0  0  0  0
    2.3731   -1.5828   34.1385 O   0  0  0  0  0  0  0  0  0  0  0  0
    1.2705   -2.9908   35.7268 C   0  0  0  0  0  0  0  0  0  0  0  0
    1.7529   -2.2075   36.7928 C   0  0  0  0  0  0  0  0  0  0  0  0
    1.4880   -2.5604   38.1160 C   0  0  0  0  0  0  0  0  0  0  0  0
    0.7486   -3.7024   38.3785 C   0  0  0  0  0  0  0  0  0  0  0  0
    0.4300   -4.0040   39.6435 F   0  0  0  0  0  0  0  0  0  0  0  0
    0.3141   -4.5250   37.3475 C   0  0  0  0  0  0  0  0  0  0  0  0
    0.5792   -4.1836   36.0174 C   0  0  0  0  0  0  0  0  0  0  0  0
    0.1494   -5.0426   35.0095 N   0  0  0  0  0  0  0  0  0  0  0  0
   -0.2225   -6.5422   35.0593 C   0  0  0  0  0  0  0  0  0  0  0  0
   -0.1532   -7.3092   35.9351 O   0  0  0  0  0  0  0  0  0  0  0  0
   -0.7204   -7.0419   33.7438 C   0  0  0  0  0  0  0  0  0  0  0  0
   -0.1328   -6.5978   32.5549 C   0  0  0  0  0  0  0  0  0  0  0  0
   -0.6363   -7.0419   31.3376 C   0  0  0  0  0  0  0  0  0  0  0  0
   -0.1129   -6.4376   30.0688 C   0  0  0  0  0  0  0  0  0  0  0  0
   -1.6434   -7.9436   31.2506 N   0  0  0  0  0  0  0  0  0  0  0  0
   -2.1414   -8.4141   32.4205 C   0  0  0  0  0  0  0  0  0  0  0  0
   -1.7494   -7.9796   33.6756 C   0  0  0  0  0  0  0  0  0  0  0  0
   -2.6744   -8.5304   35.0157 Cl  0  0  0  0  0  0  0  0  0  0  0  0
  1  2  1  0
  2  3  1  0
  3  4  2  0
  3  5  1  0
  5  6  2  0
  6  7  1  0
  7  8  2  0
  8  9  1  0
  8 10  1  0
 10 11  2  0
 11 12  1  0
 12 13  1  0
 13 14  2  0
 13 15  1  0
 15 16  2  0
 16 17  1  0
 17 18  1  0
 17 19  2  0
 19 20  1  0
 20 21  2  0
 21 22  1  0
 11  5  1  0
 21 15  1  0
M  END
>  <ref_mols>  (595) 
7gov-a

>  <gnina_score>  (595) 
5.023

>  <smina_score_min>  (595) 
-5.901

>  <ref_pdb>  (595) 
7gov-a

>  <inspiration_score>  (595) 
None

>  <inchikey>  (595) 
IHJDZDWLECOHIY-UHFFFAOYSA-N

>  <tags>  (595) 
BulkDock Fragalysis export,openbind_d68ev3c_c2_elabs_scored,openbind_d68ev3c_c2_elabs_scored_4.5plus,openbind_d68ev3c_c2_elabs,openbind_d68ev3c_c2_elabs_scored_5plus,syndirella_product,openbind_d68ev3c_c2_elabs_scored_top80percent,syndirella_placed

>  <smiles>  (595) 
COC(=O)c1ccc(F)cc1NC(=O)c1cc(C)ncc1Cl

>  <subsites>  (595) 
None

>  <rmsd(smina/fragmenstein)>  (595) 
1.271

>  <alias>  (595) 
None

>  <energy_score>  (595) 
-24.405795

>  <HIPPO Pose ID>  (595) 
66346

>  <distance_score>  (595) 
0.813804

>  <HIPPO Compound ID>  (595) 
104486

>  <gnina_score_min>  (595) 
5.11

>  <name>  (595) 
P66346

>  <exports>  (595) 
['/opt/xchem-fragalysis-2/maxwin/BulkDock/OUTPUTS/openbind_d68ev3c_c2_elabs_1LOTQJ3.sdf', '/opt/xchem-fragalysis-2/maxwin/BulkDock/OUTPUTS/openbind_d68ev3c_c2_elabs_1LSYEHW.sdf', '/opt/xchem-fragalysis-2/maxwin/BulkDock/OUTPUTS/openbind_d68ev3c_c2_elabs_1LSYI5W.sdf']

$$$$
P66348
     RDKit          3D

 22 23  0  0  0  0  0  0  0  0999 V2000
    4.0025   -5.0001   34.5648 C   0  0  0  0  0  0  0  0  0  0  0  0
    3.3594   -3.6691   34.8579 C   0  0  0  0  0  0  0  0  0  0  0  0
    3.6012   -2.6612   34.1990 O   0  0  0  0  0  0  0  0  0  0  0  0
    2.4652   -3.5656   36.0291 C   0  0  0  0  0  0  0  0  0  0  0  0
    2.8488   -2.6867   37.0499 C   0  0  0  0  0  0  0  0  0  0  0  0
    2.0998   -2.6283   38.2246 C   0  0  0  0  0  0  0  0  0  0  0  0
    2.6526   -1.4814   39.6226 Br  0  0  0  0  0  0  0  0  0  0  0  0
    0.9642   -3.4203   38.3662 C   0  0  0  0  0  0  0  0  0  0  0  0
    0.2328   -3.3860   39.4902 F   0  0  0  0  0  0  0  0  0  0  0  0
    0.5593   -4.2631   37.3382 C   0  0  0  0  0  0  0  0  0  0  0  0
    1.3076   -4.3407   36.1586 C   0  0  0  0  0  0  0  0  0  0  0  0
    0.8635   -5.1576   35.1227 N   0  0  0  0  0  0  0  0  0  0  0  0
   -0.3331   -6.1169   35.0513 C   0  0  0  0  0  0  0  0  0  0  0  0
   -1.0961   -6.4366   35.8738 O   0  0  0  0  0  0  0  0  0  0  0  0
   -0.5559   -6.7002   33.6803 C   0  0  0  0  0  0  0  0  0  0  0  0
   -1.4788   -7.7501   33.6805 C   0  0  0  0  0  0  0  0  0  0  0  0
   -1.9392   -8.2591   32.4835 C   0  0  0  0  0  0  0  0  0  0  0  0
   -3.0903   -9.1914   32.5008 C   0  0  0  0  0  0  0  0  0  0  0  0
   -1.4689   -7.8799   31.2812 N   0  0  0  0  0  0  0  0  0  0  0  0
   -0.5154   -6.9209   31.2961 C   0  0  0  0  0  0  0  0  0  0  0  0
   -0.0568   -6.2760   32.4448 C   0  0  0  0  0  0  0  0  0  0  0  0
    1.0290   -4.9624   32.1989 Cl  0  0  0  0  0  0  0  0  0  0  0  0
  1  2  1  0
  2  3  2  0
  2  4  1  0
  4  5  2  0
  5  6  1  0
  6  7  1  0
  6  8  2  0
  8  9  1  0
  8 10  1  0
 10 11  2  0
 11 12  1  0
 12 13  1  0
 13 14  2  0
 13 15  1  0
 15 16  2  0
 16 17  1  0
 17 18  1  0
 17 19  2  0
 19 20  1  0
 20 21  2  0
 21 22  1  0
 11  4  1  0
 21 15  1  0
M  END
>  <ref_mols>  (596) 
7gov-a

>  <gnina_score>  (596) 
5.112

>  <smina_score_min>  (596) 
-5.146

>  <ref_pdb>  (596) 
7gov-a

>  <inspiration_score>  (596) 
None

>  <inchikey>  (596) 
XBRYMLWVKRLUPJ-UHFFFAOYSA-N

>  <tags>  (596) 
BulkDock Fragalysis export,openbind_d68ev3c_c2_elabs_scored,openbind_d68ev3c_c2_elabs_scored_4.5plus,openbind_d68ev3c_c2_elabs,openbind_d68ev3c_c2_elabs_scored_5plus,syndirella_product,openbind_d68ev3c_c2_elabs_scored_top80percent,syndirella_placed

>  <smiles>  (596) 
CC(=O)c1cc(Br)c(F)cc1NC(=O)c1cc(C)ncc1Cl

>  <subsites>  (596) 
None

>  <rmsd(smina/fragmenstein)>  (596) 
0.557

>  <alias>  (596) 
None

>  <energy_score>  (596) 
-16.015097

>  <HIPPO Pose ID>  (596) 
66348

>  <distance_score>  (596) 
0.807505

>  <HIPPO Compound ID>  (596) 
104490

>  <gnina_score_min>  (596) 
5.053

>  <name>  (596) 
P66348

>  <exports>  (596) 
['/opt/xchem-fragalysis-2/maxwin/BulkDock/OUTPUTS/openbind_d68ev3c_c2_elabs_1LOTQJ3.sdf', '/opt/xchem-fragalysis-2/maxwin/BulkDock/OUTPUTS/openbind_d68ev3c_c2_elabs_1LSYEHW.sdf', '/opt/xchem-fragalysis-2/maxwin/BulkDock/OUTPUTS/openbind_d68ev3c_c2_elabs_1LSYI5W.sdf']

$$$$
P66354
     RDKit          3D

 22 23  0  0  0  0  0  0  0  0999 V2000
    3.5747   -2.9842   33.6106 C   0  0  0  0  0  0  0  0  0  0  0  0
    2.9662   -3.1437   34.6334 C   0  0  0  0  0  0  0  0  0  0  0  0
    2.2614   -3.3099   35.8711 C   0  0  0  0  0  0  0  0  0  0  0  0
    2.6568   -2.5418   36.9732 C   0  0  0  0  0  0  0  0  0  0  0  0
    2.0258   -2.7064   38.2083 C   0  0  0  0  0  0  0  0  0  0  0  0
    2.5283   -1.7428   39.5453 Cl  0  0  0  0  0  0  0  0  0  0  0  0
    0.9947   -3.6269   38.3478 C   0  0  0  0  0  0  0  0  0  0  0  0
    0.3432   -3.7563   39.5149 F   0  0  0  0  0  0  0  0  0  0  0  0
    0.6127   -4.4042   37.2633 C   0  0  0  0  0  0  0  0  0  0  0  0
   -0.4244   -5.2424   37.4170 F   0  0  0  0  0  0  0  0  0  0  0  0
    1.2447   -4.2603   36.0186 C   0  0  0  0  0  0  0  0  0  0  0  0
    0.8474   -5.0403   34.9349 N   0  0  0  0  0  0  0  0  0  0  0  0
    0.2573   -6.4566   34.8883 C   0  0  0  0  0  0  0  0  0  0  0  0
    0.0793   -7.2300   35.7428 O   0  0  0  0  0  0  0  0  0  0  0  0
   -0.2555   -6.8510   33.5366 C   0  0  0  0  0  0  0  0  0  0  0  0
   -1.2993   -7.7832   33.6008 C   0  0  0  0  0  0  0  0  0  0  0  0
   -1.9162   -8.2058   32.4410 C   0  0  0  0  0  0  0  0  0  0  0  0
   -3.0652   -9.1403   32.5298 C   0  0  0  0  0  0  0  0  0  0  0  0
   -1.5371   -7.8033   31.2124 N   0  0  0  0  0  0  0  0  0  0  0  0
   -0.5045   -6.9275   31.1655 C   0  0  0  0  0  0  0  0  0  0  0  0
    0.1465   -6.4017   32.2799 C   0  0  0  0  0  0  0  0  0  0  0  0
    1.3845   -5.2431   31.9861 Cl  0  0  0  0  0  0  0  0  0  0  0  0
  1  2  3  0
  2  3  1  0
  3  4  2  0
  4  5  1  0
  5  6  1  0
  5  7  2  0
  7  8  1  0
  7  9  1  0
  9 10  1  0
  9 11  2  0
 11 12  1  0
 12 13  1  0
 13 14  2  0
 13 15  1  0
 15 16  2  0
 16 17  1  0
 17 18  1  0
 17 19  2  0
 19 20  1  0
 20 21  2  0
 21 22  1  0
 11  3  1  0
 21 15  1  0
M  END
>  <ref_mols>  (597) 
7gov-a

>  <gnina_score>  (597) 
5.267

>  <smina_score_min>  (597) 
-5.322

>  <ref_pdb>  (597) 
7gov-a

>  <inspiration_score>  (597) 
None

>  <inchikey>  (597) 
JVHFEIJJMKUOEY-UHFFFAOYSA-N

>  <tags>  (597) 
BulkDock Fragalysis export,openbind_d68ev3c_c2_elabs_scored,openbind_d68ev3c_c2_elabs_scored_4.5plus,openbind_d68ev3c_c2_elabs,openbind_d68ev3c_c2_elabs_scored_5plus,syndirella_product,openbind_d68ev3c_c2_elabs_scored_top80percent,syndirella_placed

>  <smiles>  (597) 
C#Cc1cc(Cl)c(F)c(F)c1NC(=O)c1cc(C)ncc1Cl

>  <subsites>  (597) 
None

>  <rmsd(smina/fragmenstein)>  (597) 
0.755

>  <alias>  (597) 
None

>  <energy_score>  (597) 
-13.997651

>  <HIPPO Pose ID>  (597) 
66354

>  <distance_score>  (597) 
0.603062

>  <HIPPO Compound ID>  (597) 
104510

>  <gnina_score_min>  (597) 
5.152

>  <name>  (597) 
P66354

>  <exports>  (597) 
['/opt/xchem-fragalysis-2/maxwin/BulkDock/OUTPUTS/openbind_d68ev3c_c2_elabs_1LOTQJ3.sdf', '/opt/xchem-fragalysis-2/maxwin/BulkDock/OUTPUTS/openbind_d68ev3c_c2_elabs_1LSYEHW.sdf', '/opt/xchem-fragalysis-2/maxwin/BulkDock/OUTPUTS/openbind_d68ev3c_c2_elabs_1LSYI5W.sdf']

$$$$
P66356
     RDKit          3D

 22 23  0  0  0  0  0  0  0  0999 V2000
    3.6516   -5.1640   34.4756 C   0  0  0  0  0  0  0  0  0  0  0  0
    3.0245   -3.8464   34.8429 C   0  0  0  0  0  0  0  0  0  0  0  0
    3.2539   -2.8141   34.2182 O   0  0  0  0  0  0  0  0  0  0  0  0
    2.1503   -3.7882   36.0343 C   0  0  0  0  0  0  0  0  0  0  0  0
    2.5440   -2.9033   37.0460 C   0  0  0  0  0  0  0  0  0  0  0  0
    1.8054   -2.8404   38.2186 C   0  0  0  0  0  0  0  0  0  0  0  0
    2.1960   -2.0142   39.1991 F   0  0  0  0  0  0  0  0  0  0  0  0
    0.6712   -3.6260   38.3774 C   0  0  0  0  0  0  0  0  0  0  0  0
   -0.0361   -3.5616   39.5138 F   0  0  0  0  0  0  0  0  0  0  0  0
    0.2492   -4.4784   37.3607 C   0  0  0  0  0  0  0  0  0  0  0  0
    0.9874   -4.5695   36.1760 C   0  0  0  0  0  0  0  0  0  0  0  0
    0.5297   -5.3770   35.1324 N   0  0  0  0  0  0  0  0  0  0  0  0
   -0.6759   -6.3388   35.0631 C   0  0  0  0  0  0  0  0  0  0  0  0
   -1.4313   -6.6666   35.8915 O   0  0  0  0  0  0  0  0  0  0  0  0
   -0.8721   -6.9399   33.6979 C   0  0  0  0  0  0  0  0  0  0  0  0
   -1.5706   -8.1576   33.6848 C   0  0  0  0  0  0  0  0  0  0  0  0
   -1.8824   -8.7350   32.4737 C   0  0  0  0  0  0  0  0  0  0  0  0
   -1.5176   -8.2170   31.2842 N   0  0  0  0  0  0  0  0  0  0  0  0
   -0.7850   -7.0685   31.2972 C   0  0  0  0  0  0  0  0  0  0  0  0
   -0.2896   -6.5839   29.9617 C   0  0  0  0  0  0  0  0  0  0  0  0
   -0.4882   -6.3693   32.4749 C   0  0  0  0  0  0  0  0  0  0  0  0
    0.2510   -4.8079   32.3403 Cl  0  0  0  0  0  0  0  0  0  0  0  0
  1  2  1  0
  2  3  2  0
  2  4  1  0
  4  5  2  0
  5  6  1  0
  6  7  1  0
  6  8  2  0
  8  9  1  0
  8 10  1  0
 10 11  2  0
 11 12  1  0
 12 13  1  0
 13 14  2  0
 13 15  1  0
 15 16  2  0
 16 17  1  0
 17 18  2  0
 18 19  1  0
 19 20  1  0
 19 21  2  0
 21 22  1  0
 11  4  1  0
 21 15  1  0
M  END
>  <ref_mols>  (598) 
7gov-a

>  <gnina_score>  (598) 
5.039

>  <smina_score_min>  (598) 
-5.766

>  <ref_pdb>  (598) 
7gov-a

>  <inspiration_score>  (598) 
None

>  <inchikey>  (598) 
JUFFGNDWHWQHLK-UHFFFAOYSA-N

>  <tags>  (598) 
BulkDock Fragalysis export,openbind_d68ev3c_c2_elabs_scored,openbind_d68ev3c_c2_elabs_scored_4.5plus,openbind_d68ev3c_c2_elabs,openbind_d68ev3c_c2_elabs_scored_5plus,syndirella_product,openbind_d68ev3c_c2_elabs_scored_top80percent,syndirella_placed

>  <smiles>  (598) 
CC(=O)c1cc(F)c(F)cc1NC(=O)c1ccnc(C)c1Cl

>  <subsites>  (598) 
None

>  <rmsd(smina/fragmenstein)>  (598) 
0.627

>  <alias>  (598) 
None

>  <energy_score>  (598) 
-24.371985

>  <HIPPO Pose ID>  (598) 
66356

>  <distance_score>  (598) 
0.750633

>  <HIPPO Compound ID>  (598) 
104513

>  <gnina_score_min>  (598) 
5.026

>  <name>  (598) 
P66356

>  <exports>  (598) 
['/opt/xchem-fragalysis-2/maxwin/BulkDock/OUTPUTS/openbind_d68ev3c_c2_elabs_1LOTQJ3.sdf', '/opt/xchem-fragalysis-2/maxwin/BulkDock/OUTPUTS/openbind_d68ev3c_c2_elabs_1LSYEHW.sdf', '/opt/xchem-fragalysis-2/maxwin/BulkDock/OUTPUTS/openbind_d68ev3c_c2_elabs_1LSYI5W.sdf']

$$$$
P66358
     RDKit          3D

 22 23  0  0  0  0  0  0  0  0999 V2000
    3.4641   -3.9009   33.7399 C   0  0  0  0  0  0  0  0  0  0  0  0
    2.8297   -3.8582   34.7586 C   0  0  0  0  0  0  0  0  0  0  0  0
    2.0820   -3.8086   35.9854 C   0  0  0  0  0  0  0  0  0  0  0  0
    2.5489   -2.9533   36.9925 C   0  0  0  0  0  0  0  0  0  0  0  0
    1.8830   -2.8867   38.2131 C   0  0  0  0  0  0  0  0  0  0  0  0
    2.4855   -1.8498   39.4493 Cl  0  0  0  0  0  0  0  0  0  0  0  0
    0.7456   -3.6555   38.4238 C   0  0  0  0  0  0  0  0  0  0  0  0
    0.0939   -3.5970   39.5960 F   0  0  0  0  0  0  0  0  0  0  0  0
    0.2669   -4.4962   37.4228 C   0  0  0  0  0  0  0  0  0  0  0  0
   -0.8324   -5.2093   37.6949 F   0  0  0  0  0  0  0  0  0  0  0  0
    0.9261   -4.5943   36.1912 C   0  0  0  0  0  0  0  0  0  0  0  0
    0.4831   -5.4095   35.1373 N   0  0  0  0  0  0  0  0  0  0  0  0
   -0.7264   -6.3651   35.0482 C   0  0  0  0  0  0  0  0  0  0  0  0
   -1.5007   -6.6839   35.8620 O   0  0  0  0  0  0  0  0  0  0  0  0
   -0.9030   -6.9671   33.6847 C   0  0  0  0  0  0  0  0  0  0  0  0
   -1.5787   -8.1967   33.6672 C   0  0  0  0  0  0  0  0  0  0  0  0
   -1.8748   -8.7750   32.4535 C   0  0  0  0  0  0  0  0  0  0  0  0
   -1.5093   -8.2497   31.2671 N   0  0  0  0  0  0  0  0  0  0  0  0
   -0.7970   -7.0890   31.2866 C   0  0  0  0  0  0  0  0  0  0  0  0
   -0.2898   -6.6012   29.9570 C   0  0  0  0  0  0  0  0  0  0  0  0
   -0.5277   -6.3834   32.4662 C   0  0  0  0  0  0  0  0  0  0  0  0
    0.1517   -4.7953   32.3377 Cl  0  0  0  0  0  0  0  0  0  0  0  0
  1  2  3  0
  2  3  1  0
  3  4  2  0
  4  5  1  0
  5  6  1  0
  5  7  2  0
  7  8  1  0
  7  9  1  0
  9 10  1  0
  9 11  2  0
 11 12  1  0
 12 13  1  0
 13 14  2  0
 13 15  1  0
 15 16  2  0
 16 17  1  0
 17 18  2  0
 18 19  1  0
 19 20  1  0
 19 21  2  0
 21 22  1  0
 11  3  1  0
 21 15  1  0
M  END
>  <ref_mols>  (599) 
7gov-a

>  <gnina_score>  (599) 
5.397

>  <smina_score_min>  (599) 
-5.661

>  <ref_pdb>  (599) 
7gov-a

>  <inspiration_score>  (599) 
None

>  <inchikey>  (599) 
GRRLFFAMSPVVIO-UHFFFAOYSA-N

>  <tags>  (599) 
BulkDock Fragalysis export,openbind_d68ev3c_c2_elabs_scored,openbind_d68ev3c_c2_elabs_scored_4.5plus,openbind_d68ev3c_c2_elabs,openbind_d68ev3c_c2_elabs_scored_5plus,syndirella_product,openbind_d68ev3c_c2_elabs_scored_top80percent,syndirella_placed

>  <smiles>  (599) 
C#Cc1cc(Cl)c(F)c(F)c1NC(=O)c1ccnc(C)c1Cl

>  <subsites>  (599) 
None

>  <rmsd(smina/fragmenstein)>  (599) 
0.861

>  <alias>  (599) 
None

>  <energy_score>  (599) 
-14.358869

>  <HIPPO Pose ID>  (599) 
66358

>  <distance_score>  (599) 
0.759385

>  <HIPPO Compound ID>  (599) 
104515

>  <gnina_score_min>  (599) 
5.241

>  <name>  (599) 
P66358

>  <exports>  (599) 
['/opt/xchem-fragalysis-2/maxwin/BulkDock/OUTPUTS/openbind_d68ev3c_c2_elabs_1LOTQJ3.sdf', '/opt/xchem-fragalysis-2/maxwin/BulkDock/OUTPUTS/openbind_d68ev3c_c2_elabs_1LSYEHW.sdf', '/opt/xchem-fragalysis-2/maxwin/BulkDock/OUTPUTS/openbind_d68ev3c_c2_elabs_1LSYI5W.sdf']

$$$$
P66359
     RDKit          3D

 22 23  0  0  0  0  0  0  0  0999 V2000
    4.6951   -3.4419   34.7803 C   0  0  0  0  0  0  0  0  0  0  0  0
    3.2142   -3.7210   34.7673 C   0  0  0  0  0  0  0  0  0  0  0  0
    2.6471   -4.0617   33.7281 O   0  0  0  0  0  0  0  0  0  0  0  0
    2.4382   -3.5612   36.0387 C   0  0  0  0  0  0  0  0  0  0  0  0
    2.9451   -2.7897   37.0943 C   0  0  0  0  0  0  0  0  0  0  0  0
    2.2354   -2.6943   38.2958 C   0  0  0  0  0  0  0  0  0  0  0  0
    2.9669   -1.6906   39.7234 Br  0  0  0  0  0  0  0  0  0  0  0  0
    1.0118   -3.3381   38.4409 C   0  0  0  0  0  0  0  0  0  0  0  0
    0.3205   -3.2671   39.5877 F   0  0  0  0  0  0  0  0  0  0  0  0
    0.4796   -4.0691   37.3918 C   0  0  0  0  0  0  0  0  0  0  0  0
    1.1913   -4.1897   36.1934 C   0  0  0  0  0  0  0  0  0  0  0  0
    0.6430   -4.9333   35.1581 N   0  0  0  0  0  0  0  0  0  0  0  0
   -0.6341   -5.7883   35.1095 C   0  0  0  0  0  0  0  0  0  0  0  0
   -1.4691   -5.9430   35.9057 O   0  0  0  0  0  0  0  0  0  0  0  0
   -0.7942   -6.4773   33.7807 C   0  0  0  0  0  0  0  0  0  0  0  0
   -0.2892   -5.9194   32.5956 C   0  0  0  0  0  0  0  0  0  0  0  0
   -0.4962   -6.5797   31.3947 C   0  0  0  0  0  0  0  0  0  0  0  0
   -1.1809   -7.7311   31.2876 N   0  0  0  0  0  0  0  0  0  0  0  0
   -1.6335   -8.2714   32.4428 C   0  0  0  0  0  0  0  0  0  0  0  0
   -2.2679   -9.6059   32.3076 C   0  0  0  0  0  0  0  0  0  0  0  0
   -1.5131   -7.6706   33.6960 C   0  0  0  0  0  0  0  0  0  0  0  0
   -2.2967   -8.4217   35.0434 Cl  0  0  0  0  0  0  0  0  0  0  0  0
  1  2  1  0
  2  3  2  0
  2  4  1  0
  4  5  2  0
  5  6  1  0
  6  7  1  0
  6  8  2  0
  8  9  1  0
  8 10  1  0
 10 11  2  0
 11 12  1  0
 12 13  1  0
 13 14  2  0
 13 15  1  0
 15 16  2  0
 16 17  1  0
 17 18  2  0
 18 19  1  0
 19 20  1  0
 19 21  2  0
 21 22  1  0
 11  4  1  0
 21 15  1  0
M  END
>  <ref_mols>  (600) 
7gov-a

>  <gnina_score>  (600) 
5.178

>  <smina_score_min>  (600) 
-4.702

>  <ref_pdb>  (600) 
7gov-a

>  <inspiration_score>  (600) 
None

>  <inchikey>  (600) 
MPNOHWXGDHUZMX-UHFFFAOYSA-N

>  <tags>  (600) 
BulkDock Fragalysis export,openbind_d68ev3c_c2_elabs_scored,openbind_d68ev3c_c2_elabs_scored_4.5plus,openbind_d68ev3c_c2_elabs,openbind_d68ev3c_c2_elabs_scored_5plus,syndirella_product,openbind_d68ev3c_c2_elabs_scored_top80percent,syndirella_placed

>  <smiles>  (600) 
CC(=O)c1cc(Br)c(F)cc1NC(=O)c1ccnc(C)c1Cl

>  <subsites>  (600) 
None

>  <rmsd(smina/fragmenstein)>  (600) 
0.396

>  <alias>  (600) 
None

>  <energy_score>  (600) 
-24.356314

>  <HIPPO Pose ID>  (600) 
66359

>  <distance_score>  (600) 
0.99051

>  <HIPPO Compound ID>  (600) 
104518

>  <gnina_score_min>  (600) 
5.003

>  <name>  (600) 
P66359

>  <exports>  (600) 
['/opt/xchem-fragalysis-2/maxwin/BulkDock/OUTPUTS/openbind_d68ev3c_c2_elabs_1LOTQJ3.sdf', '/opt/xchem-fragalysis-2/maxwin/BulkDock/OUTPUTS/openbind_d68ev3c_c2_elabs_1LSYEHW.sdf', '/opt/xchem-fragalysis-2/maxwin/BulkDock/OUTPUTS/openbind_d68ev3c_c2_elabs_1LSYI5W.sdf']

$$$$
P66360
     RDKit          3D

 22 23  0  0  0  0  0  0  0  0999 V2000
    0.0249   -3.6777   39.7142 C   0  0  0  0  0  0  0  0  0  0  0  0
    0.7650   -3.6973   38.4074 C   0  0  0  0  0  0  0  0  0  0  0  0
    0.2384   -4.4524   37.3460 C   0  0  0  0  0  0  0  0  0  0  0  0
    0.9080   -4.5184   36.1232 C   0  0  0  0  0  0  0  0  0  0  0  0
    0.4159   -5.2653   35.0614 N   0  0  0  0  0  0  0  0  0  0  0  0
   -0.7405   -6.2830   35.0034 C   0  0  0  0  0  0  0  0  0  0  0  0
   -1.5129   -6.5987   35.8208 O   0  0  0  0  0  0  0  0  0  0  0  0
   -0.8985   -6.9223   33.6513 C   0  0  0  0  0  0  0  0  0  0  0  0
   -1.5742   -8.1530   33.6620 C   0  0  0  0  0  0  0  0  0  0  0  0
   -1.8719   -8.7607   32.4631 C   0  0  0  0  0  0  0  0  0  0  0  0
   -1.5097   -8.2626   31.2649 N   0  0  0  0  0  0  0  0  0  0  0  0
   -0.7904   -7.1060   31.2557 C   0  0  0  0  0  0  0  0  0  0  0  0
   -0.2920   -6.6517   29.9110 C   0  0  0  0  0  0  0  0  0  0  0  0
   -0.5140   -6.3736   32.4180 C   0  0  0  0  0  0  0  0  0  0  0  0
    0.1931   -4.8005   32.2464 Cl  0  0  0  0  0  0  0  0  0  0  0  0
    2.0878   -3.7948   35.9332 C   0  0  0  0  0  0  0  0  0  0  0  0
    2.7171   -3.8477   34.7478 F   0  0  0  0  0  0  0  0  0  0  0  0
    2.6250   -3.0229   36.9512 C   0  0  0  0  0  0  0  0  0  0  0  0
    1.9656   -2.9907   38.1852 C   0  0  0  0  0  0  0  0  0  0  0  0
    2.5833   -2.2087   39.2486 N   0  0  0  0  0  0  0  0  0  0  0  0
    1.8712   -1.3855   39.8400 O   0  0  0  0  0  0  0  0  0  0  0  0
    3.7861   -2.4042   39.4778 O   0  0  0  0  0  0  0  0  0  0  0  0
  1  2  1  0
  2  3  2  0
  3  4  1  0
  4  5  1  0
  5  6  1  0
  6  7  2  0
  6  8  1  0
  8  9  2  0
  9 10  1  0
 10 11  2  0
 11 12  1  0
 12 13  1  0
 12 14  2  0
 14 15  1  0
  4 16  2  0
 16 17  1  0
 16 18  1  0
 18 19  2  0
 19 20  1  0
 20 21  2  0
 20 22  1  0
 19  2  1  0
 14  8  1  0
M  CHG  2  20   1  22  -1
M  END
>  <ref_mols>  (601) 
7gov-a

>  <gnina_score>  (601) 
4.956

>  <smina_score_min>  (601) 
-5.866

>  <ref_pdb>  (601) 
7gov-a

>  <inspiration_score>  (601) 
None

>  <inchikey>  (601) 
SCBHDBMMARXDAI-UHFFFAOYSA-N

>  <tags>  (601) 
BulkDock Fragalysis export,openbind_d68ev3c_c2_elabs_scored,openbind_d68ev3c_c2_elabs_scored_4.5plus,openbind_d68ev3c_c2_elabs,openbind_d68ev3c_c2_elabs_scored_5plus,syndirella_product,openbind_d68ev3c_c2_elabs_scored_top80percent,syndirella_placed

>  <smiles>  (601) 
Cc1cc(NC(=O)c2ccnc(C)c2Cl)c(F)cc1[N+](=O)[O-]

>  <subsites>  (601) 
None

>  <rmsd(smina/fragmenstein)>  (601) 
1.362

>  <alias>  (601) 
None

>  <energy_score>  (601) 
-37.217255

>  <HIPPO Pose ID>  (601) 
66360

>  <distance_score>  (601) 
0.755487

>  <HIPPO Compound ID>  (601) 
104524

>  <gnina_score_min>  (601) 
5.056

>  <name>  (601) 
P66360

>  <exports>  (601) 
['/opt/xchem-fragalysis-2/maxwin/BulkDock/OUTPUTS/openbind_d68ev3c_c2_elabs_1LOTQJ3.sdf', '/opt/xchem-fragalysis-2/maxwin/BulkDock/OUTPUTS/openbind_d68ev3c_c2_elabs_1LSYEHW.sdf', '/opt/xchem-fragalysis-2/maxwin/BulkDock/OUTPUTS/openbind_d68ev3c_c2_elabs_1LSYI5W.sdf']

$$$$
P66361
     RDKit          3D

 22 23  0  0  0  0  0  0  0  0999 V2000
    4.2735   -2.8632   34.4754 C   0  0  0  0  0  0  0  0  0  0  0  0
    2.7819   -3.0637   34.5260 C   0  0  0  0  0  0  0  0  0  0  0  0
    2.0968   -3.1007   33.5043 O   0  0  0  0  0  0  0  0  0  0  0  0
    2.1364   -3.1839   35.8601 C   0  0  0  0  0  0  0  0  0  0  0  0
    2.5824   -2.4170   36.9455 C   0  0  0  0  0  0  0  0  0  0  0  0
    2.0062   -2.5899   38.2086 C   0  0  0  0  0  0  0  0  0  0  0  0
    1.0017   -3.5358   38.3869 C   0  0  0  0  0  0  0  0  0  0  0  0
    0.4280   -3.6680   39.5912 F   0  0  0  0  0  0  0  0  0  0  0  0
    0.5754   -4.3165   37.3233 C   0  0  0  0  0  0  0  0  0  0  0  0
   -0.4246   -5.1904   37.5174 F   0  0  0  0  0  0  0  0  0  0  0  0
    1.1301   -4.1331   36.0523 C   0  0  0  0  0  0  0  0  0  0  0  0
    0.6995   -4.9115   34.9913 N   0  0  0  0  0  0  0  0  0  0  0  0
    0.3455   -6.3983   34.9284 C   0  0  0  0  0  0  0  0  0  0  0  0
    0.4308   -7.2284   35.7380 O   0  0  0  0  0  0  0  0  0  0  0  0
   -0.2919   -6.7585   33.6360 C   0  0  0  0  0  0  0  0  0  0  0  0
    0.2328   -6.3304   32.4140 C   0  0  0  0  0  0  0  0  0  0  0  0
   -0.3120   -6.8484   31.2494 C   0  0  0  0  0  0  0  0  0  0  0  0
   -1.2848   -7.7836   31.2266 N   0  0  0  0  0  0  0  0  0  0  0  0
   -1.7322   -8.2104   32.4324 C   0  0  0  0  0  0  0  0  0  0  0  0
   -2.5652   -9.4387   32.4263 C   0  0  0  0  0  0  0  0  0  0  0  0
   -1.3487   -7.6609   33.6495 C   0  0  0  0  0  0  0  0  0  0  0  0
   -2.2141   -8.0879   35.0863 Cl  0  0  0  0  0  0  0  0  0  0  0  0
  1  2  1  0
  2  3  2  0
  2  4  1  0
  4  5  2  0
  5  6  1  0
  6  7  2  0
  7  8  1  0
  7  9  1  0
  9 10  1  0
  9 11  2  0
 11 12  1  0
 12 13  1  0
 13 14  2  0
 13 15  1  0
 15 16  2  0
 16 17  1  0
 17 18  2  0
 18 19  1  0
 19 20  1  0
 19 21  2  0
 21 22  1  0
 11  4  1  0
 21 15  1  0
M  END
>  <ref_mols>  (602) 
7gov-a

>  <gnina_score>  (602) 
5.15

>  <smina_score_min>  (602) 
-5.449

>  <ref_pdb>  (602) 
7gov-a

>  <inspiration_score>  (602) 
None

>  <inchikey>  (602) 
STLGNJLNRSATMX-UHFFFAOYSA-N

>  <tags>  (602) 
BulkDock Fragalysis export,openbind_d68ev3c_c2_elabs_scored,openbind_d68ev3c_c2_elabs_scored_4.5plus,openbind_d68ev3c_c2_elabs,openbind_d68ev3c_c2_elabs_scored_5plus,syndirella_product,openbind_d68ev3c_c2_elabs_scored_top80percent,syndirella_placed

>  <smiles>  (602) 
CC(=O)c1ccc(F)c(F)c1NC(=O)c1ccnc(C)c1Cl

>  <subsites>  (602) 
None

>  <rmsd(smina/fragmenstein)>  (602) 
0.729

>  <alias>  (602) 
None

>  <energy_score>  (602) 
-3.656563

>  <HIPPO Pose ID>  (602) 
66361

>  <distance_score>  (602) 
0.64069

>  <HIPPO Compound ID>  (602) 
104525

>  <gnina_score_min>  (602) 
5.029

>  <name>  (602) 
P66361

>  <exports>  (602) 
['/opt/xchem-fragalysis-2/maxwin/BulkDock/OUTPUTS/openbind_d68ev3c_c2_elabs_1LOTQJ3.sdf', '/opt/xchem-fragalysis-2/maxwin/BulkDock/OUTPUTS/openbind_d68ev3c_c2_elabs_1LSYEHW.sdf', '/opt/xchem-fragalysis-2/maxwin/BulkDock/OUTPUTS/openbind_d68ev3c_c2_elabs_1LSYI5W.sdf']

$$$$
P66363
     RDKit          3D

 22 23  0  0  0  0  0  0  0  0999 V2000
    4.4375   -3.6769   34.6439 C   0  0  0  0  0  0  0  0  0  0  0  0
    2.9659   -3.9986   34.6597 C   0  0  0  0  0  0  0  0  0  0  0  0
    2.3824   -4.3632   33.6380 O   0  0  0  0  0  0  0  0  0  0  0  0
    2.2047   -3.8464   35.9363 C   0  0  0  0  0  0  0  0  0  0  0  0
    2.6511   -2.9479   36.9147 C   0  0  0  0  0  0  0  0  0  0  0  0
    1.9414   -2.8182   38.1046 C   0  0  0  0  0  0  0  0  0  0  0  0
    2.3865   -1.9664   39.0393 F   0  0  0  0  0  0  0  0  0  0  0  0
    0.7832   -3.5512   38.3228 C   0  0  0  0  0  0  0  0  0  0  0  0
    0.1091   -3.4215   39.4736 F   0  0  0  0  0  0  0  0  0  0  0  0
    0.3107   -4.4238   37.3516 C   0  0  0  0  0  0  0  0  0  0  0  0
    1.0230   -4.5854   36.1579 C   0  0  0  0  0  0  0  0  0  0  0  0
    0.5551   -5.4729   35.1898 N   0  0  0  0  0  0  0  0  0  0  0  0
   -0.7684   -6.2665   35.1117 C   0  0  0  0  0  0  0  0  0  0  0  0
   -1.6390   -6.3609   35.8813 O   0  0  0  0  0  0  0  0  0  0  0  0
   -0.9649   -6.9404   33.7799 C   0  0  0  0  0  0  0  0  0  0  0  0
   -0.4343   -6.3823   32.6080 C   0  0  0  0  0  0  0  0  0  0  0  0
   -0.7017   -6.9717   31.3754 C   0  0  0  0  0  0  0  0  0  0  0  0
   -0.1297   -6.3470   30.1364 C   0  0  0  0  0  0  0  0  0  0  0  0
   -1.4951   -8.0601   31.2438 N   0  0  0  0  0  0  0  0  0  0  0  0
   -1.9969   -8.5829   32.3871 C   0  0  0  0  0  0  0  0  0  0  0  0
   -1.7897   -8.0623   33.6550 C   0  0  0  0  0  0  0  0  0  0  0  0
   -2.6815   -8.7970   34.9278 Cl  0  0  0  0  0  0  0  0  0  0  0  0
  1  2  1  0
  2  3  2  0
  2  4  1  0
  4  5  2  0
  5  6  1  0
  6  7  1  0
  6  8  2  0
  8  9  1  0
  8 10  1  0
 10 11  2  0
 11 12  1  0
 12 13  1  0
 13 14  2  0
 13 15  1  0
 15 16  2  0
 16 17  1  0
 17 18  1  0
 17 19  2  0
 19 20  1  0
 20 21  2  0
 21 22  1  0
 11  4  1  0
 21 15  1  0
M  END
>  <ref_mols>  (603) 
7gov-a

>  <gnina_score>  (603) 
5.253

>  <smina_score_min>  (603) 
-5.79

>  <ref_pdb>  (603) 
7gov-a

>  <inspiration_score>  (603) 
None

>  <inchikey>  (603) 
GZUKJIZCTRAMGT-UHFFFAOYSA-N

>  <tags>  (603) 
BulkDock Fragalysis export,openbind_d68ev3c_c2_elabs_scored,openbind_d68ev3c_c2_elabs_scored_4.5plus,openbind_d68ev3c_c2_elabs,openbind_d68ev3c_c2_elabs_scored_5plus,syndirella_product,openbind_d68ev3c_c2_elabs_scored_top80percent,syndirella_placed

>  <smiles>  (603) 
CC(=O)c1cc(F)c(F)cc1NC(=O)c1cc(C)ncc1Cl

>  <subsites>  (603) 
None

>  <rmsd(smina/fragmenstein)>  (603) 
1.281

>  <alias>  (603) 
None

>  <energy_score>  (603) 
-23.410945

>  <HIPPO Pose ID>  (603) 
66363

>  <distance_score>  (603) 
0.836221

>  <HIPPO Compound ID>  (603) 
104527

>  <gnina_score_min>  (603) 
5.211

>  <name>  (603) 
P66363

>  <exports>  (603) 
['/opt/xchem-fragalysis-2/maxwin/BulkDock/OUTPUTS/openbind_d68ev3c_c2_elabs_1LOTQJ3.sdf', '/opt/xchem-fragalysis-2/maxwin/BulkDock/OUTPUTS/openbind_d68ev3c_c2_elabs_1LSYEHW.sdf', '/opt/xchem-fragalysis-2/maxwin/BulkDock/OUTPUTS/openbind_d68ev3c_c2_elabs_1LSYI5W.sdf']

$$$$
P66370
     RDKit          3D

 22 23  0  0  0  0  0  0  0  0999 V2000
    1.8261   -2.9707   33.3970 C   0  0  0  0  0  0  0  0  0  0  0  0
    2.6501   -3.5429   34.5205 C   0  0  0  0  0  0  0  0  0  0  0  0
    3.8398   -3.8070   34.3834 O   0  0  0  0  0  0  0  0  0  0  0  0
    2.0057   -3.6704   35.8477 C   0  0  0  0  0  0  0  0  0  0  0  0
    2.5259   -2.8423   36.8567 C   0  0  0  0  0  0  0  0  0  0  0  0
    1.9451   -2.8357   38.1212 C   0  0  0  0  0  0  0  0  0  0  0  0
    0.8583   -3.6621   38.3688 C   0  0  0  0  0  0  0  0  0  0  0  0
    0.2873   -3.6437   39.5818 F   0  0  0  0  0  0  0  0  0  0  0  0
    0.3542   -4.5052   37.3796 C   0  0  0  0  0  0  0  0  0  0  0  0
   -0.6897   -5.2744   37.7106 F   0  0  0  0  0  0  0  0  0  0  0  0
    0.9218   -4.5362   36.0977 C   0  0  0  0  0  0  0  0  0  0  0  0
    0.4459   -5.3761   35.0742 N   0  0  0  0  0  0  0  0  0  0  0  0
   -0.6596   -6.4595   35.0950 C   0  0  0  0  0  0  0  0  0  0  0  0
   -1.3996   -6.7700   35.9441 O   0  0  0  0  0  0  0  0  0  0  0  0
   -0.8590   -7.1354   33.7796 C   0  0  0  0  0  0  0  0  0  0  0  0
   -1.6351   -8.3008   33.7652 C   0  0  0  0  0  0  0  0  0  0  0  0
   -1.9866   -8.8417   32.5456 C   0  0  0  0  0  0  0  0  0  0  0  0
   -1.6135   -8.3216   31.3586 N   0  0  0  0  0  0  0  0  0  0  0  0
   -0.8175   -7.2238   31.3986 C   0  0  0  0  0  0  0  0  0  0  0  0
   -0.3221   -6.4610   29.7396 Br  0  0  0  0  0  0  0  0  0  0  0  0
   -0.4310   -6.5983   32.5718 C   0  0  0  0  0  0  0  0  0  0  0  0
    0.2825   -5.4637   32.5318 F   0  0  0  0  0  0  0  0  0  0  0  0
  1  2  1  0
  2  3  2  0
  2  4  1  0
  4  5  2  0
  5  6  1  0
  6  7  2  0
  7  8  1  0
  7  9  1  0
  9 10  1  0
  9 11  2  0
 11 12  1  0
 12 13  1  0
 13 14  2  0
 13 15  1  0
 15 16  2  0
 16 17  1  0
 17 18  2  0
 18 19  1  0
 19 20  1  0
 19 21  2  0
 21 22  1  0
 11  4  1  0
 21 15  1  0
M  END
>  <ref_mols>  (604) 
7gov-a

>  <gnina_score>  (604) 
5.275

>  <smina_score_min>  (604) 
-5.983

>  <ref_pdb>  (604) 
7gov-a

>  <inspiration_score>  (604) 
None

>  <inchikey>  (604) 
XFQLXXHXJKUICA-UHFFFAOYSA-N

>  <tags>  (604) 
BulkDock Fragalysis export,openbind_d68ev3c_c2_elabs_scored,openbind_d68ev3c_c2_elabs_scored_4.5plus,openbind_d68ev3c_c2_elabs,openbind_d68ev3c_c2_elabs_scored_5plus,syndirella_product,openbind_d68ev3c_c2_elabs_scored_top80percent,syndirella_placed

>  <smiles>  (604) 
CC(=O)c1ccc(F)c(F)c1NC(=O)c1ccnc(Br)c1F

>  <subsites>  (604) 
None

>  <rmsd(smina/fragmenstein)>  (604) 
1.174

>  <alias>  (604) 
None

>  <energy_score>  (604) 
-14.209564

>  <HIPPO Pose ID>  (604) 
66370

>  <distance_score>  (604) 
0.73439

>  <HIPPO Compound ID>  (604) 
104547

>  <gnina_score_min>  (604) 
5.064

>  <name>  (604) 
P66370

>  <exports>  (604) 
['/opt/xchem-fragalysis-2/maxwin/BulkDock/OUTPUTS/openbind_d68ev3c_c2_elabs_1LOTQJ3.sdf', '/opt/xchem-fragalysis-2/maxwin/BulkDock/OUTPUTS/openbind_d68ev3c_c2_elabs_1LSYEHW.sdf', '/opt/xchem-fragalysis-2/maxwin/BulkDock/OUTPUTS/openbind_d68ev3c_c2_elabs_1LSYI5W.sdf']

$$$$
P66375
     RDKit          3D

 22 23  0  0  0  0  0  0  0  0999 V2000
   -0.1192   -6.5007   30.1944 C   0  0  0  0  0  0  0  0  0  0  0  0
   -0.6686   -7.1327   31.4393 C   0  0  0  0  0  0  0  0  0  0  0  0
   -0.1999   -6.7083   32.6804 C   0  0  0  0  0  0  0  0  0  0  0  0
   -0.8355   -7.1361   33.8561 C   0  0  0  0  0  0  0  0  0  0  0  0
   -0.4267   -6.6092   35.2119 C   0  0  0  0  0  0  0  0  0  0  0  0
   -0.6727   -7.2781   36.1343 O   0  0  0  0  0  0  0  0  0  0  0  0
    0.2412   -5.2172   35.1340 N   0  0  0  0  0  0  0  0  0  0  0  0
    0.8084   -4.4327   36.1287 C   0  0  0  0  0  0  0  0  0  0  0  0
    0.2875   -4.5131   37.4241 C   0  0  0  0  0  0  0  0  0  0  0  0
    0.8497   -3.7595   38.4457 C   0  0  0  0  0  0  0  0  0  0  0  0
    0.3253   -3.8566   39.6749 F   0  0  0  0  0  0  0  0  0  0  0  0
    1.9449   -2.9514   38.1780 C   0  0  0  0  0  0  0  0  0  0  0  0
    2.5672   -2.2182   39.2591 N   0  0  0  0  0  0  0  0  0  0  0  0
    3.8073   -2.2104   39.3033 O   0  0  0  0  0  0  0  0  0  0  0  0
    1.8288   -1.6087   40.0446 O   0  0  0  0  0  0  0  0  0  0  0  0
    2.4768   -2.8560   36.8853 C   0  0  0  0  0  0  0  0  0  0  0  0
    1.9004   -3.5942   35.8391 C   0  0  0  0  0  0  0  0  0  0  0  0
    2.5418   -3.5642   34.4791 C   0  0  0  0  0  0  0  0  0  0  0  0
   -1.8675   -8.0729   33.7316 C   0  0  0  0  0  0  0  0  0  0  0  0
   -2.8720   -8.6485   35.0083 Cl  0  0  0  0  0  0  0  0  0  0  0  0
   -2.2101   -8.5015   32.4572 C   0  0  0  0  0  0  0  0  0  0  0  0
   -1.6730   -8.0263   31.3090 N   0  0  0  0  0  0  0  0  0  0  0  0
  1  2  1  0
  2  3  2  0
  3  4  1  0
  4  5  1  0
  5  6  2  0
  5  7  1  0
  7  8  1  0
  8  9  2  0
  9 10  1  0
 10 11  1  0
 10 12  2  0
 12 13  1  0
 13 14  2  0
 13 15  1  0
 12 16  1  0
 16 17  2  0
 17 18  1  0
  4 19  2  0
 19 20  1  0
 19 21  1  0
 21 22  2  0
 22  2  1  0
 17  8  1  0
M  CHG  2  13   1  15  -1
M  END
>  <ref_mols>  (605) 
7gov-a

>  <gnina_score>  (605) 
5.051

>  <smina_score_min>  (605) 
-6.132

>  <ref_pdb>  (605) 
7gov-a

>  <inspiration_score>  (605) 
None

>  <inchikey>  (605) 
JWKVELRORNTPRQ-UHFFFAOYSA-N

>  <tags>  (605) 
BulkDock Fragalysis export,openbind_d68ev3c_c2_elabs_scored,openbind_d68ev3c_c2_elabs_scored_4.5plus,openbind_d68ev3c_c2_elabs,openbind_d68ev3c_c2_elabs_scored_5plus,syndirella_product,openbind_d68ev3c_c2_elabs_scored_top80percent,syndirella_placed

>  <smiles>  (605) 
Cc1cc(C(=O)Nc2cc(F)c([N+](=O)[O-])cc2C)c(Cl)cn1

>  <subsites>  (605) 
None

>  <rmsd(smina/fragmenstein)>  (605) 
1.096

>  <alias>  (605) 
None

>  <energy_score>  (605) 
-18.9084

>  <HIPPO Pose ID>  (605) 
66375

>  <distance_score>  (605) 
0.614949

>  <HIPPO Compound ID>  (605) 
104564

>  <gnina_score_min>  (605) 
5.038

>  <name>  (605) 
P66375

>  <exports>  (605) 
['/opt/xchem-fragalysis-2/maxwin/BulkDock/OUTPUTS/openbind_d68ev3c_c2_elabs_1LOTQJ3.sdf', '/opt/xchem-fragalysis-2/maxwin/BulkDock/OUTPUTS/openbind_d68ev3c_c2_elabs_1LSYEHW.sdf', '/opt/xchem-fragalysis-2/maxwin/BulkDock/OUTPUTS/openbind_d68ev3c_c2_elabs_1LSYI5W.sdf']

$$$$
P66384
     RDKit          3D

 22 23  0  0  0  0  0  0  0  0999 V2000
    0.8978   -2.4113   31.9277 C   0  0  0  0  0  0  0  0  0  0  0  0
    0.7225   -2.9438   33.2438 O   0  0  0  0  0  0  0  0  0  0  0  0
    1.4791   -2.3244   34.1905 C   0  0  0  0  0  0  0  0  0  0  0  0
    2.2388   -1.3911   33.9781 O   0  0  0  0  0  0  0  0  0  0  0  0
    1.2288   -2.8793   35.5528 C   0  0  0  0  0  0  0  0  0  0  0  0
    1.6527   -2.0866   36.6367 C   0  0  0  0  0  0  0  0  0  0  0  0
    1.4320   -2.4962   37.9521 C   0  0  0  0  0  0  0  0  0  0  0  0
    0.7984   -3.7053   38.1879 C   0  0  0  0  0  0  0  0  0  0  0  0
    0.5045   -4.0593   39.4461 F   0  0  0  0  0  0  0  0  0  0  0  0
    0.4377   -4.5385   37.1356 C   0  0  0  0  0  0  0  0  0  0  0  0
    0.6588   -4.1395   35.8125 C   0  0  0  0  0  0  0  0  0  0  0  0
    0.2934   -5.0014   34.7795 N   0  0  0  0  0  0  0  0  0  0  0  0
    0.0366   -6.5241   34.7872 C   0  0  0  0  0  0  0  0  0  0  0  0
    0.1650   -7.3079   35.6411 O   0  0  0  0  0  0  0  0  0  0  0  0
   -0.5171   -6.9975   33.4842 C   0  0  0  0  0  0  0  0  0  0  0  0
    0.0405   -6.5395   32.2878 C   0  0  0  0  0  0  0  0  0  0  0  0
   -0.4957   -6.9943   31.0989 C   0  0  0  0  0  0  0  0  0  0  0  0
   -0.0447   -6.4690   29.9521 F   0  0  0  0  0  0  0  0  0  0  0  0
   -1.5063   -7.8853   31.0155 N   0  0  0  0  0  0  0  0  0  0  0  0
   -1.9891   -8.3450   32.1876 C   0  0  0  0  0  0  0  0  0  0  0  0
   -1.5636   -7.9199   33.4314 C   0  0  0  0  0  0  0  0  0  0  0  0
   -2.6848   -8.6202   35.0034 I   0  0  0  0  0  0  0  0  0  0  0  0
  1  2  1  0
  2  3  1  0
  3  4  2  0
  3  5  1  0
  5  6  2  0
  6  7  1  0
  7  8  2  0
  8  9  1  0
  8 10  1  0
 10 11  2  0
 11 12  1  0
 12 13  1  0
 13 14  2  0
 13 15  1  0
 15 16  2  0
 16 17  1  0
 17 18  1  0
 17 19  2  0
 19 20  1  0
 20 21  2  0
 21 22  1  0
 11  5  1  0
 21 15  1  0
M  END
>  <ref_mols>  (606) 
7gov-a

>  <gnina_score>  (606) 
5.191

>  <smina_score_min>  (606) 
-5.102

>  <ref_pdb>  (606) 
7gov-a

>  <inspiration_score>  (606) 
None

>  <inchikey>  (606) 
PSSFOLOCSTXQFY-UHFFFAOYSA-N

>  <tags>  (606) 
BulkDock Fragalysis export,openbind_d68ev3c_c2_elabs_scored,openbind_d68ev3c_c2_elabs_scored_4.5plus,openbind_d68ev3c_c2_elabs,openbind_d68ev3c_c2_elabs_scored_5plus,syndirella_product,openbind_d68ev3c_c2_elabs_scored_top80percent,syndirella_placed

>  <smiles>  (606) 
COC(=O)c1ccc(F)cc1NC(=O)c1cc(F)ncc1I

>  <subsites>  (606) 
None

>  <rmsd(smina/fragmenstein)>  (606) 
1.387

>  <alias>  (606) 
None

>  <energy_score>  (606) 
-27.683869

>  <HIPPO Pose ID>  (606) 
66384

>  <distance_score>  (606) 
0.862901

>  <HIPPO Compound ID>  (606) 
104591

>  <gnina_score_min>  (606) 
5.279

>  <name>  (606) 
P66384

>  <exports>  (606) 
['/opt/xchem-fragalysis-2/maxwin/BulkDock/OUTPUTS/openbind_d68ev3c_c2_elabs_1LOTQJ3.sdf', '/opt/xchem-fragalysis-2/maxwin/BulkDock/OUTPUTS/openbind_d68ev3c_c2_elabs_1LSYEHW.sdf', '/opt/xchem-fragalysis-2/maxwin/BulkDock/OUTPUTS/openbind_d68ev3c_c2_elabs_1LSYI5W.sdf']

$$$$
P66388
     RDKit          3D

 22 23  0  0  0  0  0  0  0  0999 V2000
    2.8392   -3.3819   33.3263 C   0  0  0  0  0  0  0  0  0  0  0  0
    2.3756   -3.4572   34.4316 C   0  0  0  0  0  0  0  0  0  0  0  0
    1.8175   -3.5472   35.7510 C   0  0  0  0  0  0  0  0  0  0  0  0
    2.3791   -2.7712   36.7727 C   0  0  0  0  0  0  0  0  0  0  0  0
    1.8956   -2.8771   38.0788 C   0  0  0  0  0  0  0  0  0  0  0  0
    2.5894   -1.8992   39.3162 Cl  0  0  0  0  0  0  0  0  0  0  0  0
    0.8572   -3.7553   38.3698 C   0  0  0  0  0  0  0  0  0  0  0  0
    0.3487   -3.8280   39.6100 F   0  0  0  0  0  0  0  0  0  0  0  0
    0.3163   -4.5473   37.3654 C   0  0  0  0  0  0  0  0  0  0  0  0
   -0.7122   -5.3554   37.6670 F   0  0  0  0  0  0  0  0  0  0  0  0
    0.7826   -4.4469   36.0494 C   0  0  0  0  0  0  0  0  0  0  0  0
    0.2148   -5.2292   35.0445 N   0  0  0  0  0  0  0  0  0  0  0  0
   -0.2472   -6.6994   35.0613 C   0  0  0  0  0  0  0  0  0  0  0  0
   -0.2972   -7.4648   35.9376 O   0  0  0  0  0  0  0  0  0  0  0  0
   -0.7389   -7.1663   33.7188 C   0  0  0  0  0  0  0  0  0  0  0  0
   -0.1369   -6.6949   32.5494 C   0  0  0  0  0  0  0  0  0  0  0  0
   -0.5765   -7.1954   31.3444 C   0  0  0  0  0  0  0  0  0  0  0  0
    0.0128   -6.7607   30.1993 O   0  0  0  0  0  0  0  0  0  0  0  0
   -1.5218   -8.1313   31.1917 N   0  0  0  0  0  0  0  0  0  0  0  0
   -2.0732   -8.5852   32.3355 C   0  0  0  0  0  0  0  0  0  0  0  0
   -1.7470   -8.1422   33.6125 C   0  0  0  0  0  0  0  0  0  0  0  0
   -2.4959   -8.7875   34.7368 C   0  0  0  0  0  0  0  0  0  0  0  0
  1  2  3  0
  2  3  1  0
  3  4  2  0
  4  5  1  0
  5  6  1  0
  5  7  2  0
  7  8  1  0
  7  9  1  0
  9 10  1  0
  9 11  2  0
 11 12  1  0
 12 13  1  0
 13 14  2  0
 13 15  1  0
 15 16  2  0
 16 17  1  0
 17 18  1  0
 17 19  2  0
 19 20  1  0
 20 21  2  0
 21 22  1  0
 11  3  1  0
 21 15  1  0
M  END
>  <ref_mols>  (607) 
7gov-a

>  <gnina_score>  (607) 
5.134

>  <smina_score_min>  (607) 
-5.936

>  <ref_pdb>  (607) 
7gov-a

>  <inspiration_score>  (607) 
None

>  <inchikey>  (607) 
FOXYLOBBAAQOHE-UHFFFAOYSA-N

>  <tags>  (607) 
BulkDock Fragalysis export,openbind_d68ev3c_c2_elabs_scored,openbind_d68ev3c_c2_elabs_scored_4.5plus,openbind_d68ev3c_c2_elabs,openbind_d68ev3c_c2_elabs_scored_5plus,syndirella_product,openbind_d68ev3c_c2_elabs_scored_top80percent,syndirella_placed

>  <smiles>  (607) 
C#Cc1cc(Cl)c(F)c(F)c1NC(=O)c1cc(O)ncc1C

>  <subsites>  (607) 
None

>  <rmsd(smina/fragmenstein)>  (607) 
0.875

>  <alias>  (607) 
None

>  <energy_score>  (607) 
-22.8087

>  <HIPPO Pose ID>  (607) 
66388

>  <distance_score>  (607) 
0.531748

>  <HIPPO Compound ID>  (607) 
104603

>  <gnina_score_min>  (607) 
5.011

>  <name>  (607) 
P66388

>  <exports>  (607) 
['/opt/xchem-fragalysis-2/maxwin/BulkDock/OUTPUTS/openbind_d68ev3c_c2_elabs_1LOTQJ3.sdf', '/opt/xchem-fragalysis-2/maxwin/BulkDock/OUTPUTS/openbind_d68ev3c_c2_elabs_1LSYEHW.sdf', '/opt/xchem-fragalysis-2/maxwin/BulkDock/OUTPUTS/openbind_d68ev3c_c2_elabs_1LSYI5W.sdf']

$$$$
P66389
     RDKit          3D

 22 23  0  0  0  0  0  0  0  0999 V2000
    3.4616   -4.6486   34.1370 C   0  0  0  0  0  0  0  0  0  0  0  0
    2.6845   -4.3213   34.9914 C   0  0  0  0  0  0  0  0  0  0  0  0
    1.8103   -3.9610   36.0696 C   0  0  0  0  0  0  0  0  0  0  0  0
    2.3677   -3.2375   37.1321 C   0  0  0  0  0  0  0  0  0  0  0  0
    1.5929   -2.9150   38.2417 C   0  0  0  0  0  0  0  0  0  0  0  0
    2.3177   -2.1009   39.5752 Cl  0  0  0  0  0  0  0  0  0  0  0  0
    0.2471   -3.2607   38.2676 C   0  0  0  0  0  0  0  0  0  0  0  0
   -0.4941   -3.0119   39.3567 F   0  0  0  0  0  0  0  0  0  0  0  0
   -0.3343   -3.8990   37.1781 C   0  0  0  0  0  0  0  0  0  0  0  0
   -1.6351   -4.2241   37.2207 F   0  0  0  0  0  0  0  0  0  0  0  0
    0.4415   -4.2828   36.0867 C   0  0  0  0  0  0  0  0  0  0  0  0
   -0.1377   -5.0830   35.1056 N   0  0  0  0  0  0  0  0  0  0  0  0
    0.2218   -6.5007   34.6328 C   0  0  0  0  0  0  0  0  0  0  0  0
    1.0102   -7.2555   35.0400 O   0  0  0  0  0  0  0  0  0  0  0  0
   -0.5262   -6.9057   33.4252 C   0  0  0  0  0  0  0  0  0  0  0  0
   -0.1021   -6.5105   32.1562 C   0  0  0  0  0  0  0  0  0  0  0  0
    1.0559   -5.2764   31.8619 Cl  0  0  0  0  0  0  0  0  0  0  0  0
   -0.6829   -7.1314   31.0592 C   0  0  0  0  0  0  0  0  0  0  0  0
   -1.6563   -8.0718   31.1410 N   0  0  0  0  0  0  0  0  0  0  0  0
   -2.0530   -8.4162   32.3844 C   0  0  0  0  0  0  0  0  0  0  0  0
   -1.5339   -7.8596   33.5386 C   0  0  0  0  0  0  0  0  0  0  0  0
   -2.3199   -8.3523   35.1641 Br  0  0  0  0  0  0  0  0  0  0  0  0
  1  2  3  0
  2  3  1  0
  3  4  2  0
  4  5  1  0
  5  6  1  0
  5  7  2  0
  7  8  1  0
  7  9  1  0
  9 10  1  0
  9 11  2  0
 11 12  1  0
 12 13  1  0
 13 14  2  0
 13 15  1  0
 15 16  2  0
 16 17  1  0
 16 18  1  0
 18 19  2  0
 19 20  1  0
 20 21  2  0
 21 22  1  0
 11  3  1  0
 21 15  1  0
M  END
>  <ref_mols>  (608) 
7gov-a

>  <gnina_score>  (608) 
5.549

>  <smina_score_min>  (608) 
-5.149

>  <ref_pdb>  (608) 
7gov-a

>  <inspiration_score>  (608) 
None

>  <inchikey>  (608) 
SCPRKODBTNXYLI-UHFFFAOYSA-N

>  <tags>  (608) 
BulkDock Fragalysis export,openbind_d68ev3c_c2_elabs_scored,openbind_d68ev3c_c2_elabs_scored_4.5plus,openbind_d68ev3c_c2_elabs,openbind_d68ev3c_c2_elabs_scored_5plus,syndirella_product,openbind_d68ev3c_c2_elabs_scored_top80percent,syndirella_placed

>  <smiles>  (608) 
C#Cc1cc(Cl)c(F)c(F)c1NC(=O)c1c(Cl)cncc1Br

>  <subsites>  (608) 
None

>  <rmsd(smina/fragmenstein)>  (608) 
0.365

>  <alias>  (608) 
None

>  <energy_score>  (608) 
-4.872307

>  <HIPPO Pose ID>  (608) 
66389

>  <distance_score>  (608) 
0.45605

>  <HIPPO Compound ID>  (608) 
104604

>  <gnina_score_min>  (608) 
5.478

>  <name>  (608) 
P66389

>  <exports>  (608) 
['/opt/xchem-fragalysis-2/maxwin/BulkDock/OUTPUTS/openbind_d68ev3c_c2_elabs_1LOTQJ3.sdf', '/opt/xchem-fragalysis-2/maxwin/BulkDock/OUTPUTS/openbind_d68ev3c_c2_elabs_1LSYEHW.sdf', '/opt/xchem-fragalysis-2/maxwin/BulkDock/OUTPUTS/openbind_d68ev3c_c2_elabs_1LSYI5W.sdf']

$$$$
P66390
     RDKit          3D

 22 23  0  0  0  0  0  0  0  0999 V2000
    3.1361   -3.0190   33.4221 C   0  0  0  0  0  0  0  0  0  0  0  0
    2.5825   -3.2180   34.4690 C   0  0  0  0  0  0  0  0  0  0  0  0
    1.9572   -3.4102   35.7436 C   0  0  0  0  0  0  0  0  0  0  0  0
    2.4623   -2.6917   36.8370 C   0  0  0  0  0  0  0  0  0  0  0  0
    1.9327   -2.8825   38.1188 C   0  0  0  0  0  0  0  0  0  0  0  0
    2.4723   -2.1721   39.2351 C   0  0  0  0  0  0  0  0  0  0  0  0
    2.9356   -1.5786   40.1195 N   0  0  0  0  0  0  0  0  0  0  0  0
    0.8907   -3.7840   38.2990 C   0  0  0  0  0  0  0  0  0  0  0  0
    0.3337   -3.9501   39.5077 F   0  0  0  0  0  0  0  0  0  0  0  0
    0.4021   -4.5260   37.2295 C   0  0  0  0  0  0  0  0  0  0  0  0
    0.9316   -4.3419   35.9470 C   0  0  0  0  0  0  0  0  0  0  0  0
    0.4023   -5.1098   34.9133 N   0  0  0  0  0  0  0  0  0  0  0  0
   -0.1034   -6.5637   34.9056 C   0  0  0  0  0  0  0  0  0  0  0  0
   -0.2287   -7.3241   35.7796 O   0  0  0  0  0  0  0  0  0  0  0  0
   -0.6086   -7.0378   33.5634 C   0  0  0  0  0  0  0  0  0  0  0  0
   -0.0874   -6.6371   32.3234 C   0  0  0  0  0  0  0  0  0  0  0  0
    1.1271   -5.4427   32.0753 Cl  0  0  0  0  0  0  0  0  0  0  0  0
   -0.5906   -7.2255   31.1635 C   0  0  0  0  0  0  0  0  0  0  0  0
   -1.5700   -8.1551   31.1338 N   0  0  0  0  0  0  0  0  0  0  0  0
   -2.0652   -8.5220   32.3290 C   0  0  0  0  0  0  0  0  0  0  0  0
   -1.6506   -7.9934   33.5416 C   0  0  0  0  0  0  0  0  0  0  0  0
   -2.7083   -8.5635   35.0106 Br  0  0  0  0  0  0  0  0  0  0  0  0
  1  2  3  0
  2  3  1  0
  3  4  2  0
  4  5  1  0
  5  6  1  0
  6  7  3  0
  5  8  2  0
  8  9  1  0
  8 10  1  0
 10 11  2  0
 11 12  1  0
 12 13  1  0
 13 14  2  0
 13 15  1  0
 15 16  2  0
 16 17  1  0
 16 18  1  0
 18 19  2  0
 19 20  1  0
 20 21  2  0
 21 22  1  0
 11  3  1  0
 21 15  1  0
M  END
>  <ref_mols>  (609) 
7gov-a

>  <gnina_score>  (609) 
5.363

>  <smina_score_min>  (609) 
-5.294

>  <ref_pdb>  (609) 
7gov-a

>  <inspiration_score>  (609) 
None

>  <inchikey>  (609) 
KKXVQPBQPAIKMJ-UHFFFAOYSA-N

>  <tags>  (609) 
BulkDock Fragalysis export,openbind_d68ev3c_c2_elabs_scored,openbind_d68ev3c_c2_elabs_scored_4.5plus,openbind_d68ev3c_c2_elabs,openbind_d68ev3c_c2_elabs_scored_5plus,syndirella_product,openbind_d68ev3c_c2_elabs_scored_top80percent,syndirella_placed

>  <smiles>  (609) 
C#Cc1cc(C#N)c(F)cc1NC(=O)c1c(Cl)cncc1Br

>  <subsites>  (609) 
None

>  <rmsd(smina/fragmenstein)>  (609) 
1.388

>  <alias>  (609) 
None

>  <energy_score>  (609) 
-24.327735

>  <HIPPO Pose ID>  (609) 
66390

>  <distance_score>  (609) 
0.518367

>  <HIPPO Compound ID>  (609) 
104605

>  <gnina_score_min>  (609) 
5.256

>  <name>  (609) 
P66390

>  <exports>  (609) 
['/opt/xchem-fragalysis-2/maxwin/BulkDock/OUTPUTS/openbind_d68ev3c_c2_elabs_1LOTQJ3.sdf', '/opt/xchem-fragalysis-2/maxwin/BulkDock/OUTPUTS/openbind_d68ev3c_c2_elabs_1LSYEHW.sdf', '/opt/xchem-fragalysis-2/maxwin/BulkDock/OUTPUTS/openbind_d68ev3c_c2_elabs_1LSYI5W.sdf']

$$$$
P66391
     RDKit          3D

 22 23  0  0  0  0  0  0  0  0999 V2000
    4.5776   -3.5692   34.7288 C   0  0  0  0  0  0  0  0  0  0  0  0
    3.1727   -4.1164   34.7261 C   0  0  0  0  0  0  0  0  0  0  0  0
    2.7569   -4.7442   33.7539 O   0  0  0  0  0  0  0  0  0  0  0  0
    2.2927   -3.8832   35.9171 C   0  0  0  0  0  0  0  0  0  0  0  0
    2.7179   -3.0174   36.9407 C   0  0  0  0  0  0  0  0  0  0  0  0
    1.9479   -2.8550   38.0939 C   0  0  0  0  0  0  0  0  0  0  0  0
    2.5775   -1.7313   39.4793 Br  0  0  0  0  0  0  0  0  0  0  0  0
    0.7396   -3.5256   38.2221 C   0  0  0  0  0  0  0  0  0  0  0  0
   -0.0040   -3.3973   39.3308 F   0  0  0  0  0  0  0  0  0  0  0  0
    0.2798   -4.3454   37.1993 C   0  0  0  0  0  0  0  0  0  0  0  0
    1.0495   -4.5374   36.0435 C   0  0  0  0  0  0  0  0  0  0  0  0
    0.5518   -5.3640   35.0330 N   0  0  0  0  0  0  0  0  0  0  0  0
   -0.7794   -6.1423   34.9379 C   0  0  0  0  0  0  0  0  0  0  0  0
   -1.6338   -6.2765   35.7206 O   0  0  0  0  0  0  0  0  0  0  0  0
   -0.9694   -6.8425   33.6154 C   0  0  0  0  0  0  0  0  0  0  0  0
   -1.6930   -8.0506   33.5870 C   0  0  0  0  0  0  0  0  0  0  0  0
   -2.5123   -8.7679   34.9201 Cl  0  0  0  0  0  0  0  0  0  0  0  0
   -1.8814   -8.6988   32.3747 C   0  0  0  0  0  0  0  0  0  0  0  0
   -1.4354   -8.2434   31.1883 N   0  0  0  0  0  0  0  0  0  0  0  0
   -0.7712   -7.0675   31.2237 C   0  0  0  0  0  0  0  0  0  0  0  0
   -0.5622   -6.3148   32.3795 C   0  0  0  0  0  0  0  0  0  0  0  0
    0.0227   -4.5333   32.0887 Br  0  0  0  0  0  0  0  0  0  0  0  0
  1  2  1  0
  2  3  2  0
  2  4  1  0
  4  5  2  0
  5  6  1  0
  6  7  1  0
  6  8  2  0
  8  9  1  0
  8 10  1  0
 10 11  2  0
 11 12  1  0
 12 13  1  0
 13 14  2  0
 13 15  1  0
 15 16  2  0
 16 17  1  0
 16 18  1  0
 18 19  2  0
 19 20  1  0
 20 21  2  0
 21 22  1  0
 11  4  1  0
 21 15  1  0
M  END
>  <ref_mols>  (610) 
7gov-a

>  <gnina_score>  (610) 
5.447

>  <smina_score_min>  (610) 
-6.264

>  <ref_pdb>  (610) 
7gov-a

>  <inspiration_score>  (610) 
None

>  <inchikey>  (610) 
LPGRNTZVTICESN-UHFFFAOYSA-N

>  <tags>  (610) 
BulkDock Fragalysis export,openbind_d68ev3c_c2_elabs_scored,openbind_d68ev3c_c2_elabs_scored_4.5plus,openbind_d68ev3c_c2_elabs,openbind_d68ev3c_c2_elabs_scored_5plus,syndirella_product,openbind_d68ev3c_c2_elabs_scored_top80percent,syndirella_placed

>  <smiles>  (610) 
CC(=O)c1cc(Br)c(F)cc1NC(=O)c1c(Cl)cncc1Br

>  <subsites>  (610) 
None

>  <rmsd(smina/fragmenstein)>  (610) 
1.372

>  <alias>  (610) 
None

>  <energy_score>  (610) 
-33.867277

>  <HIPPO Pose ID>  (610) 
66391

>  <distance_score>  (610) 
0.830838

>  <HIPPO Compound ID>  (610) 
104607

>  <gnina_score_min>  (610) 
5.413

>  <name>  (610) 
P66391

>  <exports>  (610) 
['/opt/xchem-fragalysis-2/maxwin/BulkDock/OUTPUTS/openbind_d68ev3c_c2_elabs_1LOTQJ3.sdf', '/opt/xchem-fragalysis-2/maxwin/BulkDock/OUTPUTS/openbind_d68ev3c_c2_elabs_1LSYEHW.sdf', '/opt/xchem-fragalysis-2/maxwin/BulkDock/OUTPUTS/openbind_d68ev3c_c2_elabs_1LSYI5W.sdf']

$$$$
P66392
     RDKit          3D

 22 23  0  0  0  0  0  0  0  0999 V2000
    0.3437   -3.8998   39.6809 C   0  0  0  0  0  0  0  0  0  0  0  0
    0.9391   -3.7275   38.3132 C   0  0  0  0  0  0  0  0  0  0  0  0
    0.4139   -4.4763   37.2497 C   0  0  0  0  0  0  0  0  0  0  0  0
    0.9127   -4.3237   35.9525 C   0  0  0  0  0  0  0  0  0  0  0  0
    0.3822   -5.0939   34.9301 N   0  0  0  0  0  0  0  0  0  0  0  0
   -0.1029   -6.5508   34.9272 C   0  0  0  0  0  0  0  0  0  0  0  0
   -0.2062   -7.3135   35.8010 O   0  0  0  0  0  0  0  0  0  0  0  0
   -0.6156   -7.0178   33.5877 C   0  0  0  0  0  0  0  0  0  0  0  0
   -1.6633   -7.9669   33.5929 C   0  0  0  0  0  0  0  0  0  0  0  0
   -2.6012   -8.4404   34.9675 Cl  0  0  0  0  0  0  0  0  0  0  0  0
   -2.0906   -8.5097   32.3912 C   0  0  0  0  0  0  0  0  0  0  0  0
   -1.6016   -8.1638   31.1853 N   0  0  0  0  0  0  0  0  0  0  0  0
   -0.6187   -7.2360   31.1908 C   0  0  0  0  0  0  0  0  0  0  0  0
   -0.1037   -6.6296   32.3372 C   0  0  0  0  0  0  0  0  0  0  0  0
    1.2337   -5.3215   32.0128 Br  0  0  0  0  0  0  0  0  0  0  0  0
    1.9447   -3.4255   35.7006 C   0  0  0  0  0  0  0  0  0  0  0  0
    2.4545   -3.3200   34.4646 F   0  0  0  0  0  0  0  0  0  0  0  0
    2.5126   -2.6947   36.7339 C   0  0  0  0  0  0  0  0  0  0  0  0
    2.0052   -2.8508   38.0314 C   0  0  0  0  0  0  0  0  0  0  0  0
    2.6391   -2.0769   39.0913 N   0  0  0  0  0  0  0  0  0  0  0  0
    3.8764   -2.1099   39.1608 O   0  0  0  0  0  0  0  0  0  0  0  0
    1.9027   -1.4141   39.8348 O   0  0  0  0  0  0  0  0  0  0  0  0
  1  2  1  0
  2  3  2  0
  3  4  1  0
  4  5  1  0
  5  6  1  0
  6  7  2  0
  6  8  1  0
  8  9  2  0
  9 10  1  0
  9 11  1  0
 11 12  2  0
 12 13  1  0
 13 14  2  0
 14 15  1  0
  4 16  2  0
 16 17  1  0
 16 18  1  0
 18 19  2  0
 19 20  1  0
 20 21  2  0
 20 22  1  0
 19  2  1  0
 14  8  1  0
M  CHG  2  20   1  22  -1
M  END
>  <ref_mols>  (611) 
7gov-a

>  <gnina_score>  (611) 
5.195

>  <smina_score_min>  (611) 
-5.816

>  <ref_pdb>  (611) 
7gov-a

>  <inspiration_score>  (611) 
None

>  <inchikey>  (611) 
IFGRZWHGMBWCCI-UHFFFAOYSA-N

>  <tags>  (611) 
BulkDock Fragalysis export,openbind_d68ev3c_c2_elabs_scored,openbind_d68ev3c_c2_elabs_scored_4.5plus,openbind_d68ev3c_c2_elabs,openbind_d68ev3c_c2_elabs_scored_5plus,syndirella_product,openbind_d68ev3c_c2_elabs_scored_top80percent,syndirella_placed

>  <smiles>  (611) 
Cc1cc(NC(=O)c2c(Cl)cncc2Br)c(F)cc1[N+](=O)[O-]

>  <subsites>  (611) 
None

>  <rmsd(smina/fragmenstein)>  (611) 
1.349

>  <alias>  (611) 
None

>  <energy_score>  (611) 
-37.294606

>  <HIPPO Pose ID>  (611) 
66392

>  <distance_score>  (611) 
0.511457

>  <HIPPO Compound ID>  (611) 
104613

>  <gnina_score_min>  (611) 
5.191

>  <name>  (611) 
P66392

>  <exports>  (611) 
['/opt/xchem-fragalysis-2/maxwin/BulkDock/OUTPUTS/openbind_d68ev3c_c2_elabs_1LOTQJ3.sdf', '/opt/xchem-fragalysis-2/maxwin/BulkDock/OUTPUTS/openbind_d68ev3c_c2_elabs_1LSYEHW.sdf', '/opt/xchem-fragalysis-2/maxwin/BulkDock/OUTPUTS/openbind_d68ev3c_c2_elabs_1LSYI5W.sdf']

$$$$
P66393
     RDKit          3D

 22 23  0  0  0  0  0  0  0  0999 V2000
    2.8592   -3.4530   34.5205 C   0  0  0  0  0  0  0  0  0  0  0  0
    2.0890   -3.5022   35.8123 C   0  0  0  0  0  0  0  0  0  0  0  0
    1.0229   -4.4034   35.9664 C   0  0  0  0  0  0  0  0  0  0  0  0
    0.5804   -5.1807   34.9011 N   0  0  0  0  0  0  0  0  0  0  0  0
    0.0130   -6.6102   34.8750 C   0  0  0  0  0  0  0  0  0  0  0  0
   -0.1025   -7.3921   35.7305 O   0  0  0  0  0  0  0  0  0  0  0  0
   -0.5517   -7.0288   33.5376 C   0  0  0  0  0  0  0  0  0  0  0  0
   -0.0543   -6.6134   32.2917 C   0  0  0  0  0  0  0  0  0  0  0  0
    1.1625   -5.4192   32.0321 Cl  0  0  0  0  0  0  0  0  0  0  0  0
   -0.5882   -7.1827   31.1358 C   0  0  0  0  0  0  0  0  0  0  0  0
   -1.5786   -8.1014   31.1155 N   0  0  0  0  0  0  0  0  0  0  0  0
   -2.0581   -8.4726   32.3159 C   0  0  0  0  0  0  0  0  0  0  0  0
   -1.6117   -7.9641   33.5255 C   0  0  0  0  0  0  0  0  0  0  0  0
   -2.6496   -8.5288   35.0095 Br  0  0  0  0  0  0  0  0  0  0  0  0
    0.3824   -4.5555   37.2029 C   0  0  0  0  0  0  0  0  0  0  0  0
    0.7681   -3.7794   38.2872 C   0  0  0  0  0  0  0  0  0  0  0  0
    0.1266   -3.9075   39.4558 F   0  0  0  0  0  0  0  0  0  0  0  0
    1.7942   -2.8598   38.1735 C   0  0  0  0  0  0  0  0  0  0  0  0
    2.4453   -2.7316   36.9406 C   0  0  0  0  0  0  0  0  0  0  0  0
    3.5073   -1.7381   36.8696 N   0  0  0  0  0  0  0  0  0  0  0  0
    3.4370   -0.8967   35.9622 O   0  0  0  0  0  0  0  0  0  0  0  0
    4.3846   -1.7744   37.7443 O   0  0  0  0  0  0  0  0  0  0  0  0
  1  2  1  0
  2  3  2  0
  3  4  1  0
  4  5  1  0
  5  6  2  0
  5  7  1  0
  7  8  2  0
  8  9  1  0
  8 10  1  0
 10 11  2  0
 11 12  1  0
 12 13  2  0
 13 14  1  0
  3 15  1  0
 15 16  2  0
 16 17  1  0
 16 18  1  0
 18 19  2  0
 19 20  1  0
 20 21  2  0
 20 22  1  0
 19  2  1  0
 13  7  1  0
M  CHG  2  20   1  22  -1
M  END
>  <ref_mols>  (612) 
7gov-a

>  <gnina_score>  (612) 
5.248

>  <smina_score_min>  (612) 
-5.661

>  <ref_pdb>  (612) 
7gov-a

>  <inspiration_score>  (612) 
None

>  <inchikey>  (612) 
NQVHIMXNPGJPCF-UHFFFAOYSA-N

>  <tags>  (612) 
BulkDock Fragalysis export,openbind_d68ev3c_c2_elabs_scored,openbind_d68ev3c_c2_elabs_scored_4.5plus,openbind_d68ev3c_c2_elabs,openbind_d68ev3c_c2_elabs_scored_5plus,syndirella_product,openbind_d68ev3c_c2_elabs_scored_top80percent,syndirella_placed

>  <smiles>  (612) 
Cc1c(NC(=O)c2c(Cl)cncc2Br)cc(F)cc1[N+](=O)[O-]

>  <subsites>  (612) 
None

>  <rmsd(smina/fragmenstein)>  (612) 
1.353

>  <alias>  (612) 
None

>  <energy_score>  (612) 
-36.545438

>  <HIPPO Pose ID>  (612) 
66393

>  <distance_score>  (612) 
0.46829

>  <HIPPO Compound ID>  (612) 
104614

>  <gnina_score_min>  (612) 
5.175

>  <name>  (612) 
P66393

>  <exports>  (612) 
['/opt/xchem-fragalysis-2/maxwin/BulkDock/OUTPUTS/openbind_d68ev3c_c2_elabs_1LOTQJ3.sdf', '/opt/xchem-fragalysis-2/maxwin/BulkDock/OUTPUTS/openbind_d68ev3c_c2_elabs_1LSYEHW.sdf', '/opt/xchem-fragalysis-2/maxwin/BulkDock/OUTPUTS/openbind_d68ev3c_c2_elabs_1LSYI5W.sdf']

$$$$
P66394
     RDKit          3D

 22 23  0  0  0  0  0  0  0  0999 V2000
    4.0683   -4.2120   34.7153 C   0  0  0  0  0  0  0  0  0  0  0  0
    2.8263   -3.3635   34.7849 C   0  0  0  0  0  0  0  0  0  0  0  0
    2.5742   -2.4571   33.9946 O   0  0  0  0  0  0  0  0  0  0  0  0
    1.9600   -3.5246   35.9658 C   0  0  0  0  0  0  0  0  0  0  0  0
    2.4504   -2.9320   37.1444 C   0  0  0  0  0  0  0  0  0  0  0  0
    1.6864   -2.9380   38.3087 C   0  0  0  0  0  0  0  0  0  0  0  0
    0.4233   -3.5090   38.2833 C   0  0  0  0  0  0  0  0  0  0  0  0
   -0.3038   -3.5341   39.4081 F   0  0  0  0  0  0  0  0  0  0  0  0
   -0.0802   -4.0654   37.1113 C   0  0  0  0  0  0  0  0  0  0  0  0
   -1.3022   -4.6250   37.1238 F   0  0  0  0  0  0  0  0  0  0  0  0
    0.6826   -4.1018   35.9363 C   0  0  0  0  0  0  0  0  0  0  0  0
    0.1210   -4.8021   34.8604 N   0  0  0  0  0  0  0  0  0  0  0  0
    0.7831   -5.4226   33.6153 C   0  0  0  0  0  0  0  0  0  0  0  0
    1.8878   -5.3832   33.2493 O   0  0  0  0  0  0  0  0  0  0  0  0
   -0.1465   -6.2845   32.8278 C   0  0  0  0  0  0  0  0  0  0  0  0
   -0.1049   -6.1973   31.4326 C   0  0  0  0  0  0  0  0  0  0  0  0
    0.7153   -4.9558   30.5547 Cl  0  0  0  0  0  0  0  0  0  0  0  0
   -0.8210   -7.1290   30.6946 C   0  0  0  0  0  0  0  0  0  0  0  0
   -1.6145   -8.0912   31.2271 N   0  0  0  0  0  0  0  0  0  0  0  0
   -1.6398   -8.1553   32.5757 C   0  0  0  0  0  0  0  0  0  0  0  0
   -0.9268   -7.2981   33.4097 C   0  0  0  0  0  0  0  0  0  0  0  0
   -1.0586   -7.6297   35.2648 Br  0  0  0  0  0  0  0  0  0  0  0  0
  1  2  1  0
  2  3  2  0
  2  4  1  0
  4  5  2  0
  5  6  1  0
  6  7  2  0
  7  8  1  0
  7  9  1  0
  9 10  1  0
  9 11  2  0
 11 12  1  0
 12 13  1  0
 13 14  2  0
 13 15  1  0
 15 16  2  0
 16 17  1  0
 16 18  1  0
 18 19  2  0
 19 20  1  0
 20 21  2  0
 21 22  1  0
 11  4  1  0
 21 15  1  0
M  END
>  <ref_mols>  (613) 
7gov-a

>  <gnina_score>  (613) 
5.179

>  <smina_score_min>  (613) 
-4.883

>  <ref_pdb>  (613) 
7gov-a

>  <inspiration_score>  (613) 
None

>  <inchikey>  (613) 
WNCWRRJJZOMMIG-UHFFFAOYSA-N

>  <tags>  (613) 
BulkDock Fragalysis export,openbind_d68ev3c_c2_elabs_scored,openbind_d68ev3c_c2_elabs_scored_4.5plus,openbind_d68ev3c_c2_elabs,openbind_d68ev3c_c2_elabs_scored_5plus,syndirella_product,openbind_d68ev3c_c2_elabs_scored_top80percent,syndirella_placed

>  <smiles>  (613) 
CC(=O)c1ccc(F)c(F)c1NC(=O)c1c(Cl)cncc1Br

>  <subsites>  (613) 
None

>  <rmsd(smina/fragmenstein)>  (613) 
2.137

>  <alias>  (613) 
None

>  <energy_score>  (613) 
-34.456821

>  <HIPPO Pose ID>  (613) 
66394

>  <distance_score>  (613) 
1.030046

>  <HIPPO Compound ID>  (613) 
104615

>  <gnina_score_min>  (613) 
5.282

>  <name>  (613) 
P66394

>  <exports>  (613) 
['/opt/xchem-fragalysis-2/maxwin/BulkDock/OUTPUTS/openbind_d68ev3c_c2_elabs_1LOTQJ3.sdf', '/opt/xchem-fragalysis-2/maxwin/BulkDock/OUTPUTS/openbind_d68ev3c_c2_elabs_1LSYEHW.sdf', '/opt/xchem-fragalysis-2/maxwin/BulkDock/OUTPUTS/openbind_d68ev3c_c2_elabs_1LSYI5W.sdf']

$$$$
P66395
     RDKit          3D

 22 24  0  0  0  0  0  0  0  0999 V2000
    4.4021   -2.1772   37.5271 O   0  0  0  0  0  0  0  0  0  0  0  0
    3.6172   -2.7951   36.8342 C   0  0  0  0  0  0  0  0  0  0  0  0
    3.8477   -3.3248   35.5826 N   0  0  0  0  0  0  0  0  0  0  0  0
    2.7508   -4.1561   35.1341 C   0  0  0  0  0  0  0  0  0  0  0  0
    1.6892   -3.8936   36.1510 C   0  0  0  0  0  0  0  0  0  0  0  0
    0.3518   -4.2616   36.1966 C   0  0  0  0  0  0  0  0  0  0  0  0
   -0.2057   -5.0860   35.2343 N   0  0  0  0  0  0  0  0  0  0  0  0
    0.2672   -6.4400   34.6853 C   0  0  0  0  0  0  0  0  0  0  0  0
    1.1587   -7.1151   35.0078 O   0  0  0  0  0  0  0  0  0  0  0  0
   -0.5101   -6.8827   33.5102 C   0  0  0  0  0  0  0  0  0  0  0  0
   -1.5206   -7.8227   33.6864 C   0  0  0  0  0  0  0  0  0  0  0  0
   -2.1722   -8.2111   35.2184 Cl  0  0  0  0  0  0  0  0  0  0  0  0
   -2.0720   -8.4135   32.5607 C   0  0  0  0  0  0  0  0  0  0  0  0
   -1.7049   -8.1158   31.2929 N   0  0  0  0  0  0  0  0  0  0  0  0
   -0.7236   -7.1902   31.1538 C   0  0  0  0  0  0  0  0  0  0  0  0
   -0.1108   -6.5397   32.2163 C   0  0  0  0  0  0  0  0  0  0  0  0
    1.1860   -5.2240   31.8176 Br  0  0  0  0  0  0  0  0  0  0  0  0
   -0.4121   -3.8714   37.2932 C   0  0  0  0  0  0  0  0  0  0  0  0
    0.1950   -3.1769   38.3502 C   0  0  0  0  0  0  0  0  0  0  0  0
   -0.5194   -2.9324   39.4550 F   0  0  0  0  0  0  0  0  0  0  0  0
    1.5188   -2.7621   38.3018 C   0  0  0  0  0  0  0  0  0  0  0  0
    2.2289   -3.1141   37.1767 C   0  0  0  0  0  0  0  0  0  0  0  0
  1  2  2  0
  2  3  1  0
  3  4  1  0
  4  5  1  0
  5  6  2  0
  6  7  1  0
  7  8  1  0
  8  9  2  0
  8 10  1  0
 10 11  2  0
 11 12  1  0
 11 13  1  0
 13 14  2  0
 14 15  1  0
 15 16  2  0
 16 17  1  0
  6 18  1  0
 18 19  2  0
 19 20  1  0
 19 21  1  0
 21 22  2  0
 22  2  1  0
 22  5  1  0
 16 10  1  0
M  END
>  <ref_mols>  (614) 
7gov-a

>  <gnina_score>  (614) 
5.103

>  <smina_score_min>  (614) 
-5.991

>  <ref_pdb>  (614) 
7gov-a

>  <inspiration_score>  (614) 
None

>  <inchikey>  (614) 
FKVXSPGZSJGHIH-UHFFFAOYSA-N

>  <tags>  (614) 
BulkDock Fragalysis export,openbind_d68ev3c_c2_elabs_scored,openbind_d68ev3c_c2_elabs_scored_4.5plus,openbind_d68ev3c_c2_elabs,openbind_d68ev3c_c2_elabs_scored_5plus,syndirella_product,openbind_d68ev3c_c2_elabs_scored_top80percent,syndirella_placed

>  <smiles>  (614) 
O=C1NCc2c(NC(=O)c3c(Cl)cncc3Br)cc(F)cc21

>  <subsites>  (614) 
None

>  <rmsd(smina/fragmenstein)>  (614) 
1.905

>  <alias>  (614) 
None

>  <energy_score>  (614) 
-20.672964

>  <HIPPO Pose ID>  (614) 
66395

>  <distance_score>  (614) 
0.50851

>  <HIPPO Compound ID>  (614) 
104616

>  <gnina_score_min>  (614) 
5.211

>  <name>  (614) 
P66395

>  <exports>  (614) 
['/opt/xchem-fragalysis-2/maxwin/BulkDock/OUTPUTS/openbind_d68ev3c_c2_elabs_1LOTQJ3.sdf', '/opt/xchem-fragalysis-2/maxwin/BulkDock/OUTPUTS/openbind_d68ev3c_c2_elabs_1LSYEHW.sdf', '/opt/xchem-fragalysis-2/maxwin/BulkDock/OUTPUTS/openbind_d68ev3c_c2_elabs_1LSYI5W.sdf']

$$$$
P66399
     RDKit          3D

 22 23  0  0  0  0  0  0  0  0999 V2000
    2.7360   -4.1281   34.8958 C   0  0  0  0  0  0  0  0  0  0  0  0
    1.8313   -3.8730   36.0706 C   0  0  0  0  0  0  0  0  0  0  0  0
    2.3645   -3.2315   37.1968 C   0  0  0  0  0  0  0  0  0  0  0  0
    1.5711   -3.0601   38.3314 C   0  0  0  0  0  0  0  0  0  0  0  0
    2.1630   -2.5081   39.5318 N   0  0  0  0  0  0  0  0  0  0  0  0
    1.8668   -3.0194   40.6207 O   0  0  0  0  0  0  0  0  0  0  0  0
    2.9509   -1.5605   39.3876 O   0  0  0  0  0  0  0  0  0  0  0  0
    0.2347   -3.4356   38.3280 C   0  0  0  0  0  0  0  0  0  0  0  0
   -0.5348   -3.2776   39.4121 F   0  0  0  0  0  0  0  0  0  0  0  0
   -0.3325   -3.9997   37.1878 C   0  0  0  0  0  0  0  0  0  0  0  0
    0.4732   -4.2495   36.0785 C   0  0  0  0  0  0  0  0  0  0  0  0
   -0.0408   -5.0191   35.0474 N   0  0  0  0  0  0  0  0  0  0  0  0
    0.2476   -6.4773   34.6492 C   0  0  0  0  0  0  0  0  0  0  0  0
    1.0190   -7.2389   35.0770 O   0  0  0  0  0  0  0  0  0  0  0  0
   -0.5306   -6.9105   33.4730 C   0  0  0  0  0  0  0  0  0  0  0  0
   -1.5419   -7.8497   33.6556 C   0  0  0  0  0  0  0  0  0  0  0  0
   -2.2013   -8.2264   35.1890 Cl  0  0  0  0  0  0  0  0  0  0  0  0
   -2.0954   -8.4425   32.5339 C   0  0  0  0  0  0  0  0  0  0  0  0
   -1.7291   -8.1480   31.2655 N   0  0  0  0  0  0  0  0  0  0  0  0
   -0.7492   -7.2230   31.1199 C   0  0  0  0  0  0  0  0  0  0  0  0
   -0.1345   -6.5685   32.1774 C   0  0  0  0  0  0  0  0  0  0  0  0
    1.1652   -5.2627   31.7585 Br  0  0  0  0  0  0  0  0  0  0  0  0
  1  2  1  0
  2  3  2  0
  3  4  1  0
  4  5  1  0
  5  6  2  0
  5  7  1  0
  4  8  2  0
  8  9  1  0
  8 10  1  0
 10 11  2  0
 11 12  1  0
 12 13  1  0
 13 14  2  0
 13 15  1  0
 15 16  2  0
 16 17  1  0
 16 18  1  0
 18 19  2  0
 19 20  1  0
 20 21  2  0
 21 22  1  0
 11  2  1  0
 21 15  1  0
M  CHG  2   5   1   7  -1
M  END
>  <ref_mols>  (615) 
7gov-a

>  <gnina_score>  (615) 
5.225

>  <smina_score_min>  (615) 
-5.912

>  <ref_pdb>  (615) 
7gov-a

>  <inspiration_score>  (615) 
None

>  <inchikey>  (615) 
QSKAKVRCRQMQPM-UHFFFAOYSA-N

>  <tags>  (615) 
BulkDock Fragalysis export,openbind_d68ev3c_c2_elabs_scored,openbind_d68ev3c_c2_elabs_scored_4.5plus,openbind_d68ev3c_c2_elabs,openbind_d68ev3c_c2_elabs_scored_5plus,syndirella_product,openbind_d68ev3c_c2_elabs_scored_top80percent,syndirella_placed

>  <smiles>  (615) 
Cc1cc([N+](=O)[O-])c(F)cc1NC(=O)c1c(Cl)cncc1Br

>  <subsites>  (615) 
None

>  <rmsd(smina/fragmenstein)>  (615) 
1.119

>  <alias>  (615) 
None

>  <energy_score>  (615) 
-17.758244

>  <HIPPO Pose ID>  (615) 
66399

>  <distance_score>  (615) 
0.387184

>  <HIPPO Compound ID>  (615) 
104631

>  <gnina_score_min>  (615) 
5.156

>  <name>  (615) 
P66399

>  <exports>  (615) 
['/opt/xchem-fragalysis-2/maxwin/BulkDock/OUTPUTS/openbind_d68ev3c_c2_elabs_1LOTQJ3.sdf', '/opt/xchem-fragalysis-2/maxwin/BulkDock/OUTPUTS/openbind_d68ev3c_c2_elabs_1LSYEHW.sdf', '/opt/xchem-fragalysis-2/maxwin/BulkDock/OUTPUTS/openbind_d68ev3c_c2_elabs_1LSYI5W.sdf']

$$$$
P66400
     RDKit          3D

 22 23  0  0  0  0  0  0  0  0999 V2000
    3.8926   -4.4835   34.3706 C   0  0  0  0  0  0  0  0  0  0  0  0
    2.8433   -3.4197   34.5540 C   0  0  0  0  0  0  0  0  0  0  0  0
    2.6588   -2.5030   33.7605 O   0  0  0  0  0  0  0  0  0  0  0  0
    2.0503   -3.4676   35.7914 C   0  0  0  0  0  0  0  0  0  0  0  0
    2.4561   -2.6610   36.8577 C   0  0  0  0  0  0  0  0  0  0  0  0
    1.8210   -2.8014   38.0855 C   0  0  0  0  0  0  0  0  0  0  0  0
    2.2019   -2.0286   39.1125 F   0  0  0  0  0  0  0  0  0  0  0  0
    0.8049   -3.7362   38.2532 C   0  0  0  0  0  0  0  0  0  0  0  0
    0.1913   -3.8565   39.4389 F   0  0  0  0  0  0  0  0  0  0  0  0
    0.4051   -4.5447   37.1925 C   0  0  0  0  0  0  0  0  0  0  0  0
    1.0167   -4.3973   35.9441 C   0  0  0  0  0  0  0  0  0  0  0  0
    0.5737   -5.1735   34.8793 N   0  0  0  0  0  0  0  0  0  0  0  0
    0.0488   -6.6173   34.8468 C   0  0  0  0  0  0  0  0  0  0  0  0
   -0.0244   -7.4128   35.6939 O   0  0  0  0  0  0  0  0  0  0  0  0
   -0.5332   -7.0281   33.5180 C   0  0  0  0  0  0  0  0  0  0  0  0
   -0.0402   -6.6126   32.2714 C   0  0  0  0  0  0  0  0  0  0  0  0
    1.1887   -5.4307   32.0175 Cl  0  0  0  0  0  0  0  0  0  0  0  0
   -0.5862   -7.1748   31.1189 C   0  0  0  0  0  0  0  0  0  0  0  0
   -1.5828   -8.0880   31.1057 N   0  0  0  0  0  0  0  0  0  0  0  0
   -2.0571   -8.4583   32.3089 C   0  0  0  0  0  0  0  0  0  0  0  0
   -1.5983   -7.9551   33.5151 C   0  0  0  0  0  0  0  0  0  0  0  0
   -2.6199   -8.5110   35.0118 Br  0  0  0  0  0  0  0  0  0  0  0  0
  1  2  1  0
  2  3  2  0
  2  4  1  0
  4  5  2  0
  5  6  1  0
  6  7  1  0
  6  8  2  0
  8  9  1  0
  8 10  1  0
 10 11  2  0
 11 12  1  0
 12 13  1  0
 13 14  2  0
 13 15  1  0
 15 16  2  0
 16 17  1  0
 16 18  1  0
 18 19  2  0
 19 20  1  0
 20 21  2  0
 21 22  1  0
 11  4  1  0
 21 15  1  0
M  END
>  <ref_mols>  (616) 
7gov-a

>  <gnina_score>  (616) 
5.302

>  <smina_score_min>  (616) 
-5.436

>  <ref_pdb>  (616) 
7gov-a

>  <inspiration_score>  (616) 
None

>  <inchikey>  (616) 
FFZVIFOBRMQDJW-UHFFFAOYSA-N

>  <tags>  (616) 
BulkDock Fragalysis export,openbind_d68ev3c_c2_elabs_scored,openbind_d68ev3c_c2_elabs_scored_4.5plus,openbind_d68ev3c_c2_elabs,openbind_d68ev3c_c2_elabs_scored_5plus,syndirella_product,openbind_d68ev3c_c2_elabs_scored_top80percent,syndirella_placed

>  <smiles>  (616) 
CC(=O)c1cc(F)c(F)cc1NC(=O)c1c(Cl)cncc1Br

>  <subsites>  (616) 
None

>  <rmsd(smina/fragmenstein)>  (616) 
1.505

>  <alias>  (616) 
None

>  <energy_score>  (616) 
-25.486597

>  <HIPPO Pose ID>  (616) 
66400

>  <distance_score>  (616) 
0.46808

>  <HIPPO Compound ID>  (616) 
104632

>  <gnina_score_min>  (616) 
5.274

>  <name>  (616) 
P66400

>  <exports>  (616) 
['/opt/xchem-fragalysis-2/maxwin/BulkDock/OUTPUTS/openbind_d68ev3c_c2_elabs_1LOTQJ3.sdf', '/opt/xchem-fragalysis-2/maxwin/BulkDock/OUTPUTS/openbind_d68ev3c_c2_elabs_1LSYEHW.sdf', '/opt/xchem-fragalysis-2/maxwin/BulkDock/OUTPUTS/openbind_d68ev3c_c2_elabs_1LSYI5W.sdf']

$$$$
P66401
     RDKit          3D

 22 23  0  0  0  0  0  0  0  0999 V2000
   -0.1058   -7.4199   35.7785 O   0  0  0  0  0  0  0  0  0  0  0  0
   -0.0518   -6.6497   34.9068 C   0  0  0  0  0  0  0  0  0  0  0  0
    0.3819   -5.1712   34.9064 N   0  0  0  0  0  0  0  0  0  0  0  0
    0.9110   -4.3850   35.9238 C   0  0  0  0  0  0  0  0  0  0  0  0
    0.3892   -4.5433   37.2123 C   0  0  0  0  0  0  0  0  0  0  0  0
    0.8416   -3.7333   38.2448 C   0  0  0  0  0  0  0  0  0  0  0  0
    0.3036   -3.8546   39.4658 F   0  0  0  0  0  0  0  0  0  0  0  0
    1.8332   -2.7889   38.0243 C   0  0  0  0  0  0  0  0  0  0  0  0
    2.3760   -2.6494   36.7458 C   0  0  0  0  0  0  0  0  0  0  0  0
    1.9105   -3.4360   35.6735 C   0  0  0  0  0  0  0  0  0  0  0  0
    2.5771   -3.3214   34.3298 C   0  0  0  0  0  0  0  0  0  0  0  0
    1.7395   -3.6169   33.2877 F   0  0  0  0  0  0  0  0  0  0  0  0
    3.6494   -4.1442   34.1833 F   0  0  0  0  0  0  0  0  0  0  0  0
    3.0359   -2.0629   34.0691 F   0  0  0  0  0  0  0  0  0  0  0  0
   -0.5699   -7.0964   33.5714 C   0  0  0  0  0  0  0  0  0  0  0  0
    0.0209   -6.6452   32.3860 C   0  0  0  0  0  0  0  0  0  0  0  0
   -0.5085   -7.0655   31.1795 C   0  0  0  0  0  0  0  0  0  0  0  0
   -0.0272   -6.5327   30.0488 F   0  0  0  0  0  0  0  0  0  0  0  0
   -1.5369   -7.9300   31.0640 N   0  0  0  0  0  0  0  0  0  0  0  0
   -2.0513   -8.3920   32.2206 C   0  0  0  0  0  0  0  0  0  0  0  0
   -1.6417   -7.9920   33.4796 C   0  0  0  0  0  0  0  0  0  0  0  0
   -2.8367   -8.6973   35.0089 I   0  0  0  0  0  0  0  0  0  0  0  0
  1  2  2  0
  2  3  1  0
  3  4  1  0
  4  5  2  0
  5  6  1  0
  6  7  1  0
  6  8  2  0
  8  9  1  0
  9 10  2  0
 10 11  1  0
 11 12  1  0
 11 13  1  0
 11 14  1  0
  2 15  1  0
 15 16  2  0
 16 17  1  0
 17 18  1  0
 17 19  2  0
 19 20  1  0
 20 21  2  0
 21 22  1  0
 10  4  1  0
 21 15  1  0
M  END
>  <ref_mols>  (617) 
7gov-a

>  <gnina_score>  (617) 
5.242

>  <smina_score_min>  (617) 
-5.375

>  <ref_pdb>  (617) 
7gov-a

>  <inspiration_score>  (617) 
None

>  <inchikey>  (617) 
UKCOZYFDTOXXIP-UHFFFAOYSA-N

>  <tags>  (617) 
BulkDock Fragalysis export,openbind_d68ev3c_c2_elabs_scored,openbind_d68ev3c_c2_elabs_scored_4.5plus,openbind_d68ev3c_c2_elabs,openbind_d68ev3c_c2_elabs_scored_5plus,syndirella_product,openbind_d68ev3c_c2_elabs_scored_top80percent,syndirella_placed

>  <smiles>  (617) 
O=C(Nc1cc(F)ccc1C(F)(F)F)c1cc(F)ncc1I

>  <subsites>  (617) 
None

>  <rmsd(smina/fragmenstein)>  (617) 
1.083

>  <alias>  (617) 
None

>  <energy_score>  (617) 
-9.471164

>  <HIPPO Pose ID>  (617) 
66401

>  <distance_score>  (617) 
0.523953

>  <HIPPO Compound ID>  (617) 
104633

>  <gnina_score_min>  (617) 
5.396

>  <name>  (617) 
P66401

>  <exports>  (617) 
['/opt/xchem-fragalysis-2/maxwin/BulkDock/OUTPUTS/openbind_d68ev3c_c2_elabs_1LOTQJ3.sdf', '/opt/xchem-fragalysis-2/maxwin/BulkDock/OUTPUTS/openbind_d68ev3c_c2_elabs_1LSYEHW.sdf', '/opt/xchem-fragalysis-2/maxwin/BulkDock/OUTPUTS/openbind_d68ev3c_c2_elabs_1LSYI5W.sdf']

$$$$
P66404
     RDKit          3D

 22 23  0  0  0  0  0  0  0  0999 V2000
   -0.4214   -7.3583   35.9970 O   0  0  0  0  0  0  0  0  0  0  0  0
   -0.2290   -6.6684   35.0781 C   0  0  0  0  0  0  0  0  0  0  0  0
    0.4454   -5.2829   34.9919 N   0  0  0  0  0  0  0  0  0  0  0  0
    0.9216   -4.4454   35.9962 C   0  0  0  0  0  0  0  0  0  0  0  0
    0.3647   -4.5428   37.2756 C   0  0  0  0  0  0  0  0  0  0  0  0
    0.8029   -3.6983   38.2867 C   0  0  0  0  0  0  0  0  0  0  0  0
    0.2443   -3.7761   39.5019 F   0  0  0  0  0  0  0  0  0  0  0  0
    1.8051   -2.7684   38.0534 C   0  0  0  0  0  0  0  0  0  0  0  0
    2.3750   -2.6792   36.7829 C   0  0  0  0  0  0  0  0  0  0  0  0
    1.9317   -3.5078   35.7329 C   0  0  0  0  0  0  0  0  0  0  0  0
    2.6272   -3.4363   34.3995 C   0  0  0  0  0  0  0  0  0  0  0  0
    3.7208   -4.2392   34.3129 F   0  0  0  0  0  0  0  0  0  0  0  0
    1.8212   -3.7951   33.3521 F   0  0  0  0  0  0  0  0  0  0  0  0
    3.0636   -2.1797   34.0949 F   0  0  0  0  0  0  0  0  0  0  0  0
   -0.7230   -7.1689   33.7462 C   0  0  0  0  0  0  0  0  0  0  0  0
   -0.1224   -6.7811   32.5403 C   0  0  0  0  0  0  0  0  0  0  0  0
   -0.6496   -7.2495   31.3500 C   0  0  0  0  0  0  0  0  0  0  0  0
   -0.1639   -6.7679   30.1993 F   0  0  0  0  0  0  0  0  0  0  0  0
   -1.6782   -8.1159   31.2675 N   0  0  0  0  0  0  0  0  0  0  0  0
   -2.2030   -8.5238   32.4426 C   0  0  0  0  0  0  0  0  0  0  0  0
   -1.7991   -8.0674   33.6879 C   0  0  0  0  0  0  0  0  0  0  0  0
   -2.7767   -8.5681   35.0153 Cl  0  0  0  0  0  0  0  0  0  0  0  0
  1  2  2  0
  2  3  1  0
  3  4  1  0
  4  5  2  0
  5  6  1  0
  6  7  1  0
  6  8  2  0
  8  9  1  0
  9 10  2  0
 10 11  1  0
 11 12  1  0
 11 13  1  0
 11 14  1  0
  2 15  1  0
 15 16  2  0
 16 17  1  0
 17 18  1  0
 17 19  2  0
 19 20  1  0
 20 21  2  0
 21 22  1  0
 10  4  1  0
 21 15  1  0
M  END
>  <ref_mols>  (618) 
7gov-a

>  <gnina_score>  (618) 
5.144

>  <smina_score_min>  (618) 
-6.205

>  <ref_pdb>  (618) 
7gov-a

>  <inspiration_score>  (618) 
None

>  <inchikey>  (618) 
HRAVVFZROKIIQR-UHFFFAOYSA-N

>  <tags>  (618) 
BulkDock Fragalysis export,openbind_d68ev3c_c2_elabs_scored,openbind_d68ev3c_c2_elabs_scored_4.5plus,openbind_d68ev3c_c2_elabs,openbind_d68ev3c_c2_elabs_scored_5plus,syndirella_product,openbind_d68ev3c_c2_elabs_scored_top80percent,syndirella_placed

>  <smiles>  (618) 
O=C(Nc1cc(F)ccc1C(F)(F)F)c1cc(F)ncc1Cl

>  <subsites>  (618) 
None

>  <rmsd(smina/fragmenstein)>  (618) 
1.127

>  <alias>  (618) 
None

>  <energy_score>  (618) 
-6.942861

>  <HIPPO Pose ID>  (618) 
66404

>  <distance_score>  (618) 
0.546333

>  <HIPPO Compound ID>  (618) 
104640

>  <gnina_score_min>  (618) 
5.173

>  <name>  (618) 
P66404

>  <exports>  (618) 
['/opt/xchem-fragalysis-2/maxwin/BulkDock/OUTPUTS/openbind_d68ev3c_c2_elabs_1LOTQJ3.sdf', '/opt/xchem-fragalysis-2/maxwin/BulkDock/OUTPUTS/openbind_d68ev3c_c2_elabs_1LSYEHW.sdf', '/opt/xchem-fragalysis-2/maxwin/BulkDock/OUTPUTS/openbind_d68ev3c_c2_elabs_1LSYI5W.sdf']

$$$$
P66405
     RDKit          3D

 22 23  0  0  0  0  0  0  0  0999 V2000
    0.1278   -3.4453   39.5344 C   0  0  0  0  0  0  0  0  0  0  0  0
    0.8708   -3.5659   38.2342 C   0  0  0  0  0  0  0  0  0  0  0  0
    0.3681   -4.4327   37.2504 C   0  0  0  0  0  0  0  0  0  0  0  0
    1.0483   -4.6192   36.0419 C   0  0  0  0  0  0  0  0  0  0  0  0
    0.5753   -5.5164   35.0912 N   0  0  0  0  0  0  0  0  0  0  0  0
   -0.7572   -6.2931   35.0211 C   0  0  0  0  0  0  0  0  0  0  0  0
   -1.6328   -6.3610   35.7873 O   0  0  0  0  0  0  0  0  0  0  0  0
   -0.9565   -7.0039   33.7122 C   0  0  0  0  0  0  0  0  0  0  0  0
   -0.4309   -6.4841   32.5207 C   0  0  0  0  0  0  0  0  0  0  0  0
   -0.7391   -7.1112   31.3270 C   0  0  0  0  0  0  0  0  0  0  0  0
   -0.3136   -6.5539   30.1859 F   0  0  0  0  0  0  0  0  0  0  0  0
   -1.5302   -8.1977   31.2265 N   0  0  0  0  0  0  0  0  0  0  0  0
   -2.0218   -8.6831   32.3869 C   0  0  0  0  0  0  0  0  0  0  0  0
   -1.7960   -8.1234   33.6336 C   0  0  0  0  0  0  0  0  0  0  0  0
   -2.6859   -8.8079   34.9351 Cl  0  0  0  0  0  0  0  0  0  0  0  0
    2.2146   -3.9011   35.7850 C   0  0  0  0  0  0  0  0  0  0  0  0
    2.8443   -4.0512   34.6093 F   0  0  0  0  0  0  0  0  0  0  0  0
    2.7353   -3.0288   36.7288 C   0  0  0  0  0  0  0  0  0  0  0  0
    2.0779   -2.8948   37.9595 C   0  0  0  0  0  0  0  0  0  0  0  0
    2.7101   -2.0402   38.9563 N   0  0  0  0  0  0  0  0  0  0  0  0
    3.0763   -0.9167   38.5824 O   0  0  0  0  0  0  0  0  0  0  0  0
    2.8572   -2.4928   40.1003 O   0  0  0  0  0  0  0  0  0  0  0  0
  1  2  1  0
  2  3  2  0
  3  4  1  0
  4  5  1  0
  5  6  1  0
  6  7  2  0
  6  8  1  0
  8  9  2  0
  9 10  1  0
 10 11  1  0
 10 12  2  0
 12 13  1  0
 13 14  2  0
 14 15  1  0
  4 16  2  0
 16 17  1  0
 16 18  1  0
 18 19  2  0
 19 20  1  0
 20 21  2  0
 20 22  1  0
 19  2  1  0
 14  8  1  0
M  CHG  2  20   1  22  -1
M  END
>  <ref_mols>  (619) 
7gov-a

>  <gnina_score>  (619) 
5.165

>  <smina_score_min>  (619) 
-5.855

>  <ref_pdb>  (619) 
7gov-a

>  <inspiration_score>  (619) 
None

>  <inchikey>  (619) 
DFUBGTLQXUCBCH-UHFFFAOYSA-N

>  <tags>  (619) 
BulkDock Fragalysis export,openbind_d68ev3c_c2_elabs_scored,openbind_d68ev3c_c2_elabs_scored_4.5plus,openbind_d68ev3c_c2_elabs,openbind_d68ev3c_c2_elabs_scored_5plus,syndirella_product,openbind_d68ev3c_c2_elabs_scored_top80percent,syndirella_placed

>  <smiles>  (619) 
Cc1cc(NC(=O)c2cc(F)ncc2Cl)c(F)cc1[N+](=O)[O-]

>  <subsites>  (619) 
None

>  <rmsd(smina/fragmenstein)>  (619) 
1.285

>  <alias>  (619) 
None

>  <energy_score>  (619) 
-26.337521

>  <HIPPO Pose ID>  (619) 
66405

>  <distance_score>  (619) 
0.813877

>  <HIPPO Compound ID>  (619) 
104642

>  <gnina_score_min>  (619) 
5.123

>  <name>  (619) 
P66405

>  <exports>  (619) 
['/opt/xchem-fragalysis-2/maxwin/BulkDock/OUTPUTS/openbind_d68ev3c_c2_elabs_1LOTQJ3.sdf', '/opt/xchem-fragalysis-2/maxwin/BulkDock/OUTPUTS/openbind_d68ev3c_c2_elabs_1LSYEHW.sdf', '/opt/xchem-fragalysis-2/maxwin/BulkDock/OUTPUTS/openbind_d68ev3c_c2_elabs_1LSYI5W.sdf']

$$$$
P66407
     RDKit          3D

 22 23  0  0  0  0  0  0  0  0999 V2000
    4.4581   -3.6850   34.5781 C   0  0  0  0  0  0  0  0  0  0  0  0
    2.9892   -4.0180   34.5965 C   0  0  0  0  0  0  0  0  0  0  0  0
    2.4098   -4.4038   33.5803 O   0  0  0  0  0  0  0  0  0  0  0  0
    2.2254   -3.8553   35.8700 C   0  0  0  0  0  0  0  0  0  0  0  0
    2.6740   -2.9581   36.8489 C   0  0  0  0  0  0  0  0  0  0  0  0
    1.9635   -2.8239   38.0382 C   0  0  0  0  0  0  0  0  0  0  0  0
    2.4116   -1.9736   38.9728 F   0  0  0  0  0  0  0  0  0  0  0  0
    0.8023   -3.5519   38.2558 C   0  0  0  0  0  0  0  0  0  0  0  0
    0.1278   -3.4204   39.4063 F   0  0  0  0  0  0  0  0  0  0  0  0
    0.3278   -4.4227   37.2836 C   0  0  0  0  0  0  0  0  0  0  0  0
    1.0402   -4.5882   36.0895 C   0  0  0  0  0  0  0  0  0  0  0  0
    0.5691   -5.4787   35.1243 N   0  0  0  0  0  0  0  0  0  0  0  0
   -0.7520   -6.2744   35.0537 C   0  0  0  0  0  0  0  0  0  0  0  0
   -1.6185   -6.3694   35.8275 O   0  0  0  0  0  0  0  0  0  0  0  0
   -0.9489   -6.9769   33.7356 C   0  0  0  0  0  0  0  0  0  0  0  0
   -0.4177   -6.4573   32.5459 C   0  0  0  0  0  0  0  0  0  0  0  0
   -0.7241   -7.0800   31.3482 C   0  0  0  0  0  0  0  0  0  0  0  0
   -0.2936   -6.5213   30.2095 F   0  0  0  0  0  0  0  0  0  0  0  0
   -1.5194   -8.1641   31.2397 N   0  0  0  0  0  0  0  0  0  0  0  0
   -2.0126   -8.6521   32.3976 C   0  0  0  0  0  0  0  0  0  0  0  0
   -1.7886   -8.0968   33.6478 C   0  0  0  0  0  0  0  0  0  0  0  0
   -2.6817   -8.7931   34.9417 Cl  0  0  0  0  0  0  0  0  0  0  0  0
  1  2  1  0
  2  3  2  0
  2  4  1  0
  4  5  2  0
  5  6  1  0
  6  7  1  0
  6  8  2  0
  8  9  1  0
  8 10  1  0
 10 11  2  0
 11 12  1  0
 12 13  1  0
 13 14  2  0
 13 15  1  0
 15 16  2  0
 16 17  1  0
 17 18  1  0
 17 19  2  0
 19 20  1  0
 20 21  2  0
 21 22  1  0
 11  4  1  0
 21 15  1  0
M  END
>  <ref_mols>  (620) 
7gov-a

>  <gnina_score>  (620) 
5.258

>  <smina_score_min>  (620) 
-5.925

>  <ref_pdb>  (620) 
7gov-a

>  <inspiration_score>  (620) 
None

>  <inchikey>  (620) 
XDIIWCTXXRZNPP-UHFFFAOYSA-N

>  <tags>  (620) 
BulkDock Fragalysis export,openbind_d68ev3c_c2_elabs_scored,openbind_d68ev3c_c2_elabs_scored_4.5plus,openbind_d68ev3c_c2_elabs,openbind_d68ev3c_c2_elabs_scored_5plus,syndirella_product,openbind_d68ev3c_c2_elabs_scored_top80percent,syndirella_placed

>  <smiles>  (620) 
CC(=O)c1cc(F)c(F)cc1NC(=O)c1cc(F)ncc1Cl

>  <subsites>  (620) 
None

>  <rmsd(smina/fragmenstein)>  (620) 
1.316

>  <alias>  (620) 
None

>  <energy_score>  (620) 
-23.080896

>  <HIPPO Pose ID>  (620) 
66407

>  <distance_score>  (620) 
0.813976

>  <HIPPO Compound ID>  (620) 
104649

>  <gnina_score_min>  (620) 
5.185

>  <name>  (620) 
P66407

>  <exports>  (620) 
['/opt/xchem-fragalysis-2/maxwin/BulkDock/OUTPUTS/openbind_d68ev3c_c2_elabs_1LOTQJ3.sdf', '/opt/xchem-fragalysis-2/maxwin/BulkDock/OUTPUTS/openbind_d68ev3c_c2_elabs_1LSYEHW.sdf', '/opt/xchem-fragalysis-2/maxwin/BulkDock/OUTPUTS/openbind_d68ev3c_c2_elabs_1LSYI5W.sdf']

$$$$
P66408
     RDKit          3D

 22 23  0  0  0  0  0  0  0  0999 V2000
    3.5431   -3.7364   33.7193 C   0  0  0  0  0  0  0  0  0  0  0  0
    2.8934   -3.7292   34.7292 C   0  0  0  0  0  0  0  0  0  0  0  0
    2.1397   -3.7133   35.9523 C   0  0  0  0  0  0  0  0  0  0  0  0
    2.6243   -2.9170   36.9992 C   0  0  0  0  0  0  0  0  0  0  0  0
    1.9601   -2.8916   38.2229 C   0  0  0  0  0  0  0  0  0  0  0  0
    2.5859   -1.9255   39.5042 Cl  0  0  0  0  0  0  0  0  0  0  0  0
    0.8052   -3.6421   38.3988 C   0  0  0  0  0  0  0  0  0  0  0  0
    0.1483   -3.6157   39.5694 F   0  0  0  0  0  0  0  0  0  0  0  0
    0.3099   -4.4237   37.3594 C   0  0  0  0  0  0  0  0  0  0  0  0
   -0.8249   -5.0969   37.5848 F   0  0  0  0  0  0  0  0  0  0  0  0
    0.9688   -4.4807   36.1235 C   0  0  0  0  0  0  0  0  0  0  0  0
    0.4909   -5.2344   35.0391 N   0  0  0  0  0  0  0  0  0  0  0  0
   -0.6048   -6.3182   34.9773 C   0  0  0  0  0  0  0  0  0  0  0  0
   -1.3370   -6.7022   35.8019 O   0  0  0  0  0  0  0  0  0  0  0  0
   -0.7810   -6.9291   33.6110 C   0  0  0  0  0  0  0  0  0  0  0  0
   -1.5672   -8.0945   33.5992 C   0  0  0  0  0  0  0  0  0  0  0  0
   -1.9108   -8.6545   32.3919 C   0  0  0  0  0  0  0  0  0  0  0  0
   -2.7340   -9.7031   32.3769 F   0  0  0  0  0  0  0  0  0  0  0  0
   -1.5053   -8.1922   31.1980 N   0  0  0  0  0  0  0  0  0  0  0  0
   -0.7000   -7.1091   31.2260 C   0  0  0  0  0  0  0  0  0  0  0  0
   -0.3362   -6.4245   32.3823 C   0  0  0  0  0  0  0  0  0  0  0  0
    0.5607   -4.9760   32.1427 Cl  0  0  0  0  0  0  0  0  0  0  0  0
  1  2  3  0
  2  3  1  0
  3  4  2  0
  4  5  1  0
  5  6  1  0
  5  7  2  0
  7  8  1  0
  7  9  1  0
  9 10  1  0
  9 11  2  0
 11 12  1  0
 12 13  1  0
 13 14  2  0
 13 15  1  0
 15 16  2  0
 16 17  1  0
 17 18  1  0
 17 19  2  0
 19 20  1  0
 20 21  2  0
 21 22  1  0
 11  3  1  0
 21 15  1  0
M  END
>  <ref_mols>  (621) 
7gov-a

>  <gnina_score>  (621) 
5.422

>  <smina_score_min>  (621) 
-5.554

>  <ref_pdb>  (621) 
7gov-a

>  <inspiration_score>  (621) 
None

>  <inchikey>  (621) 
FBFFNLATXDQNSF-UHFFFAOYSA-N

>  <tags>  (621) 
BulkDock Fragalysis export,openbind_d68ev3c_c2_elabs_scored,openbind_d68ev3c_c2_elabs_scored_4.5plus,openbind_d68ev3c_c2_elabs,openbind_d68ev3c_c2_elabs_scored_5plus,syndirella_product,openbind_d68ev3c_c2_elabs_scored_top80percent,syndirella_placed

>  <smiles>  (621) 
C#Cc1cc(Cl)c(F)c(F)c1NC(=O)c1cc(F)ncc1Cl

>  <subsites>  (621) 
None

>  <rmsd(smina/fragmenstein)>  (621) 
0.968

>  <alias>  (621) 
None

>  <energy_score>  (621) 
-8.634562

>  <HIPPO Pose ID>  (621) 
66408

>  <distance_score>  (621) 
0.711297

>  <HIPPO Compound ID>  (621) 
104651

>  <gnina_score_min>  (621) 
5.23

>  <name>  (621) 
P66408

>  <exports>  (621) 
['/opt/xchem-fragalysis-2/maxwin/BulkDock/OUTPUTS/openbind_d68ev3c_c2_elabs_1LOTQJ3.sdf', '/opt/xchem-fragalysis-2/maxwin/BulkDock/OUTPUTS/openbind_d68ev3c_c2_elabs_1LSYEHW.sdf', '/opt/xchem-fragalysis-2/maxwin/BulkDock/OUTPUTS/openbind_d68ev3c_c2_elabs_1LSYI5W.sdf']

$$$$
P66409
     RDKit          3D

 22 23  0  0  0  0  0  0  0  0999 V2000
    3.7716   -5.1548   34.4944 C   0  0  0  0  0  0  0  0  0  0  0  0
    3.0990   -3.8424   34.7966 C   0  0  0  0  0  0  0  0  0  0  0  0
    3.3015   -2.8305   34.1309 O   0  0  0  0  0  0  0  0  0  0  0  0
    2.2120   -3.7649   35.9760 C   0  0  0  0  0  0  0  0  0  0  0  0
    2.5944   -2.8727   36.9868 C   0  0  0  0  0  0  0  0  0  0  0  0
    1.8510   -2.8093   38.1621 C   0  0  0  0  0  0  0  0  0  0  0  0
    2.3979   -1.6448   39.5474 Br  0  0  0  0  0  0  0  0  0  0  0  0
    0.7215   -3.6089   38.3121 C   0  0  0  0  0  0  0  0  0  0  0  0
   -0.0042   -3.5631   39.4392 F   0  0  0  0  0  0  0  0  0  0  0  0
    0.3163   -4.4693   37.2937 C   0  0  0  0  0  0  0  0  0  0  0  0
    1.0592   -4.5562   36.1126 C   0  0  0  0  0  0  0  0  0  0  0  0
    0.6259   -5.3847   35.0742 N   0  0  0  0  0  0  0  0  0  0  0  0
   -0.5952   -6.3227   34.9837 C   0  0  0  0  0  0  0  0  0  0  0  0
   -1.3898   -6.6108   35.7897 O   0  0  0  0  0  0  0  0  0  0  0  0
   -0.7822   -6.9347   33.6229 C   0  0  0  0  0  0  0  0  0  0  0  0
   -1.5822   -8.0883   33.6106 C   0  0  0  0  0  0  0  0  0  0  0  0
   -1.9257   -8.6425   32.4003 C   0  0  0  0  0  0  0  0  0  0  0  0
   -2.7605   -9.6819   32.3802 F   0  0  0  0  0  0  0  0  0  0  0  0
   -1.5091   -8.1820   31.2086 N   0  0  0  0  0  0  0  0  0  0  0  0
   -0.6934   -7.1058   31.2393 C   0  0  0  0  0  0  0  0  0  0  0  0
   -0.3266   -6.4296   32.3984 C   0  0  0  0  0  0  0  0  0  0  0  0
    0.5868   -4.9868   32.1830 Cl  0  0  0  0  0  0  0  0  0  0  0  0
  1  2  1  0
  2  3  2  0
  2  4  1  0
  4  5  2  0
  5  6  1  0
  6  7  1  0
  6  8  2  0
  8  9  1  0
  8 10  1  0
 10 11  2  0
 11 12  1  0
 12 13  1  0
 13 14  2  0
 13 15  1  0
 15 16  2  0
 16 17  1  0
 17 18  1  0
 17 19  2  0
 19 20  1  0
 20 21  2  0
 21 22  1  0
 11  4  1  0
 21 15  1  0
M  END
>  <ref_mols>  (622) 
7gov-a

>  <gnina_score>  (622) 
5.219

>  <smina_score_min>  (622) 
-5.807

>  <ref_pdb>  (622) 
7gov-a

>  <inspiration_score>  (622) 
None

>  <inchikey>  (622) 
DMIXWAJWKSFCBJ-UHFFFAOYSA-N

>  <tags>  (622) 
BulkDock Fragalysis export,openbind_d68ev3c_c2_elabs_scored,openbind_d68ev3c_c2_elabs_scored_4.5plus,openbind_d68ev3c_c2_elabs,openbind_d68ev3c_c2_elabs_scored_5plus,syndirella_product,openbind_d68ev3c_c2_elabs_scored_top80percent,syndirella_placed

>  <smiles>  (622) 
CC(=O)c1cc(Br)c(F)cc1NC(=O)c1cc(F)ncc1Cl

>  <subsites>  (622) 
None

>  <rmsd(smina/fragmenstein)>  (622) 
1.504

>  <alias>  (622) 
None

>  <energy_score>  (622) 
-22.265015

>  <HIPPO Pose ID>  (622) 
66409

>  <distance_score>  (622) 
0.734524

>  <HIPPO Compound ID>  (622) 
104654

>  <gnina_score_min>  (622) 
5.041

>  <name>  (622) 
P66409

>  <exports>  (622) 
['/opt/xchem-fragalysis-2/maxwin/BulkDock/OUTPUTS/openbind_d68ev3c_c2_elabs_1LOTQJ3.sdf', '/opt/xchem-fragalysis-2/maxwin/BulkDock/OUTPUTS/openbind_d68ev3c_c2_elabs_1LSYEHW.sdf', '/opt/xchem-fragalysis-2/maxwin/BulkDock/OUTPUTS/openbind_d68ev3c_c2_elabs_1LSYI5W.sdf']

$$$$
P66410
     RDKit          3D

 22 23  0  0  0  0  0  0  0  0999 V2000
   -0.0305   -3.6068   39.6140 C   0  0  0  0  0  0  0  0  0  0  0  0
    0.7541   -3.6468   38.3334 C   0  0  0  0  0  0  0  0  0  0  0  0
    0.2864   -4.4530   37.2815 C   0  0  0  0  0  0  0  0  0  0  0  0
    1.0017   -4.5483   36.0851 C   0  0  0  0  0  0  0  0  0  0  0  0
    0.5710   -5.3554   35.0399 N   0  0  0  0  0  0  0  0  0  0  0  0
   -0.6592   -6.2723   34.9261 C   0  0  0  0  0  0  0  0  0  0  0  0
   -1.4668   -6.5569   35.7193 O   0  0  0  0  0  0  0  0  0  0  0  0
   -0.8119   -6.8888   33.5644 C   0  0  0  0  0  0  0  0  0  0  0  0
   -1.5295   -8.0954   33.5751 C   0  0  0  0  0  0  0  0  0  0  0  0
   -1.8515   -8.6837   32.3772 C   0  0  0  0  0  0  0  0  0  0  0  0
   -2.6058   -9.7822   32.3794 F   0  0  0  0  0  0  0  0  0  0  0  0
   -1.4829   -8.2121   31.1763 N   0  0  0  0  0  0  0  0  0  0  0  0
   -0.7436   -7.0837   31.1816 C   0  0  0  0  0  0  0  0  0  0  0  0
   -0.4159   -6.3603   32.3266 C   0  0  0  0  0  0  0  0  0  0  0  0
    0.4900   -4.5150   31.9553 I   0  0  0  0  0  0  0  0  0  0  0  0
    2.1710   -3.8059   35.9130 C   0  0  0  0  0  0  0  0  0  0  0  0
    2.8423   -3.8798   34.7525 F   0  0  0  0  0  0  0  0  0  0  0  0
    2.6583   -2.9962   36.9262 C   0  0  0  0  0  0  0  0  0  0  0  0
    1.9633   -2.9489   38.1411 C   0  0  0  0  0  0  0  0  0  0  0  0
    2.5574   -2.1573   39.2112 N   0  0  0  0  0  0  0  0  0  0  0  0
    2.9329   -1.0121   38.9218 O   0  0  0  0  0  0  0  0  0  0  0  0
    2.6661   -2.6804   40.3291 O   0  0  0  0  0  0  0  0  0  0  0  0
  1  2  1  0
  2  3  2  0
  3  4  1  0
  4  5  1  0
  5  6  1  0
  6  7  2  0
  6  8  1  0
  8  9  2  0
  9 10  1  0
 10 11  1  0
 10 12  2  0
 12 13  1  0
 13 14  2  0
 14 15  1  0
  4 16  2  0
 16 17  1  0
 16 18  1  0
 18 19  2  0
 19 20  1  0
 20 21  2  0
 20 22  1  0
 19  2  1  0
 14  8  1  0
M  CHG  2  20   1  22  -1
M  END
>  <ref_mols>  (623) 
7gov-a

>  <gnina_score>  (623) 
5.141

>  <smina_score_min>  (623) 
-6.063

>  <ref_pdb>  (623) 
7gov-a

>  <inspiration_score>  (623) 
None

>  <inchikey>  (623) 
LWPPWDQCOMPFRJ-UHFFFAOYSA-N

>  <tags>  (623) 
BulkDock Fragalysis export,openbind_d68ev3c_c2_elabs_scored,openbind_d68ev3c_c2_elabs_scored_4.5plus,openbind_d68ev3c_c2_elabs,openbind_d68ev3c_c2_elabs_scored_5plus,syndirella_product,openbind_d68ev3c_c2_elabs_scored_top80percent,syndirella_placed

>  <smiles>  (623) 
Cc1cc(NC(=O)c2cc(F)ncc2I)c(F)cc1[N+](=O)[O-]

>  <subsites>  (623) 
None

>  <rmsd(smina/fragmenstein)>  (623) 
1.999

>  <alias>  (623) 
None

>  <energy_score>  (623) 
-57.166839

>  <HIPPO Pose ID>  (623) 
66410

>  <distance_score>  (623) 
0.74409

>  <HIPPO Compound ID>  (623) 
104661

>  <gnina_score_min>  (623) 
5.008

>  <name>  (623) 
P66410

>  <exports>  (623) 
['/opt/xchem-fragalysis-2/maxwin/BulkDock/OUTPUTS/openbind_d68ev3c_c2_elabs_1LOTQJ3.sdf', '/opt/xchem-fragalysis-2/maxwin/BulkDock/OUTPUTS/openbind_d68ev3c_c2_elabs_1LSYEHW.sdf', '/opt/xchem-fragalysis-2/maxwin/BulkDock/OUTPUTS/openbind_d68ev3c_c2_elabs_1LSYI5W.sdf']

$$$$
P66411
     RDKit          3D

 22 23  0  0  0  0  0  0  0  0999 V2000
    2.9000   -4.2395   35.0127 C   0  0  0  0  0  0  0  0  0  0  0  0
    1.9754   -3.8891   36.1484 C   0  0  0  0  0  0  0  0  0  0  0  0
    0.6222   -4.2894   36.1540 C   0  0  0  0  0  0  0  0  0  0  0  0
    0.0732   -5.0675   35.1435 N   0  0  0  0  0  0  0  0  0  0  0  0
    0.3504   -6.5269   34.7434 C   0  0  0  0  0  0  0  0  0  0  0  0
    1.0269   -7.3323   35.2452 O   0  0  0  0  0  0  0  0  0  0  0  0
   -0.4121   -6.9356   33.5396 C   0  0  0  0  0  0  0  0  0  0  0  0
   -1.3382   -7.9636   33.7350 C   0  0  0  0  0  0  0  0  0  0  0  0
   -1.9880   -8.4614   32.6274 C   0  0  0  0  0  0  0  0  0  0  0  0
   -2.9351   -9.3862   32.8005 F   0  0  0  0  0  0  0  0  0  0  0  0
   -1.7656   -8.0506   31.3638 N   0  0  0  0  0  0  0  0  0  0  0  0
   -0.8373   -7.0800   31.2050 C   0  0  0  0  0  0  0  0  0  0  0  0
   -0.1598   -6.4632   32.2490 C   0  0  0  0  0  0  0  0  0  0  0  0
    1.1352   -4.9264   31.7321 I   0  0  0  0  0  0  0  0  0  0  0  0
   -0.2116   -3.9938   37.2327 C   0  0  0  0  0  0  0  0  0  0  0  0
    0.3036   -3.3237   38.3330 C   0  0  0  0  0  0  0  0  0  0  0  0
   -0.4693   -3.1342   39.4081 F   0  0  0  0  0  0  0  0  0  0  0  0
    1.6025   -2.8491   38.3439 C   0  0  0  0  0  0  0  0  0  0  0  0
    2.4207   -3.1057   37.2393 C   0  0  0  0  0  0  0  0  0  0  0  0
    3.7486   -2.4889   37.2557 N   0  0  0  0  0  0  0  0  0  0  0  0
    4.3761   -2.4932   38.3274 O   0  0  0  0  0  0  0  0  0  0  0  0
    4.1281   -1.9229   36.2196 O   0  0  0  0  0  0  0  0  0  0  0  0
  1  2  1  0
  2  3  2  0
  3  4  1  0
  4  5  1  0
  5  6  2  0
  5  7  1  0
  7  8  2  0
  8  9  1  0
  9 10  1  0
  9 11  2  0
 11 12  1  0
 12 13  2  0
 13 14  1  0
  3 15  1  0
 15 16  2  0
 16 17  1  0
 16 18  1  0
 18 19  2  0
 19 20  1  0
 20 21  2  0
 20 22  1  0
 19  2  1  0
 13  7  1  0
M  CHG  2  20   1  22  -1
M  END
>  <ref_mols>  (624) 
7gov-a

>  <gnina_score>  (624) 
5.068

>  <smina_score_min>  (624) 
-6.346

>  <ref_pdb>  (624) 
7gov-a

>  <inspiration_score>  (624) 
None

>  <inchikey>  (624) 
MITQBVRXXQUBET-UHFFFAOYSA-N

>  <tags>  (624) 
BulkDock Fragalysis export,openbind_d68ev3c_c2_elabs_scored,openbind_d68ev3c_c2_elabs_scored_4.5plus,openbind_d68ev3c_c2_elabs,openbind_d68ev3c_c2_elabs_scored_5plus,syndirella_product,openbind_d68ev3c_c2_elabs_scored_top80percent,syndirella_placed

>  <smiles>  (624) 
Cc1c(NC(=O)c2cc(F)ncc2I)cc(F)cc1[N+](=O)[O-]

>  <subsites>  (624) 
None

>  <rmsd(smina/fragmenstein)>  (624) 
1.243

>  <alias>  (624) 
None

>  <energy_score>  (624) 
-23.141181

>  <HIPPO Pose ID>  (624) 
66411

>  <distance_score>  (624) 
0.387716

>  <HIPPO Compound ID>  (624) 
104662

>  <gnina_score_min>  (624) 
5.014

>  <name>  (624) 
P66411

>  <exports>  (624) 
['/opt/xchem-fragalysis-2/maxwin/BulkDock/OUTPUTS/openbind_d68ev3c_c2_elabs_1LOTQJ3.sdf', '/opt/xchem-fragalysis-2/maxwin/BulkDock/OUTPUTS/openbind_d68ev3c_c2_elabs_1LSYEHW.sdf', '/opt/xchem-fragalysis-2/maxwin/BulkDock/OUTPUTS/openbind_d68ev3c_c2_elabs_1LSYI5W.sdf']

$$$$
P66412
     RDKit          3D

 22 23  0  0  0  0  0  0  0  0999 V2000
    3.7648   -5.2114   34.5521 C   0  0  0  0  0  0  0  0  0  0  0  0
    3.0931   -3.8921   34.8241 C   0  0  0  0  0  0  0  0  0  0  0  0
    3.3066   -2.8932   34.1425 O   0  0  0  0  0  0  0  0  0  0  0  0
    2.1979   -3.7901   35.9967 C   0  0  0  0  0  0  0  0  0  0  0  0
    2.5988   -2.8833   36.9921 C   0  0  0  0  0  0  0  0  0  0  0  0
    1.8665   -2.7743   38.1696 C   0  0  0  0  0  0  0  0  0  0  0  0
    0.7363   -3.5617   38.3364 C   0  0  0  0  0  0  0  0  0  0  0  0
    0.0442   -3.4714   39.4809 F   0  0  0  0  0  0  0  0  0  0  0  0
    0.3100   -4.4326   37.3343 C   0  0  0  0  0  0  0  0  0  0  0  0
   -0.8048   -5.1340   37.5700 F   0  0  0  0  0  0  0  0  0  0  0  0
    1.0258   -4.5584   36.1352 C   0  0  0  0  0  0  0  0  0  0  0  0
    0.5822   -5.3538   35.0622 N   0  0  0  0  0  0  0  0  0  0  0  0
   -0.6288   -6.3033   34.9519 C   0  0  0  0  0  0  0  0  0  0  0  0
   -1.4058   -6.6353   35.7573 O   0  0  0  0  0  0  0  0  0  0  0  0
   -0.8039   -6.8907   33.5798 C   0  0  0  0  0  0  0  0  0  0  0  0
   -1.4967   -8.1124   33.5791 C   0  0  0  0  0  0  0  0  0  0  0  0
   -1.8234   -8.6886   32.3763 C   0  0  0  0  0  0  0  0  0  0  0  0
   -2.5442   -9.8092   32.3710 F   0  0  0  0  0  0  0  0  0  0  0  0
   -1.4808   -8.1908   31.1783 N   0  0  0  0  0  0  0  0  0  0  0  0
   -0.7723   -7.0432   31.1927 C   0  0  0  0  0  0  0  0  0  0  0  0
   -0.4473   -6.3298   32.3453 C   0  0  0  0  0  0  0  0  0  0  0  0
    0.3785   -4.4460   31.9934 I   0  0  0  0  0  0  0  0  0  0  0  0
  1  2  1  0
  2  3  2  0
  2  4  1  0
  4  5  2  0
  5  6  1  0
  6  7  2  0
  7  8  1  0
  7  9  1  0
  9 10  1  0
  9 11  2  0
 11 12  1  0
 12 13  1  0
 13 14  2  0
 13 15  1  0
 15 16  2  0
 16 17  1  0
 17 18  1  0
 17 19  2  0
 19 20  1  0
 20 21  2  0
 21 22  1  0
 11  4  1  0
 21 15  1  0
M  END
>  <ref_mols>  (625) 
7gov-a

>  <gnina_score>  (625) 
5.272

>  <smina_score_min>  (625) 
-5.606

>  <ref_pdb>  (625) 
7gov-a

>  <inspiration_score>  (625) 
None

>  <inchikey>  (625) 
FTYZRIHAXOBJKK-UHFFFAOYSA-N

>  <tags>  (625) 
BulkDock Fragalysis export,openbind_d68ev3c_c2_elabs_scored,openbind_d68ev3c_c2_elabs_scored_4.5plus,openbind_d68ev3c_c2_elabs,openbind_d68ev3c_c2_elabs_scored_5plus,syndirella_product,openbind_d68ev3c_c2_elabs_scored_top80percent,syndirella_placed

>  <smiles>  (625) 
CC(=O)c1ccc(F)c(F)c1NC(=O)c1cc(F)ncc1I

>  <subsites>  (625) 
None

>  <rmsd(smina/fragmenstein)>  (625) 
0.348

>  <alias>  (625) 
None

>  <energy_score>  (625) 
-10.00084

>  <HIPPO Pose ID>  (625) 
66412

>  <distance_score>  (625) 
0.745171

>  <HIPPO Compound ID>  (625) 
104663

>  <gnina_score_min>  (625) 
5.174

>  <name>  (625) 
P66412

>  <exports>  (625) 
['/opt/xchem-fragalysis-2/maxwin/BulkDock/OUTPUTS/openbind_d68ev3c_c2_elabs_1LOTQJ3.sdf', '/opt/xchem-fragalysis-2/maxwin/BulkDock/OUTPUTS/openbind_d68ev3c_c2_elabs_1LSYEHW.sdf', '/opt/xchem-fragalysis-2/maxwin/BulkDock/OUTPUTS/openbind_d68ev3c_c2_elabs_1LSYI5W.sdf']

$$$$
P66413
     RDKit          3D

 22 23  0  0  0  0  0  0  0  0999 V2000
    3.0519   -3.8239   34.7083 C   0  0  0  0  0  0  0  0  0  0  0  0
    2.2101   -3.7834   35.9538 C   0  0  0  0  0  0  0  0  0  0  0  0
    2.6708   -3.0244   37.0434 C   0  0  0  0  0  0  0  0  0  0  0  0
    1.9470   -3.0142   38.2399 C   0  0  0  0  0  0  0  0  0  0  0  0
    2.4720   -2.2987   39.3824 N   0  0  0  0  0  0  0  0  0  0  0  0
    3.6870   -2.4052   39.6128 O   0  0  0  0  0  0  0  0  0  0  0  0
    1.6885   -1.5951   40.0340 O   0  0  0  0  0  0  0  0  0  0  0  0
    0.7535   -3.7083   38.3576 C   0  0  0  0  0  0  0  0  0  0  0  0
    0.0619   -3.7295   39.5055 F   0  0  0  0  0  0  0  0  0  0  0  0
    0.2664   -4.4299   37.2725 C   0  0  0  0  0  0  0  0  0  0  0  0
    0.9926   -4.4823   36.0755 C   0  0  0  0  0  0  0  0  0  0  0  0
    0.4942   -5.2118   34.9964 N   0  0  0  0  0  0  0  0  0  0  0  0
   -0.6899   -6.1952   34.9137 C   0  0  0  0  0  0  0  0  0  0  0  0
   -1.4842   -6.4930   35.7165 O   0  0  0  0  0  0  0  0  0  0  0  0
   -0.8363   -6.8350   33.5610 C   0  0  0  0  0  0  0  0  0  0  0  0
   -1.4938   -8.0748   33.5960 C   0  0  0  0  0  0  0  0  0  0  0  0
   -1.8023   -8.6942   32.4093 C   0  0  0  0  0  0  0  0  0  0  0  0
   -2.4914   -9.8335   32.4365 F   0  0  0  0  0  0  0  0  0  0  0  0
   -1.4718   -8.2234   31.1970 N   0  0  0  0  0  0  0  0  0  0  0  0
   -0.7914   -7.0600   31.1787 C   0  0  0  0  0  0  0  0  0  0  0  0
   -0.4904   -6.3035   32.3100 C   0  0  0  0  0  0  0  0  0  0  0  0
    0.2734   -4.4065   31.8965 I   0  0  0  0  0  0  0  0  0  0  0  0
  1  2  1  0
  2  3  2  0
  3  4  1  0
  4  5  1  0
  5  6  2  0
  5  7  1  0
  4  8  2  0
  8  9  1  0
  8 10  1  0
 10 11  2  0
 11 12  1  0
 12 13  1  0
 13 14  2  0
 13 15  1  0
 15 16  2  0
 16 17  1  0
 17 18  1  0
 17 19  2  0
 19 20  1  0
 20 21  2  0
 21 22  1  0
 11  2  1  0
 21 15  1  0
M  CHG  2   5   1   7  -1
M  END
>  <ref_mols>  (626) 
7gov-a

>  <gnina_score>  (626) 
5.126

>  <smina_score_min>  (626) 
-5.728

>  <ref_pdb>  (626) 
7gov-a

>  <inspiration_score>  (626) 
None

>  <inchikey>  (626) 
WFKIGAWGRHVTII-UHFFFAOYSA-N

>  <tags>  (626) 
BulkDock Fragalysis export,openbind_d68ev3c_c2_elabs_scored,openbind_d68ev3c_c2_elabs_scored_4.5plus,openbind_d68ev3c_c2_elabs,openbind_d68ev3c_c2_elabs_scored_5plus,syndirella_product,openbind_d68ev3c_c2_elabs_scored_top80percent,syndirella_placed

>  <smiles>  (626) 
Cc1cc([N+](=O)[O-])c(F)cc1NC(=O)c1cc(F)ncc1I

>  <subsites>  (626) 
None

>  <rmsd(smina/fragmenstein)>  (626) 
1.347

>  <alias>  (626) 
None

>  <energy_score>  (626) 
-29.515678

>  <HIPPO Pose ID>  (626) 
66413

>  <distance_score>  (626) 
0.758343

>  <HIPPO Compound ID>  (626) 
104675

>  <gnina_score_min>  (626) 
5.069

>  <name>  (626) 
P66413

>  <exports>  (626) 
['/opt/xchem-fragalysis-2/maxwin/BulkDock/OUTPUTS/openbind_d68ev3c_c2_elabs_1LOTQJ3.sdf', '/opt/xchem-fragalysis-2/maxwin/BulkDock/OUTPUTS/openbind_d68ev3c_c2_elabs_1LSYEHW.sdf', '/opt/xchem-fragalysis-2/maxwin/BulkDock/OUTPUTS/openbind_d68ev3c_c2_elabs_1LSYI5W.sdf']

$$$$
P66414
     RDKit          3D

 22 23  0  0  0  0  0  0  0  0999 V2000
    3.8063   -5.2230   34.5355 C   0  0  0  0  0  0  0  0  0  0  0  0
    3.1590   -3.8947   34.8221 C   0  0  0  0  0  0  0  0  0  0  0  0
    3.3993   -2.8896   34.1589 O   0  0  0  0  0  0  0  0  0  0  0  0
    2.2509   -3.7944   35.9826 C   0  0  0  0  0  0  0  0  0  0  0  0
    2.6365   -2.9103   36.9979 C   0  0  0  0  0  0  0  0  0  0  0  0
    1.8691   -2.8240   38.1508 C   0  0  0  0  0  0  0  0  0  0  0  0
    2.2534   -2.0014   39.1368 F   0  0  0  0  0  0  0  0  0  0  0  0
    0.7154   -3.5849   38.2849 C   0  0  0  0  0  0  0  0  0  0  0  0
   -0.0174   -3.5029   39.4039 F   0  0  0  0  0  0  0  0  0  0  0  0
    0.3010   -4.4315   37.2599 C   0  0  0  0  0  0  0  0  0  0  0  0
    1.0670   -4.5456   36.0939 C   0  0  0  0  0  0  0  0  0  0  0  0
    0.6121   -5.3466   35.0425 N   0  0  0  0  0  0  0  0  0  0  0  0
   -0.6225   -6.2643   34.9443 C   0  0  0  0  0  0  0  0  0  0  0  0
   -1.4137   -6.5574   35.7514 O   0  0  0  0  0  0  0  0  0  0  0  0
   -0.8008   -6.8716   33.5809 C   0  0  0  0  0  0  0  0  0  0  0  0
   -1.5007   -8.0886   33.5947 C   0  0  0  0  0  0  0  0  0  0  0  0
   -1.8299   -8.6764   32.3975 C   0  0  0  0  0  0  0  0  0  0  0  0
   -2.5588   -9.7917   32.4048 F   0  0  0  0  0  0  0  0  0  0  0  0
   -1.4845   -8.1937   31.1939 N   0  0  0  0  0  0  0  0  0  0  0  0
   -0.7685   -7.0505   31.1953 C   0  0  0  0  0  0  0  0  0  0  0  0
   -0.4390   -6.3272   32.3401 C   0  0  0  0  0  0  0  0  0  0  0  0
    0.4040   -4.4536   31.9709 I   0  0  0  0  0  0  0  0  0  0  0  0
  1  2  1  0
  2  3  2  0
  2  4  1  0
  4  5  2  0
  5  6  1  0
  6  7  1  0
  6  8  2  0
  8  9  1  0
  8 10  1  0
 10 11  2  0
 11 12  1  0
 12 13  1  0
 13 14  2  0
 13 15  1  0
 15 16  2  0
 16 17  1  0
 17 18  1  0
 17 19  2  0
 19 20  1  0
 20 21  2  0
 21 22  1  0
 11  4  1  0
 21 15  1  0
M  END
>  <ref_mols>  (627) 
7gov-a

>  <gnina_score>  (627) 
5.207

>  <smina_score_min>  (627) 
-5.451

>  <ref_pdb>  (627) 
7gov-a

>  <inspiration_score>  (627) 
None

>  <inchikey>  (627) 
MYLSVTSWDBCJRR-UHFFFAOYSA-N

>  <tags>  (627) 
BulkDock Fragalysis export,openbind_d68ev3c_c2_elabs_scored,openbind_d68ev3c_c2_elabs_scored_4.5plus,openbind_d68ev3c_c2_elabs,openbind_d68ev3c_c2_elabs_scored_5plus,syndirella_product,openbind_d68ev3c_c2_elabs_scored_top80percent,syndirella_placed

>  <smiles>  (627) 
CC(=O)c1cc(F)c(F)cc1NC(=O)c1cc(F)ncc1I

>  <subsites>  (627) 
None

>  <rmsd(smina/fragmenstein)>  (627) 
0.442

>  <alias>  (627) 
None

>  <energy_score>  (627) 
-39.078306

>  <HIPPO Pose ID>  (627) 
66414

>  <distance_score>  (627) 
0.749069

>  <HIPPO Compound ID>  (627) 
104677

>  <gnina_score_min>  (627) 
5.015

>  <name>  (627) 
P66414

>  <exports>  (627) 
['/opt/xchem-fragalysis-2/maxwin/BulkDock/OUTPUTS/openbind_d68ev3c_c2_elabs_1LOTQJ3.sdf', '/opt/xchem-fragalysis-2/maxwin/BulkDock/OUTPUTS/openbind_d68ev3c_c2_elabs_1LSYEHW.sdf', '/opt/xchem-fragalysis-2/maxwin/BulkDock/OUTPUTS/openbind_d68ev3c_c2_elabs_1LSYI5W.sdf']

$$$$
P66415
     RDKit          3D

 22 23  0  0  0  0  0  0  0  0999 V2000
    3.0787   -3.1392   33.3151 C   0  0  0  0  0  0  0  0  0  0  0  0
    2.5660   -3.2805   34.3919 C   0  0  0  0  0  0  0  0  0  0  0  0
    1.9537   -3.4445   35.6791 C   0  0  0  0  0  0  0  0  0  0  0  0
    2.4132   -2.6701   36.7515 C   0  0  0  0  0  0  0  0  0  0  0  0
    1.8706   -2.8466   38.0267 C   0  0  0  0  0  0  0  0  0  0  0  0
    2.4387   -1.8675   39.3258 Cl  0  0  0  0  0  0  0  0  0  0  0  0
    0.8730   -3.7925   38.2369 C   0  0  0  0  0  0  0  0  0  0  0  0
    0.3057   -3.9305   39.4460 F   0  0  0  0  0  0  0  0  0  0  0  0
    0.4368   -4.5843   37.1816 C   0  0  0  0  0  0  0  0  0  0  0  0
   -0.5558   -5.4619   37.3989 F   0  0  0  0  0  0  0  0  0  0  0  0
    0.9674   -4.4156   35.8961 C   0  0  0  0  0  0  0  0  0  0  0  0
    0.5130   -5.1992   34.8371 N   0  0  0  0  0  0  0  0  0  0  0  0
    0.1057   -6.6822   34.7941 C   0  0  0  0  0  0  0  0  0  0  0  0
    0.1581   -7.5030   35.6176 O   0  0  0  0  0  0  0  0  0  0  0  0
   -0.4932   -7.0745   33.4836 C   0  0  0  0  0  0  0  0  0  0  0  0
    0.0662   -6.6183   32.2867 C   0  0  0  0  0  0  0  0  0  0  0  0
   -0.5074   -7.0241   31.0971 C   0  0  0  0  0  0  0  0  0  0  0  0
   -0.0473   -6.5008   29.9530 F   0  0  0  0  0  0  0  0  0  0  0  0
   -1.5563   -7.8678   31.0113 N   0  0  0  0  0  0  0  0  0  0  0  0
   -2.0463   -8.3240   32.1816 C   0  0  0  0  0  0  0  0  0  0  0  0
   -1.5855   -7.9445   33.4269 C   0  0  0  0  0  0  0  0  0  0  0  0
   -2.7221   -8.6383   34.9971 I   0  0  0  0  0  0  0  0  0  0  0  0
  1  2  3  0
  2  3  1  0
  3  4  2  0
  4  5  1  0
  5  6  1  0
  5  7  2  0
  7  8  1  0
  7  9  1  0
  9 10  1  0
  9 11  2  0
 11 12  1  0
 12 13  1  0
 13 14  2  0
 13 15  1  0
 15 16  2  0
 16 17  1  0
 17 18  1  0
 17 19  2  0
 19 20  1  0
 20 21  2  0
 21 22  1  0
 11  3  1  0
 21 15  1  0
M  END
>  <ref_mols>  (628) 
7gov-a

>  <gnina_score>  (628) 
5.595

>  <smina_score_min>  (628) 
-4.895

>  <ref_pdb>  (628) 
7gov-a

>  <inspiration_score>  (628) 
None

>  <inchikey>  (628) 
XXLJSVQFZJAPLK-UHFFFAOYSA-N

>  <tags>  (628) 
BulkDock Fragalysis export,openbind_d68ev3c_c2_elabs_scored,openbind_d68ev3c_c2_elabs_scored_4.5plus,openbind_d68ev3c_c2_elabs,openbind_d68ev3c_c2_elabs_scored_5plus,syndirella_product,openbind_d68ev3c_c2_elabs_scored_top80percent,syndirella_placed

>  <smiles>  (628) 
C#Cc1cc(Cl)c(F)c(F)c1NC(=O)c1cc(F)ncc1I

>  <subsites>  (628) 
None

>  <rmsd(smina/fragmenstein)>  (628) 
0.525

>  <alias>  (628) 
None

>  <energy_score>  (628) 
-30.552762

>  <HIPPO Pose ID>  (628) 
66415

>  <distance_score>  (628) 
0.508036

>  <HIPPO Compound ID>  (628) 
104679

>  <gnina_score_min>  (628) 
5.637

>  <name>  (628) 
P66415

>  <exports>  (628) 
['/opt/xchem-fragalysis-2/maxwin/BulkDock/OUTPUTS/openbind_d68ev3c_c2_elabs_1LOTQJ3.sdf', '/opt/xchem-fragalysis-2/maxwin/BulkDock/OUTPUTS/openbind_d68ev3c_c2_elabs_1LSYEHW.sdf', '/opt/xchem-fragalysis-2/maxwin/BulkDock/OUTPUTS/openbind_d68ev3c_c2_elabs_1LSYI5W.sdf']

$$$$
P66416
     RDKit          3D

 22 23  0  0  0  0  0  0  0  0999 V2000
    3.0774   -3.1618   33.3029 C   0  0  0  0  0  0  0  0  0  0  0  0
    2.5682   -3.2949   34.3824 C   0  0  0  0  0  0  0  0  0  0  0  0
    1.9602   -3.4487   35.6727 C   0  0  0  0  0  0  0  0  0  0  0  0
    2.4341   -2.6800   36.7426 C   0  0  0  0  0  0  0  0  0  0  0  0
    1.9015   -2.8545   38.0266 C   0  0  0  0  0  0  0  0  0  0  0  0
    2.4041   -2.0900   39.1245 C   0  0  0  0  0  0  0  0  0  0  0  0
    2.8354   -1.4512   39.9932 N   0  0  0  0  0  0  0  0  0  0  0  0
    0.8904   -3.7892   38.2288 C   0  0  0  0  0  0  0  0  0  0  0  0
    0.3341   -3.9392   39.4403 F   0  0  0  0  0  0  0  0  0  0  0  0
    0.4340   -4.5815   37.1806 C   0  0  0  0  0  0  0  0  0  0  0  0
    0.9682   -4.4119   35.9009 C   0  0  0  0  0  0  0  0  0  0  0  0
    0.5121   -5.2170   34.8642 N   0  0  0  0  0  0  0  0  0  0  0  0
   -0.0194   -6.6620   34.8797 C   0  0  0  0  0  0  0  0  0  0  0  0
   -0.0870   -7.4317   35.7507 O   0  0  0  0  0  0  0  0  0  0  0  0
   -0.5629   -7.0967   33.5501 C   0  0  0  0  0  0  0  0  0  0  0  0
    0.0232   -6.6563   32.3578 C   0  0  0  0  0  0  0  0  0  0  0  0
   -0.5199   -7.0733   31.1570 C   0  0  0  0  0  0  0  0  0  0  0  0
   -0.0408   -6.5490   30.0213 F   0  0  0  0  0  0  0  0  0  0  0  0
   -1.5573   -7.9267   31.0523 N   0  0  0  0  0  0  0  0  0  0  0  0
   -2.0668   -8.3813   32.2141 C   0  0  0  0  0  0  0  0  0  0  0  0
   -1.6432   -7.9834   33.4690 C   0  0  0  0  0  0  0  0  0  0  0  0
   -2.8258   -8.6883   35.0079 I   0  0  0  0  0  0  0  0  0  0  0  0
  1  2  3  0
  2  3  1  0
  3  4  2  0
  4  5  1  0
  5  6  1  0
  6  7  3  0
  5  8  2  0
  8  9  1  0
  8 10  1  0
 10 11  2  0
 11 12  1  0
 12 13  1  0
 13 14  2  0
 13 15  1  0
 15 16  2  0
 16 17  1  0
 17 18  1  0
 17 19  2  0
 19 20  1  0
 20 21  2  0
 21 22  1  0
 11  3  1  0
 21 15  1  0
M  END
>  <ref_mols>  (629) 
7gov-a

>  <gnina_score>  (629) 
5.38

>  <smina_score_min>  (629) 
-4.869

>  <ref_pdb>  (629) 
7gov-a

>  <inspiration_score>  (629) 
None

>  <inchikey>  (629) 
LTVNMKHKIDDIBW-UHFFFAOYSA-N

>  <tags>  (629) 
BulkDock Fragalysis export,openbind_d68ev3c_c2_elabs_scored,openbind_d68ev3c_c2_elabs_scored_4.5plus,openbind_d68ev3c_c2_elabs,openbind_d68ev3c_c2_elabs_scored_5plus,syndirella_product,openbind_d68ev3c_c2_elabs_scored_top80percent,syndirella_placed

>  <smiles>  (629) 
C#Cc1cc(C#N)c(F)cc1NC(=O)c1cc(F)ncc1I

>  <subsites>  (629) 
None

>  <rmsd(smina/fragmenstein)>  (629) 
1.198

>  <alias>  (629) 
None

>  <energy_score>  (629) 
-14.785747

>  <HIPPO Pose ID>  (629) 
66416

>  <distance_score>  (629) 
0.526872

>  <HIPPO Compound ID>  (629) 
104680

>  <gnina_score_min>  (629) 
5.274

>  <name>  (629) 
P66416

>  <exports>  (629) 
['/opt/xchem-fragalysis-2/maxwin/BulkDock/OUTPUTS/openbind_d68ev3c_c2_elabs_1LOTQJ3.sdf', '/opt/xchem-fragalysis-2/maxwin/BulkDock/OUTPUTS/openbind_d68ev3c_c2_elabs_1LSYEHW.sdf', '/opt/xchem-fragalysis-2/maxwin/BulkDock/OUTPUTS/openbind_d68ev3c_c2_elabs_1LSYI5W.sdf']

$$$$
P66417
     RDKit          3D

 22 23  0  0  0  0  0  0  0  0999 V2000
    1.7527   -2.8579   33.1449 C   0  0  0  0  0  0  0  0  0  0  0  0
    2.6170   -3.1356   34.3457 C   0  0  0  0  0  0  0  0  0  0  0  0
    3.8416   -3.0789   34.2755 O   0  0  0  0  0  0  0  0  0  0  0  0
    1.9589   -3.3881   35.6498 C   0  0  0  0  0  0  0  0  0  0  0  0
    2.4306   -2.6420   36.7419 C   0  0  0  0  0  0  0  0  0  0  0  0
    1.8837   -2.8381   38.0095 C   0  0  0  0  0  0  0  0  0  0  0  0
    2.5055   -1.8022   39.4636 Br  0  0  0  0  0  0  0  0  0  0  0  0
    0.8849   -3.7879   38.1921 C   0  0  0  0  0  0  0  0  0  0  0  0
    0.3124   -3.9620   39.3930 F   0  0  0  0  0  0  0  0  0  0  0  0
    0.4528   -4.5717   37.1253 C   0  0  0  0  0  0  0  0  0  0  0  0
    0.9834   -4.3767   35.8439 C   0  0  0  0  0  0  0  0  0  0  0  0
    0.5342   -5.2034   34.8148 N   0  0  0  0  0  0  0  0  0  0  0  0
    0.0270   -6.6586   34.8487 C   0  0  0  0  0  0  0  0  0  0  0  0
   -0.0228   -7.4199   35.7284 O   0  0  0  0  0  0  0  0  0  0  0  0
   -0.5372   -7.0986   33.5304 C   0  0  0  0  0  0  0  0  0  0  0  0
    0.0420   -6.6626   32.3336 C   0  0  0  0  0  0  0  0  0  0  0  0
   -0.5149   -7.0747   31.1379 C   0  0  0  0  0  0  0  0  0  0  0  0
   -0.0453   -6.5508   29.9984 F   0  0  0  0  0  0  0  0  0  0  0  0
   -1.5613   -7.9181   31.0442 N   0  0  0  0  0  0  0  0  0  0  0  0
   -2.0626   -8.3706   32.2105 C   0  0  0  0  0  0  0  0  0  0  0  0
   -1.6237   -7.9769   33.4612 C   0  0  0  0  0  0  0  0  0  0  0  0
   -2.7918   -8.6707   35.0112 I   0  0  0  0  0  0  0  0  0  0  0  0
  1  2  1  0
  2  3  2  0
  2  4  1  0
  4  5  2  0
  5  6  1  0
  6  7  1  0
  6  8  2  0
  8  9  1  0
  8 10  1  0
 10 11  2  0
 11 12  1  0
 12 13  1  0
 13 14  2  0
 13 15  1  0
 15 16  2  0
 16 17  1  0
 17 18  1  0
 17 19  2  0
 19 20  1  0
 20 21  2  0
 21 22  1  0
 11  4  1  0
 21 15  1  0
M  END
>  <ref_mols>  (630) 
7gov-a

>  <gnina_score>  (630) 
5.458

>  <smina_score_min>  (630) 
-5.337

>  <ref_pdb>  (630) 
7gov-a

>  <inspiration_score>  (630) 
None

>  <inchikey>  (630) 
RWCKFRMFDIDMDL-UHFFFAOYSA-N

>  <tags>  (630) 
BulkDock Fragalysis export,openbind_d68ev3c_c2_elabs_scored,openbind_d68ev3c_c2_elabs_scored_4.5plus,openbind_d68ev3c_c2_elabs,openbind_d68ev3c_c2_elabs_scored_5plus,syndirella_product,openbind_d68ev3c_c2_elabs_scored_top80percent,syndirella_placed

>  <smiles>  (630) 
CC(=O)c1cc(Br)c(F)cc1NC(=O)c1cc(F)ncc1I

>  <subsites>  (630) 
None

>  <rmsd(smina/fragmenstein)>  (630) 
1.261

>  <alias>  (630) 
None

>  <energy_score>  (630) 
-7.614298

>  <HIPPO Pose ID>  (630) 
66417

>  <distance_score>  (630) 
0.542095

>  <HIPPO Compound ID>  (630) 
104682

>  <gnina_score_min>  (630) 
5.351

>  <name>  (630) 
P66417

>  <exports>  (630) 
['/opt/xchem-fragalysis-2/maxwin/BulkDock/OUTPUTS/openbind_d68ev3c_c2_elabs_1LOTQJ3.sdf', '/opt/xchem-fragalysis-2/maxwin/BulkDock/OUTPUTS/openbind_d68ev3c_c2_elabs_1LSYEHW.sdf', '/opt/xchem-fragalysis-2/maxwin/BulkDock/OUTPUTS/openbind_d68ev3c_c2_elabs_1LSYI5W.sdf']

$$$$
P66439
     RDKit          3D

 22 23  0  0  0  0  0  0  0  0999 V2000
    4.3191   -3.0516   34.6000 C   0  0  0  0  0  0  0  0  0  0  0  0
    2.8529   -3.3912   34.6638 C   0  0  0  0  0  0  0  0  0  0  0  0
    2.2087   -3.6424   33.6446 O   0  0  0  0  0  0  0  0  0  0  0  0
    2.1791   -3.3994   35.9971 C   0  0  0  0  0  0  0  0  0  0  0  0
    2.6551   -2.5946   37.0431 C   0  0  0  0  0  0  0  0  0  0  0  0
    2.0511   -2.6493   38.3031 C   0  0  0  0  0  0  0  0  0  0  0  0
    0.9803   -3.5091   38.5185 C   0  0  0  0  0  0  0  0  0  0  0  0
    0.3875   -3.5359   39.7198 F   0  0  0  0  0  0  0  0  0  0  0  0
    0.5063   -4.3147   37.4953 C   0  0  0  0  0  0  0  0  0  0  0  0
   -0.5667   -5.0843   37.7312 F   0  0  0  0  0  0  0  0  0  0  0  0
    1.0950   -4.2606   36.2273 C   0  0  0  0  0  0  0  0  0  0  0  0
    0.5902   -5.0343   35.1907 N   0  0  0  0  0  0  0  0  0  0  0  0
   -0.0373   -6.4358   35.2054 C   0  0  0  0  0  0  0  0  0  0  0  0
   -0.3023   -7.1365   36.0995 O   0  0  0  0  0  0  0  0  0  0  0  0
   -0.4505   -6.9070   33.8556 C   0  0  0  0  0  0  0  0  0  0  0  0
    0.1604   -6.5136   32.6593 C   0  0  0  0  0  0  0  0  0  0  0  0
   -0.3444   -6.9964   31.4594 C   0  0  0  0  0  0  0  0  0  0  0  0
   -1.4017   -7.8233   31.3728 N   0  0  0  0  0  0  0  0  0  0  0  0
   -1.9397   -8.1951   32.5534 C   0  0  0  0  0  0  0  0  0  0  0  0
   -3.2737   -9.2193   32.3919 Cl  0  0  0  0  0  0  0  0  0  0  0  0
   -1.5271   -7.7858   33.8042 C   0  0  0  0  0  0  0  0  0  0  0  0
   -2.2125   -8.2127   34.9130 O   0  0  0  0  0  0  0  0  0  0  0  0
  1  2  1  0
  2  3  2  0
  2  4  1  0
  4  5  2  0
  5  6  1  0
  6  7  2  0
  7  8  1  0
  7  9  1  0
  9 10  1  0
  9 11  2  0
 11 12  1  0
 12 13  1  0
 13 14  2  0
 13 15  1  0
 15 16  2  0
 16 17  1  0
 17 18  2  0
 18 19  1  0
 19 20  1  0
 19 21  2  0
 21 22  1  0
 11  4  1  0
 21 15  1  0
M  END
>  <ref_mols>  (631) 
7gov-a

>  <gnina_score>  (631) 
4.97

>  <smina_score_min>  (631) 
-6.076

>  <ref_pdb>  (631) 
7gov-a

>  <inspiration_score>  (631) 
None

>  <inchikey>  (631) 
QXFHQZNGOIZVNC-UHFFFAOYSA-N

>  <tags>  (631) 
BulkDock Fragalysis export,openbind_d68ev3c_c2_elabs_scored,openbind_d68ev3c_c2_elabs_scored_4.5plus,openbind_d68ev3c_c2_elabs,openbind_d68ev3c_c2_elabs_scored_5plus,syndirella_product,openbind_d68ev3c_c2_elabs_scored_top80percent,syndirella_placed

>  <smiles>  (631) 
CC(=O)c1ccc(F)c(F)c1NC(=O)c1ccnc(Cl)c1O

>  <subsites>  (631) 
None

>  <rmsd(smina/fragmenstein)>  (631) 
0.692

>  <alias>  (631) 
None

>  <energy_score>  (631) 
-31.699932

>  <HIPPO Pose ID>  (631) 
66439

>  <distance_score>  (631) 
0.662206

>  <HIPPO Compound ID>  (631) 
104754

>  <gnina_score_min>  (631) 
5.061

>  <name>  (631) 
P66439

>  <exports>  (631) 
['/opt/xchem-fragalysis-2/maxwin/BulkDock/OUTPUTS/openbind_d68ev3c_c2_elabs_1LOTQJ3.sdf', '/opt/xchem-fragalysis-2/maxwin/BulkDock/OUTPUTS/openbind_d68ev3c_c2_elabs_1LSYEHW.sdf', '/opt/xchem-fragalysis-2/maxwin/BulkDock/OUTPUTS/openbind_d68ev3c_c2_elabs_1LSYI5W.sdf']

$$$$
P66444
     RDKit          3D

 22 23  0  0  0  0  0  0  0  0999 V2000
    3.1913   -3.6403   33.5137 C   0  0  0  0  0  0  0  0  0  0  0  0
    2.6412   -3.6712   34.5807 C   0  0  0  0  0  0  0  0  0  0  0  0
    1.9829   -3.6942   35.8573 C   0  0  0  0  0  0  0  0  0  0  0  0
    2.4575   -2.8333   36.8558 C   0  0  0  0  0  0  0  0  0  0  0  0
    1.8721   -2.8409   38.1210 C   0  0  0  0  0  0  0  0  0  0  0  0
    2.4753   -1.7799   39.3366 Cl  0  0  0  0  0  0  0  0  0  0  0  0
    0.8052   -3.6901   38.3876 C   0  0  0  0  0  0  0  0  0  0  0  0
    0.2095   -3.6803   39.5906 F   0  0  0  0  0  0  0  0  0  0  0  0
    0.3330   -4.5508   37.4027 C   0  0  0  0  0  0  0  0  0  0  0  0
   -0.7280   -5.3152   37.6965 F   0  0  0  0  0  0  0  0  0  0  0  0
    0.9210   -4.5781   36.1317 C   0  0  0  0  0  0  0  0  0  0  0  0
    0.4804   -5.4467   35.1258 N   0  0  0  0  0  0  0  0  0  0  0  0
   -0.3705   -6.7310   35.2122 C   0  0  0  0  0  0  0  0  0  0  0  0
   -0.7738   -7.3101   36.1416 O   0  0  0  0  0  0  0  0  0  0  0  0
   -0.7508   -7.2723   33.8620 C   0  0  0  0  0  0  0  0  0  0  0  0
   -1.7518   -8.2535   33.8425 C   0  0  0  0  0  0  0  0  0  0  0  0
   -2.2315   -8.6955   32.6253 C   0  0  0  0  0  0  0  0  0  0  0  0
   -1.8061   -8.2239   31.4379 N   0  0  0  0  0  0  0  0  0  0  0  0
   -0.8069   -7.3131   31.4802 C   0  0  0  0  0  0  0  0  0  0  0  0
   -0.3891   -6.7025   29.9333 Cl  0  0  0  0  0  0  0  0  0  0  0  0
   -0.2160   -6.8466   32.6473 C   0  0  0  0  0  0  0  0  0  0  0  0
    0.8833   -6.0341   32.6021 O   0  0  0  0  0  0  0  0  0  0  0  0
  1  2  3  0
  2  3  1  0
  3  4  2  0
  4  5  1  0
  5  6  1  0
  5  7  2  0
  7  8  1  0
  7  9  1  0
  9 10  1  0
  9 11  2  0
 11 12  1  0
 12 13  1  0
 13 14  2  0
 13 15  1  0
 15 16  2  0
 16 17  1  0
 17 18  2  0
 18 19  1  0
 19 20  1  0
 19 21  2  0
 21 22  1  0
 11  3  1  0
 21 15  1  0
M  END
>  <ref_mols>  (632) 
7gov-a

>  <gnina_score>  (632) 
5.261

>  <smina_score_min>  (632) 
-5.893

>  <ref_pdb>  (632) 
7gov-a

>  <inspiration_score>  (632) 
None

>  <inchikey>  (632) 
PLJFZNCQMKOVJR-UHFFFAOYSA-N

>  <tags>  (632) 
BulkDock Fragalysis export,openbind_d68ev3c_c2_elabs_scored,openbind_d68ev3c_c2_elabs_scored_4.5plus,openbind_d68ev3c_c2_elabs,openbind_d68ev3c_c2_elabs_scored_5plus,syndirella_product,openbind_d68ev3c_c2_elabs_scored_top80percent,syndirella_placed

>  <smiles>  (632) 
C#Cc1cc(Cl)c(F)c(F)c1NC(=O)c1ccnc(Cl)c1O

>  <subsites>  (632) 
None

>  <rmsd(smina/fragmenstein)>  (632) 
0.958

>  <alias>  (632) 
None

>  <energy_score>  (632) 
-14.454645

>  <HIPPO Pose ID>  (632) 
66444

>  <distance_score>  (632) 
0.603193

>  <HIPPO Compound ID>  (632) 
104762

>  <gnina_score_min>  (632) 
5.144

>  <name>  (632) 
P66444

>  <exports>  (632) 
['/opt/xchem-fragalysis-2/maxwin/BulkDock/OUTPUTS/openbind_d68ev3c_c2_elabs_1LOTQJ3.sdf', '/opt/xchem-fragalysis-2/maxwin/BulkDock/OUTPUTS/openbind_d68ev3c_c2_elabs_1LSYEHW.sdf', '/opt/xchem-fragalysis-2/maxwin/BulkDock/OUTPUTS/openbind_d68ev3c_c2_elabs_1LSYI5W.sdf']

$$$$
P66445
     RDKit          3D

 22 23  0  0  0  0  0  0  0  0999 V2000
    3.2998   -3.7076   33.5322 C   0  0  0  0  0  0  0  0  0  0  0  0
    2.7171   -3.7166   34.5823 C   0  0  0  0  0  0  0  0  0  0  0  0
    2.0336   -3.7210   35.8449 C   0  0  0  0  0  0  0  0  0  0  0  0
    2.5560   -2.9393   36.8831 C   0  0  0  0  0  0  0  0  0  0  0  0
    1.9492   -2.9463   38.1437 C   0  0  0  0  0  0  0  0  0  0  0  0
    2.5161   -2.1957   39.2194 C   0  0  0  0  0  0  0  0  0  0  0  0
    3.0050   -1.5788   40.0734 N   0  0  0  0  0  0  0  0  0  0  0  0
    0.8048   -3.7105   38.3480 C   0  0  0  0  0  0  0  0  0  0  0  0
    0.1950   -3.7158   39.5427 F   0  0  0  0  0  0  0  0  0  0  0  0
    0.2723   -4.4885   37.3250 C   0  0  0  0  0  0  0  0  0  0  0  0
    0.8929   -4.5113   36.0735 C   0  0  0  0  0  0  0  0  0  0  0  0
    0.3727   -5.3111   35.0569 N   0  0  0  0  0  0  0  0  0  0  0  0
   -0.6452   -6.4664   35.1137 C   0  0  0  0  0  0  0  0  0  0  0  0
   -1.2686   -6.8826   36.0090 O   0  0  0  0  0  0  0  0  0  0  0  0
   -0.8787   -7.1074   33.7714 C   0  0  0  0  0  0  0  0  0  0  0  0
   -1.7052   -8.2426   33.7700 C   0  0  0  0  0  0  0  0  0  0  0  0
   -2.0739   -8.8042   32.5638 C   0  0  0  0  0  0  0  0  0  0  0  0
   -1.6788   -8.3336   31.3670 N   0  0  0  0  0  0  0  0  0  0  0  0
   -0.8379   -7.2786   31.3963 C   0  0  0  0  0  0  0  0  0  0  0  0
   -0.4217   -6.6945   29.8357 Cl  0  0  0  0  0  0  0  0  0  0  0  0
   -0.4026   -6.6323   32.5481 C   0  0  0  0  0  0  0  0  0  0  0  0
    0.4435   -5.5589   32.4705 O   0  0  0  0  0  0  0  0  0  0  0  0
  1  2  3  0
  2  3  1  0
  3  4  2  0
  4  5  1  0
  5  6  1  0
  6  7  3  0
  5  8  2  0
  8  9  1  0
  8 10  1  0
 10 11  2  0
 11 12  1  0
 12 13  1  0
 13 14  2  0
 13 15  1  0
 15 16  2  0
 16 17  1  0
 17 18  2  0
 18 19  1  0
 19 20  1  0
 19 21  2  0
 21 22  1  0
 11  3  1  0
 21 15  1  0
M  END
>  <ref_mols>  (633) 
7gov-a

>  <gnina_score>  (633) 
5.001

>  <smina_score_min>  (633) 
-5.854

>  <ref_pdb>  (633) 
7gov-a

>  <inspiration_score>  (633) 
None

>  <inchikey>  (633) 
VJJGEZPYFIJXPZ-UHFFFAOYSA-N

>  <tags>  (633) 
BulkDock Fragalysis export,openbind_d68ev3c_c2_elabs_scored,openbind_d68ev3c_c2_elabs_scored_4.5plus,openbind_d68ev3c_c2_elabs,openbind_d68ev3c_c2_elabs_scored_5plus,syndirella_product,openbind_d68ev3c_c2_elabs_scored_top80percent,syndirella_placed

>  <smiles>  (633) 
C#Cc1cc(C#N)c(F)cc1NC(=O)c1ccnc(Cl)c1O

>  <subsites>  (633) 
None

>  <rmsd(smina/fragmenstein)>  (633) 
1.181

>  <alias>  (633) 
None

>  <energy_score>  (633) 
-29.943855

>  <HIPPO Pose ID>  (633) 
66445

>  <distance_score>  (633) 
0.684127

>  <HIPPO Compound ID>  (633) 
104763

>  <gnina_score_min>  (633) 
5.021

>  <name>  (633) 
P66445

>  <exports>  (633) 
['/opt/xchem-fragalysis-2/maxwin/BulkDock/OUTPUTS/openbind_d68ev3c_c2_elabs_1LOTQJ3.sdf', '/opt/xchem-fragalysis-2/maxwin/BulkDock/OUTPUTS/openbind_d68ev3c_c2_elabs_1LSYEHW.sdf', '/opt/xchem-fragalysis-2/maxwin/BulkDock/OUTPUTS/openbind_d68ev3c_c2_elabs_1LSYI5W.sdf']

$$$$
P66446
     RDKit          3D

 22 23  0  0  0  0  0  0  0  0999 V2000
    3.8116   -4.7345   34.3806 C   0  0  0  0  0  0  0  0  0  0  0  0
    3.0930   -3.4587   34.7353 C   0  0  0  0  0  0  0  0  0  0  0  0
    3.1649   -2.4459   34.0460 O   0  0  0  0  0  0  0  0  0  0  0  0
    2.2861   -3.4347   35.9709 C   0  0  0  0  0  0  0  0  0  0  0  0
    2.6790   -2.5678   36.9950 C   0  0  0  0  0  0  0  0  0  0  0  0
    2.0119   -2.6120   38.2197 C   0  0  0  0  0  0  0  0  0  0  0  0
    2.5613   -1.4616   39.6165 Br  0  0  0  0  0  0  0  0  0  0  0  0
    0.9583   -3.5040   38.4114 C   0  0  0  0  0  0  0  0  0  0  0  0
    0.2979   -3.5525   39.5778 F   0  0  0  0  0  0  0  0  0  0  0  0
    0.5588   -4.3559   37.3889 C   0  0  0  0  0  0  0  0  0  0  0  0
    1.2175   -4.3158   36.1580 C   0  0  0  0  0  0  0  0  0  0  0  0
    0.7706   -5.1314   35.1284 N   0  0  0  0  0  0  0  0  0  0  0  0
    0.0062   -6.4645   35.1700 C   0  0  0  0  0  0  0  0  0  0  0  0
   -0.3037   -7.1307   36.0763 O   0  0  0  0  0  0  0  0  0  0  0  0
   -0.4530   -6.9269   33.8266 C   0  0  0  0  0  0  0  0  0  0  0  0
    0.1450   -6.5597   32.6136 C   0  0  0  0  0  0  0  0  0  0  0  0
   -0.3848   -7.0467   31.4258 C   0  0  0  0  0  0  0  0  0  0  0  0
   -1.4537   -7.8576   31.3651 N   0  0  0  0  0  0  0  0  0  0  0  0
   -1.9822   -8.2066   32.5565 C   0  0  0  0  0  0  0  0  0  0  0  0
   -3.3321   -9.2136   32.4216 Cl  0  0  0  0  0  0  0  0  0  0  0  0
   -1.5469   -7.7870   33.7973 C   0  0  0  0  0  0  0  0  0  0  0  0
   -2.2269   -8.1899   34.9186 O   0  0  0  0  0  0  0  0  0  0  0  0
  1  2  1  0
  2  3  2  0
  2  4  1  0
  4  5  2  0
  5  6  1  0
  6  7  1  0
  6  8  2  0
  8  9  1  0
  8 10  1  0
 10 11  2  0
 11 12  1  0
 12 13  1  0
 13 14  2  0
 13 15  1  0
 15 16  2  0
 16 17  1  0
 17 18  2  0
 18 19  1  0
 19 20  1  0
 19 21  2  0
 21 22  1  0
 11  4  1  0
 21 15  1  0
M  END
>  <ref_mols>  (634) 
7gov-a

>  <gnina_score>  (634) 
5.01

>  <smina_score_min>  (634) 
-6.125

>  <ref_pdb>  (634) 
7gov-a

>  <inspiration_score>  (634) 
None

>  <inchikey>  (634) 
ONNQIDIWQNFKHU-UHFFFAOYSA-N

>  <tags>  (634) 
BulkDock Fragalysis export,openbind_d68ev3c_c2_elabs_scored,openbind_d68ev3c_c2_elabs_scored_4.5plus,openbind_d68ev3c_c2_elabs,openbind_d68ev3c_c2_elabs_scored_5plus,syndirella_product,openbind_d68ev3c_c2_elabs_scored_top80percent,syndirella_placed

>  <smiles>  (634) 
CC(=O)c1cc(Br)c(F)cc1NC(=O)c1ccnc(Cl)c1O

>  <subsites>  (634) 
None

>  <rmsd(smina/fragmenstein)>  (634) 
1.468

>  <alias>  (634) 
None

>  <energy_score>  (634) 
-30.912965

>  <HIPPO Pose ID>  (634) 
66446

>  <distance_score>  (634) 
0.647744

>  <HIPPO Compound ID>  (634) 
104765

>  <gnina_score_min>  (634) 
5.045

>  <name>  (634) 
P66446

>  <exports>  (634) 
['/opt/xchem-fragalysis-2/maxwin/BulkDock/OUTPUTS/openbind_d68ev3c_c2_elabs_1LOTQJ3.sdf', '/opt/xchem-fragalysis-2/maxwin/BulkDock/OUTPUTS/openbind_d68ev3c_c2_elabs_1LSYEHW.sdf', '/opt/xchem-fragalysis-2/maxwin/BulkDock/OUTPUTS/openbind_d68ev3c_c2_elabs_1LSYI5W.sdf']

$$$$
P66451
     RDKit          3D

 22 23  0  0  0  0  0  0  0  0999 V2000
    2.9692   -3.3099   33.4048 C   0  0  0  0  0  0  0  0  0  0  0  0
    2.4685   -3.4099   34.4918 C   0  0  0  0  0  0  0  0  0  0  0  0
    1.8717   -3.5286   35.7925 C   0  0  0  0  0  0  0  0  0  0  0  0
    2.3687   -2.7368   36.8346 C   0  0  0  0  0  0  0  0  0  0  0  0
    1.8446   -2.8673   38.1221 C   0  0  0  0  0  0  0  0  0  0  0  0
    2.4589   -1.8709   39.3865 Cl  0  0  0  0  0  0  0  0  0  0  0  0
    0.8277   -3.7827   38.3732 C   0  0  0  0  0  0  0  0  0  0  0  0
    0.2797   -3.8767   39.5950 F   0  0  0  0  0  0  0  0  0  0  0  0
    0.3503   -4.5899   37.3482 C   0  0  0  0  0  0  0  0  0  0  0  0
   -0.6619   -5.4316   37.6101 F   0  0  0  0  0  0  0  0  0  0  0  0
    0.8629   -4.4701   36.0518 C   0  0  0  0  0  0  0  0  0  0  0  0
    0.3786   -5.2655   35.0153 N   0  0  0  0  0  0  0  0  0  0  0  0
   -0.1301   -6.7211   35.0236 C   0  0  0  0  0  0  0  0  0  0  0  0
   -0.1523   -7.5078   35.8820 O   0  0  0  0  0  0  0  0  0  0  0  0
   -0.6789   -7.1442   33.6892 C   0  0  0  0  0  0  0  0  0  0  0  0
   -0.1166   -6.6429   32.5102 C   0  0  0  0  0  0  0  0  0  0  0  0
   -0.6505   -7.0127   31.2832 C   0  0  0  0  0  0  0  0  0  0  0  0
   -0.1249   -6.3706   30.0344 C   0  0  0  0  0  0  0  0  0  0  0  0
   -1.6756   -7.8852   31.1705 N   0  0  0  0  0  0  0  0  0  0  0  0
   -2.1484   -8.4169   32.3184 C   0  0  0  0  0  0  0  0  0  0  0  0
   -1.7249   -8.0733   33.5941 C   0  0  0  0  0  0  0  0  0  0  0  0
   -2.4151   -8.7664   34.7259 C   0  0  0  0  0  0  0  0  0  0  0  0
  1  2  3  0
  2  3  1  0
  3  4  2  0
  4  5  1  0
  5  6  1  0
  5  7  2  0
  7  8  1  0
  7  9  1  0
  9 10  1  0
  9 11  2  0
 11 12  1  0
 12 13  1  0
 13 14  2  0
 13 15  1  0
 15 16  2  0
 16 17  1  0
 17 18  1  0
 17 19  2  0
 19 20  1  0
 20 21  2  0
 21 22  1  0
 11  3  1  0
 21 15  1  0
M  END
>  <ref_mols>  (635) 
7gov-a

>  <gnina_score>  (635) 
5.223

>  <smina_score_min>  (635) 
-5.368

>  <ref_pdb>  (635) 
7gov-a

>  <inspiration_score>  (635) 
None

>  <inchikey>  (635) 
FSAYYQPNQMTUFB-UHFFFAOYSA-N

>  <tags>  (635) 
BulkDock Fragalysis export,openbind_d68ev3c_c2_elabs_scored,openbind_d68ev3c_c2_elabs_scored_4.5plus,openbind_d68ev3c_c2_elabs,openbind_d68ev3c_c2_elabs_scored_5plus,syndirella_product,openbind_d68ev3c_c2_elabs_scored_top80percent,syndirella_placed

>  <smiles>  (635) 
C#Cc1cc(Cl)c(F)c(F)c1NC(=O)c1cc(C)ncc1C

>  <subsites>  (635) 
None

>  <rmsd(smina/fragmenstein)>  (635) 
0.577

>  <alias>  (635) 
None

>  <energy_score>  (635) 
-7.170408

>  <HIPPO Pose ID>  (635) 
66451

>  <distance_score>  (635) 
0.517531

>  <HIPPO Compound ID>  (635) 
104776

>  <gnina_score_min>  (635) 
5.091

>  <name>  (635) 
P66451

>  <exports>  (635) 
['/opt/xchem-fragalysis-2/maxwin/BulkDock/OUTPUTS/openbind_d68ev3c_c2_elabs_1LOTQJ3.sdf', '/opt/xchem-fragalysis-2/maxwin/BulkDock/OUTPUTS/openbind_d68ev3c_c2_elabs_1LSYEHW.sdf', '/opt/xchem-fragalysis-2/maxwin/BulkDock/OUTPUTS/openbind_d68ev3c_c2_elabs_1LSYI5W.sdf']

$$$$
P66459
     RDKit          3D

 22 23  0  0  0  0  0  0  0  0999 V2000
    4.5356   -2.9036   34.8079 C   0  0  0  0  0  0  0  0  0  0  0  0
    3.0683   -3.2442   34.8377 C   0  0  0  0  0  0  0  0  0  0  0  0
    2.4497   -3.4946   33.8022 O   0  0  0  0  0  0  0  0  0  0  0  0
    2.3650   -3.2505   36.1571 C   0  0  0  0  0  0  0  0  0  0  0  0
    2.8362   -2.4883   37.2294 C   0  0  0  0  0  0  0  0  0  0  0  0
    2.1908   -2.5651   38.4632 C   0  0  0  0  0  0  0  0  0  0  0  0
    2.6501   -1.8244   39.4820 F   0  0  0  0  0  0  0  0  0  0  0  0
    1.0852   -3.3869   38.6425 C   0  0  0  0  0  0  0  0  0  0  0  0
    0.4562   -3.4399   39.8237 F   0  0  0  0  0  0  0  0  0  0  0  0
    0.6104   -4.1508   37.5924 C   0  0  0  0  0  0  0  0  0  0  0  0
    1.2461   -4.0753   36.3507 C   0  0  0  0  0  0  0  0  0  0  0  0
    0.7575   -4.8301   35.3033 N   0  0  0  0  0  0  0  0  0  0  0  0
   -0.1339   -6.0786   35.3049 C   0  0  0  0  0  0  0  0  0  0  0  0
   -0.6628   -6.6272   36.1851 O   0  0  0  0  0  0  0  0  0  0  0  0
   -0.4000   -6.5847   33.9213 C   0  0  0  0  0  0  0  0  0  0  0  0
    0.2992   -6.2266   32.7602 C   0  0  0  0  0  0  0  0  0  0  0  0
   -0.0982   -6.7569   31.5380 C   0  0  0  0  0  0  0  0  0  0  0  0
   -1.1167   -7.6203   31.3973 N   0  0  0  0  0  0  0  0  0  0  0  0
   -1.7257   -7.9792   32.5434 C   0  0  0  0  0  0  0  0  0  0  0  0
   -3.0994   -9.2123   32.4217 Br  0  0  0  0  0  0  0  0  0  0  0  0
   -1.4349   -7.4935   33.7973 C   0  0  0  0  0  0  0  0  0  0  0  0
   -2.1902   -7.8731   34.8418 F   0  0  0  0  0  0  0  0  0  0  0  0
  1  2  1  0
  2  3  2  0
  2  4  1  0
  4  5  2  0
  5  6  1  0
  6  7  1  0
  6  8  2  0
  8  9  1  0
  8 10  1  0
 10 11  2  0
 11 12  1  0
 12 13  1  0
 13 14  2  0
 13 15  1  0
 15 16  2  0
 16 17  1  0
 17 18  2  0
 18 19  1  0
 19 20  1  0
 19 21  2  0
 21 22  1  0
 11  4  1  0
 21 15  1  0
M  END
>  <ref_mols>  (636) 
7gov-a

>  <gnina_score>  (636) 
5.166

>  <smina_score_min>  (636) 
-4.395

>  <ref_pdb>  (636) 
7gov-a

>  <inspiration_score>  (636) 
None

>  <inchikey>  (636) 
LEIZAPFXDNXNDH-UHFFFAOYSA-N

>  <tags>  (636) 
BulkDock Fragalysis export,openbind_d68ev3c_c2_elabs_scored,openbind_d68ev3c_c2_elabs_scored_4.5plus,openbind_d68ev3c_c2_elabs,openbind_d68ev3c_c2_elabs_scored_5plus,syndirella_product,openbind_d68ev3c_c2_elabs_scored_top80percent,syndirella_placed

>  <smiles>  (636) 
CC(=O)c1cc(F)c(F)cc1NC(=O)c1ccnc(Br)c1F

>  <subsites>  (636) 
None

>  <rmsd(smina/fragmenstein)>  (636) 
1.348

>  <alias>  (636) 
None

>  <energy_score>  (636) 
-17.467996

>  <HIPPO Pose ID>  (636) 
66459

>  <distance_score>  (636) 
0.927226

>  <HIPPO Compound ID>  (636) 
104806

>  <gnina_score_min>  (636) 
5.014

>  <name>  (636) 
P66459

>  <exports>  (636) 
['/opt/xchem-fragalysis-2/maxwin/BulkDock/OUTPUTS/openbind_d68ev3c_c2_elabs_1LOTQJ3.sdf', '/opt/xchem-fragalysis-2/maxwin/BulkDock/OUTPUTS/openbind_d68ev3c_c2_elabs_1LSYEHW.sdf', '/opt/xchem-fragalysis-2/maxwin/BulkDock/OUTPUTS/openbind_d68ev3c_c2_elabs_1LSYI5W.sdf']

$$$$
P66460
     RDKit          3D

 22 23  0  0  0  0  0  0  0  0999 V2000
    3.2427   -3.7471   33.5689 C   0  0  0  0  0  0  0  0  0  0  0  0
    2.6900   -3.7324   34.6349 C   0  0  0  0  0  0  0  0  0  0  0  0
    2.0252   -3.7192   35.9087 C   0  0  0  0  0  0  0  0  0  0  0  0
    2.5490   -2.8966   36.9145 C   0  0  0  0  0  0  0  0  0  0  0  0
    1.9540   -2.8712   38.1747 C   0  0  0  0  0  0  0  0  0  0  0  0
    2.6191   -1.8625   39.4026 Cl  0  0  0  0  0  0  0  0  0  0  0  0
    0.8305   -3.6486   38.4279 C   0  0  0  0  0  0  0  0  0  0  0  0
    0.2295   -3.6095   39.6276 F   0  0  0  0  0  0  0  0  0  0  0  0
    0.3045   -4.4656   37.4334 C   0  0  0  0  0  0  0  0  0  0  0  0
   -0.8069   -5.1559   37.7206 F   0  0  0  0  0  0  0  0  0  0  0  0
    0.8969   -4.5244   36.1660 C   0  0  0  0  0  0  0  0  0  0  0  0
    0.3885   -5.3262   35.1352 N   0  0  0  0  0  0  0  0  0  0  0  0
   -0.5734   -6.5339   35.1847 C   0  0  0  0  0  0  0  0  0  0  0  0
   -1.1537   -7.0028   36.0828 O   0  0  0  0  0  0  0  0  0  0  0  0
   -0.8407   -7.1336   33.8378 C   0  0  0  0  0  0  0  0  0  0  0  0
   -1.6461   -8.2800   33.7924 C   0  0  0  0  0  0  0  0  0  0  0  0
   -2.0137   -8.7854   32.5606 C   0  0  0  0  0  0  0  0  0  0  0  0
   -1.6308   -8.2483   31.3843 N   0  0  0  0  0  0  0  0  0  0  0  0
   -0.8105   -7.1690   31.4517 C   0  0  0  0  0  0  0  0  0  0  0  0
   -0.2796   -6.3823   29.8142 Br  0  0  0  0  0  0  0  0  0  0  0  0
   -0.4050   -6.5803   32.6390 C   0  0  0  0  0  0  0  0  0  0  0  0
    0.3561   -5.4753   32.6152 F   0  0  0  0  0  0  0  0  0  0  0  0
  1  2  3  0
  2  3  1  0
  3  4  2  0
  4  5  1  0
  5  6  1  0
  5  7  2  0
  7  8  1  0
  7  9  1  0
  9 10  1  0
  9 11  2  0
 11 12  1  0
 12 13  1  0
 13 14  2  0
 13 15  1  0
 15 16  2  0
 16 17  1  0
 17 18  2  0
 18 19  1  0
 19 20  1  0
 19 21  2  0
 21 22  1  0
 11  3  1  0
 21 15  1  0
M  END
>  <ref_mols>  (637) 
7gov-a

>  <gnina_score>  (637) 
5.419

>  <smina_score_min>  (637) 
-5.647

>  <ref_pdb>  (637) 
7gov-a

>  <inspiration_score>  (637) 
None

>  <inchikey>  (637) 
NUNMFGFZOHIQKA-UHFFFAOYSA-N

>  <tags>  (637) 
BulkDock Fragalysis export,openbind_d68ev3c_c2_elabs_scored,openbind_d68ev3c_c2_elabs_scored_4.5plus,openbind_d68ev3c_c2_elabs,openbind_d68ev3c_c2_elabs_scored_5plus,syndirella_product,openbind_d68ev3c_c2_elabs_scored_top80percent,syndirella_placed

>  <smiles>  (637) 
C#Cc1cc(Cl)c(F)c(F)c1NC(=O)c1ccnc(Br)c1F

>  <subsites>  (637) 
None

>  <rmsd(smina/fragmenstein)>  (637) 
0.829

>  <alias>  (637) 
None

>  <energy_score>  (637) 
-11.828685

>  <HIPPO Pose ID>  (637) 
66460

>  <distance_score>  (637) 
0.676652

>  <HIPPO Compound ID>  (637) 
104808

>  <gnina_score_min>  (637) 
5.285

>  <name>  (637) 
P66460

>  <exports>  (637) 
['/opt/xchem-fragalysis-2/maxwin/BulkDock/OUTPUTS/openbind_d68ev3c_c2_elabs_1LOTQJ3.sdf', '/opt/xchem-fragalysis-2/maxwin/BulkDock/OUTPUTS/openbind_d68ev3c_c2_elabs_1LSYEHW.sdf', '/opt/xchem-fragalysis-2/maxwin/BulkDock/OUTPUTS/openbind_d68ev3c_c2_elabs_1LSYI5W.sdf']

$$$$
P66461
     RDKit          3D

 22 23  0  0  0  0  0  0  0  0999 V2000
    3.3508   -3.8012   33.5741 C   0  0  0  0  0  0  0  0  0  0  0  0
    2.7691   -3.7789   34.6244 C   0  0  0  0  0  0  0  0  0  0  0  0
    2.0692   -3.7558   35.8779 C   0  0  0  0  0  0  0  0  0  0  0  0
    2.5497   -2.9208   36.8937 C   0  0  0  0  0  0  0  0  0  0  0  0
    1.9150   -2.8949   38.1399 C   0  0  0  0  0  0  0  0  0  0  0  0
    2.4377   -2.0878   39.1970 C   0  0  0  0  0  0  0  0  0  0  0  0
    2.8900   -1.4252   40.0367 N   0  0  0  0  0  0  0  0  0  0  0  0
    0.7832   -3.6773   38.3485 C   0  0  0  0  0  0  0  0  0  0  0  0
    0.1505   -3.6548   39.5310 F   0  0  0  0  0  0  0  0  0  0  0  0
    0.2891   -4.5054   37.3451 C   0  0  0  0  0  0  0  0  0  0  0  0
    0.9428   -4.5661   36.1128 C   0  0  0  0  0  0  0  0  0  0  0  0
    0.4894   -5.4299   35.1168 N   0  0  0  0  0  0  0  0  0  0  0  0
   -0.6291   -6.4932   35.1445 C   0  0  0  0  0  0  0  0  0  0  0  0
   -1.2958   -6.8677   36.0271 O   0  0  0  0  0  0  0  0  0  0  0  0
   -0.8756   -7.1201   33.8102 C   0  0  0  0  0  0  0  0  0  0  0  0
   -1.6635   -8.2777   33.7768 C   0  0  0  0  0  0  0  0  0  0  0  0
   -2.0133   -8.8018   32.5486 C   0  0  0  0  0  0  0  0  0  0  0  0
   -1.6295   -8.2714   31.3696 N   0  0  0  0  0  0  0  0  0  0  0  0
   -0.8251   -7.1796   31.4276 C   0  0  0  0  0  0  0  0  0  0  0  0
   -0.2953   -6.4092   29.7827 Br  0  0  0  0  0  0  0  0  0  0  0  0
   -0.4385   -6.5711   32.6100 C   0  0  0  0  0  0  0  0  0  0  0  0
    0.3031   -5.4533   32.5840 F   0  0  0  0  0  0  0  0  0  0  0  0
  1  2  3  0
  2  3  1  0
  3  4  2  0
  4  5  1  0
  5  6  1  0
  6  7  3  0
  5  8  2  0
  8  9  1  0
  8 10  1  0
 10 11  2  0
 11 12  1  0
 12 13  1  0
 13 14  2  0
 13 15  1  0
 15 16  2  0
 16 17  1  0
 17 18  2  0
 18 19  1  0
 19 20  1  0
 19 21  2  0
 21 22  1  0
 11  3  1  0
 21 15  1  0
M  END
>  <ref_mols>  (638) 
7gov-a

>  <gnina_score>  (638) 
5.129

>  <smina_score_min>  (638) 
-5.499

>  <ref_pdb>  (638) 
7gov-a

>  <inspiration_score>  (638) 
None

>  <inchikey>  (638) 
BQDUNPXRZTYAET-UHFFFAOYSA-N

>  <tags>  (638) 
BulkDock Fragalysis export,openbind_d68ev3c_c2_elabs_scored,openbind_d68ev3c_c2_elabs_scored_4.5plus,openbind_d68ev3c_c2_elabs,openbind_d68ev3c_c2_elabs_scored_5plus,syndirella_product,openbind_d68ev3c_c2_elabs_scored_top80percent,syndirella_placed

>  <smiles>  (638) 
C#Cc1cc(C#N)c(F)cc1NC(=O)c1ccnc(Br)c1F

>  <subsites>  (638) 
None

>  <rmsd(smina/fragmenstein)>  (638) 
1.159

>  <alias>  (638) 
None

>  <energy_score>  (638) 
-15.480204

>  <HIPPO Pose ID>  (638) 
66461

>  <distance_score>  (638) 
0.701122

>  <HIPPO Compound ID>  (638) 
104809

>  <gnina_score_min>  (638) 
5.037

>  <name>  (638) 
P66461

>  <exports>  (638) 
['/opt/xchem-fragalysis-2/maxwin/BulkDock/OUTPUTS/openbind_d68ev3c_c2_elabs_1LOTQJ3.sdf', '/opt/xchem-fragalysis-2/maxwin/BulkDock/OUTPUTS/openbind_d68ev3c_c2_elabs_1LSYEHW.sdf', '/opt/xchem-fragalysis-2/maxwin/BulkDock/OUTPUTS/openbind_d68ev3c_c2_elabs_1LSYI5W.sdf']

$$$$
P66462
     RDKit          3D

 22 23  0  0  0  0  0  0  0  0999 V2000
    4.3667   -3.5010   34.7138 C   0  0  0  0  0  0  0  0  0  0  0  0
    2.9023   -3.8568   34.6919 C   0  0  0  0  0  0  0  0  0  0  0  0
    2.3571   -4.2105   33.6482 O   0  0  0  0  0  0  0  0  0  0  0  0
    2.1108   -3.7603   35.9573 C   0  0  0  0  0  0  0  0  0  0  0  0
    2.5709   -2.9439   37.0030 C   0  0  0  0  0  0  0  0  0  0  0  0
    1.8749   -2.8982   38.2116 C   0  0  0  0  0  0  0  0  0  0  0  0
    2.5334   -1.8218   39.6210 Br  0  0  0  0  0  0  0  0  0  0  0  0
    0.7138   -3.6449   38.3761 C   0  0  0  0  0  0  0  0  0  0  0  0
    0.0344   -3.6103   39.5318 F   0  0  0  0  0  0  0  0  0  0  0  0
    0.2311   -4.4377   37.3414 C   0  0  0  0  0  0  0  0  0  0  0  0
    0.9229   -4.5028   36.1272 C   0  0  0  0  0  0  0  0  0  0  0  0
    0.4139   -5.2922   35.0951 N   0  0  0  0  0  0  0  0  0  0  0  0
   -0.6590   -6.4051   35.1174 C   0  0  0  0  0  0  0  0  0  0  0  0
   -1.3403   -6.7832   35.9888 O   0  0  0  0  0  0  0  0  0  0  0  0
   -0.8769   -7.0608   33.7920 C   0  0  0  0  0  0  0  0  0  0  0  0
   -1.6125   -8.2544   33.7797 C   0  0  0  0  0  0  0  0  0  0  0  0
   -1.9473   -8.8142   32.5629 C   0  0  0  0  0  0  0  0  0  0  0  0
   -1.5879   -8.2924   31.3736 N   0  0  0  0  0  0  0  0  0  0  0  0
   -0.8298   -7.1660   31.4108 C   0  0  0  0  0  0  0  0  0  0  0  0
   -0.3152   -6.4247   29.7472 Br  0  0  0  0  0  0  0  0  0  0  0  0
   -0.4787   -6.5111   32.5805 C   0  0  0  0  0  0  0  0  0  0  0  0
    0.1696   -5.3412   32.5273 F   0  0  0  0  0  0  0  0  0  0  0  0
  1  2  1  0
  2  3  2  0
  2  4  1  0
  4  5  2  0
  5  6  1  0
  6  7  1  0
  6  8  2  0
  8  9  1  0
  8 10  1  0
 10 11  2  0
 11 12  1  0
 12 13  1  0
 13 14  2  0
 13 15  1  0
 15 16  2  0
 16 17  1  0
 17 18  2  0
 18 19  1  0
 19 20  1  0
 19 21  2  0
 21 22  1  0
 11  4  1  0
 21 15  1  0
M  END
>  <ref_mols>  (639) 
7gov-a

>  <gnina_score>  (639) 
5.177

>  <smina_score_min>  (639) 
-5.794

>  <ref_pdb>  (639) 
7gov-a

>  <inspiration_score>  (639) 
None

>  <inchikey>  (639) 
QFEPCLSEQIUBFV-UHFFFAOYSA-N

>  <tags>  (639) 
BulkDock Fragalysis export,openbind_d68ev3c_c2_elabs_scored,openbind_d68ev3c_c2_elabs_scored_4.5plus,openbind_d68ev3c_c2_elabs,openbind_d68ev3c_c2_elabs_scored_5plus,syndirella_product,openbind_d68ev3c_c2_elabs_scored_top80percent,syndirella_placed

>  <smiles>  (639) 
CC(=O)c1cc(Br)c(F)cc1NC(=O)c1ccnc(Br)c1F

>  <subsites>  (639) 
None

>  <rmsd(smina/fragmenstein)>  (639) 
1.15

>  <alias>  (639) 
None

>  <energy_score>  (639) 
-25.710526

>  <HIPPO Pose ID>  (639) 
66462

>  <distance_score>  (639) 
0.708345

>  <HIPPO Compound ID>  (639) 
104811

>  <gnina_score_min>  (639) 
5.028

>  <name>  (639) 
P66462

>  <exports>  (639) 
['/opt/xchem-fragalysis-2/maxwin/BulkDock/OUTPUTS/openbind_d68ev3c_c2_elabs_1LOTQJ3.sdf', '/opt/xchem-fragalysis-2/maxwin/BulkDock/OUTPUTS/openbind_d68ev3c_c2_elabs_1LSYEHW.sdf', '/opt/xchem-fragalysis-2/maxwin/BulkDock/OUTPUTS/openbind_d68ev3c_c2_elabs_1LSYI5W.sdf']

$$$$
P66466
     RDKit          3D

 22 23  0  0  0  0  0  0  0  0999 V2000
    3.9694   -4.7639   34.8698 C   0  0  0  0  0  0  0  0  0  0  0  0
    2.6896   -3.9793   34.8087 C   0  0  0  0  0  0  0  0  0  0  0  0
    2.2440   -3.5190   33.7585 O   0  0  0  0  0  0  0  0  0  0  0  0
    1.9459   -3.7509   36.0733 C   0  0  0  0  0  0  0  0  0  0  0  0
    2.5576   -3.0612   37.1205 C   0  0  0  0  0  0  0  0  0  0  0  0
    1.8349   -2.8330   38.2910 C   0  0  0  0  0  0  0  0  0  0  0  0
    2.6808   -1.9720   39.7479 Br  0  0  0  0  0  0  0  0  0  0  0  0
    0.5033   -3.2450   38.3887 C   0  0  0  0  0  0  0  0  0  0  0  0
   -0.1810   -3.0780   39.5290 F   0  0  0  0  0  0  0  0  0  0  0  0
   -0.1350   -3.8718   37.3246 C   0  0  0  0  0  0  0  0  0  0  0  0
    0.6002   -4.1443   36.1786 C   0  0  0  0  0  0  0  0  0  0  0  0
    0.0631   -4.9896   35.2309 N   0  0  0  0  0  0  0  0  0  0  0  0
    0.4669   -6.4097   34.8204 C   0  0  0  0  0  0  0  0  0  0  0  0
    1.2678   -7.1249   35.2672 O   0  0  0  0  0  0  0  0  0  0  0  0
   -0.2579   -6.8148   33.6056 C   0  0  0  0  0  0  0  0  0  0  0  0
    0.1792   -6.3046   32.3807 C   0  0  0  0  0  0  0  0  0  0  0  0
   -0.4316   -6.7652   31.2315 C   0  0  0  0  0  0  0  0  0  0  0  0
   -1.4484   -7.6468   31.2388 N   0  0  0  0  0  0  0  0  0  0  0  0
   -1.8168   -8.1096   32.4524 C   0  0  0  0  0  0  0  0  0  0  0  0
   -3.1084   -9.2046   32.3645 Cl  0  0  0  0  0  0  0  0  0  0  0  0
   -1.2766   -7.7503   33.6724 C   0  0  0  0  0  0  0  0  0  0  0  0
   -1.7762   -8.3551   34.9401 C   0  0  0  0  0  0  0  0  0  0  0  0
  1  2  1  0
  2  3  2  0
  2  4  1  0
  4  5  2  0
  5  6  1  0
  6  7  1  0
  6  8  2  0
  8  9  1  0
  8 10  1  0
 10 11  2  0
 11 12  1  0
 12 13  1  0
 13 14  2  0
 13 15  1  0
 15 16  2  0
 16 17  1  0
 17 18  2  0
 18 19  1  0
 19 20  1  0
 19 21  2  0
 21 22  1  0
 11  4  1  0
 21 15  1  0
M  END
>  <ref_mols>  (640) 
7gov-a

>  <gnina_score>  (640) 
5.239

>  <smina_score_min>  (640) 
-5.6

>  <ref_pdb>  (640) 
7gov-a

>  <inspiration_score>  (640) 
None

>  <inchikey>  (640) 
DATSFIJBYDCXIA-UHFFFAOYSA-N

>  <tags>  (640) 
BulkDock Fragalysis export,openbind_d68ev3c_c2_elabs_scored,openbind_d68ev3c_c2_elabs_scored_4.5plus,openbind_d68ev3c_c2_elabs,openbind_d68ev3c_c2_elabs_scored_5plus,syndirella_product,openbind_d68ev3c_c2_elabs_scored_top80percent,syndirella_placed

>  <smiles>  (640) 
CC(=O)c1cc(Br)c(F)cc1NC(=O)c1ccnc(Cl)c1C

>  <subsites>  (640) 
None

>  <rmsd(smina/fragmenstein)>  (640) 
1.067

>  <alias>  (640) 
None

>  <energy_score>  (640) 
-16.568895

>  <HIPPO Pose ID>  (640) 
66466

>  <distance_score>  (640) 
0.508981

>  <HIPPO Compound ID>  (640) 
104823

>  <gnina_score_min>  (640) 
5.223

>  <name>  (640) 
P66466

>  <exports>  (640) 
['/opt/xchem-fragalysis-2/maxwin/BulkDock/OUTPUTS/openbind_d68ev3c_c2_elabs_1LOTQJ3.sdf', '/opt/xchem-fragalysis-2/maxwin/BulkDock/OUTPUTS/openbind_d68ev3c_c2_elabs_1LSYEHW.sdf', '/opt/xchem-fragalysis-2/maxwin/BulkDock/OUTPUTS/openbind_d68ev3c_c2_elabs_1LSYI5W.sdf']

$$$$
P66467
     RDKit          3D

 22 23  0  0  0  0  0  0  0  0999 V2000
    0.4681   -3.7786   39.6306 C   0  0  0  0  0  0  0  0  0  0  0  0
    1.1061   -3.5575   38.2894 C   0  0  0  0  0  0  0  0  0  0  0  0
    0.7058   -4.3580   37.2119 C   0  0  0  0  0  0  0  0  0  0  0  0
    1.2361   -4.1533   35.9331 C   0  0  0  0  0  0  0  0  0  0  0  0
    0.8015   -4.9477   34.8910 N   0  0  0  0  0  0  0  0  0  0  0  0
    0.4154   -6.4295   34.8632 C   0  0  0  0  0  0  0  0  0  0  0  0
    0.4740   -7.2402   35.6959 O   0  0  0  0  0  0  0  0  0  0  0  0
   -0.2186   -6.8160   33.5720 C   0  0  0  0  0  0  0  0  0  0  0  0
    0.2985   -6.4050   32.3425 C   0  0  0  0  0  0  0  0  0  0  0  0
   -0.3089   -6.8721   31.1898 C   0  0  0  0  0  0  0  0  0  0  0  0
   -1.3674   -7.7034   31.1876 N   0  0  0  0  0  0  0  0  0  0  0  0
   -1.8153   -8.0840   32.4001 C   0  0  0  0  0  0  0  0  0  0  0  0
   -3.0763   -9.2120   32.3107 Cl  0  0  0  0  0  0  0  0  0  0  0  0
   -1.3394   -7.6510   33.6189 C   0  0  0  0  0  0  0  0  0  0  0  0
   -1.9607   -8.1231   34.8964 C   0  0  0  0  0  0  0  0  0  0  0  0
    2.1794   -3.1639   35.7101 C   0  0  0  0  0  0  0  0  0  0  0  0
    2.7035   -3.0124   34.4849 F   0  0  0  0  0  0  0  0  0  0  0  0
    2.6472   -2.3962   36.7650 C   0  0  0  0  0  0  0  0  0  0  0  0
    2.1179   -2.6090   38.0488 C   0  0  0  0  0  0  0  0  0  0  0  0
    2.6625   -1.7996   39.1325 N   0  0  0  0  0  0  0  0  0  0  0  0
    3.0003   -2.3755   40.1759 O   0  0  0  0  0  0  0  0  0  0  0  0
    2.7653   -0.5817   38.9259 O   0  0  0  0  0  0  0  0  0  0  0  0
  1  2  1  0
  2  3  2  0
  3  4  1  0
  4  5  1  0
  5  6  1  0
  6  7  2  0
  6  8  1  0
  8  9  2  0
  9 10  1  0
 10 11  2  0
 11 12  1  0
 12 13  1  0
 12 14  2  0
 14 15  1  0
  4 16  2  0
 16 17  1  0
 16 18  1  0
 18 19  2  0
 19 20  1  0
 20 21  2  0
 20 22  1  0
 19  2  1  0
 14  8  1  0
M  CHG  2  20   1  22  -1
M  END
>  <ref_mols>  (641) 
7gov-a

>  <gnina_score>  (641) 
4.94

>  <smina_score_min>  (641) 
-5.329

>  <ref_pdb>  (641) 
7gov-a

>  <inspiration_score>  (641) 
None

>  <inchikey>  (641) 
PVJOJOGZKNCXHK-UHFFFAOYSA-N

>  <tags>  (641) 
BulkDock Fragalysis export,openbind_d68ev3c_c2_elabs_scored,openbind_d68ev3c_c2_elabs_scored_4.5plus,openbind_d68ev3c_c2_elabs,openbind_d68ev3c_c2_elabs_scored_5plus,syndirella_product,openbind_d68ev3c_c2_elabs_scored_top80percent,syndirella_placed

>  <smiles>  (641) 
Cc1cc(NC(=O)c2ccnc(Cl)c2C)c(F)cc1[N+](=O)[O-]

>  <subsites>  (641) 
None

>  <rmsd(smina/fragmenstein)>  (641) 
1.671

>  <alias>  (641) 
None

>  <energy_score>  (641) 
-18.200633

>  <HIPPO Pose ID>  (641) 
66467

>  <distance_score>  (641) 
0.670565

>  <HIPPO Compound ID>  (641) 
104829

>  <gnina_score_min>  (641) 
5.065

>  <name>  (641) 
P66467

>  <exports>  (641) 
['/opt/xchem-fragalysis-2/maxwin/BulkDock/OUTPUTS/openbind_d68ev3c_c2_elabs_1LOTQJ3.sdf', '/opt/xchem-fragalysis-2/maxwin/BulkDock/OUTPUTS/openbind_d68ev3c_c2_elabs_1LSYEHW.sdf', '/opt/xchem-fragalysis-2/maxwin/BulkDock/OUTPUTS/openbind_d68ev3c_c2_elabs_1LSYI5W.sdf']

$$$$
P66468
     RDKit          3D

 22 23  0  0  0  0  0  0  0  0999 V2000
    2.9106   -3.0638   34.4613 C   0  0  0  0  0  0  0  0  0  0  0  0
    2.2024   -3.1998   35.7813 C   0  0  0  0  0  0  0  0  0  0  0  0
    1.2062   -4.1653   35.9611 C   0  0  0  0  0  0  0  0  0  0  0  0
    0.7664   -4.9476   34.9081 N   0  0  0  0  0  0  0  0  0  0  0  0
    0.4546   -6.4474   34.8437 C   0  0  0  0  0  0  0  0  0  0  0  0
    0.5905   -7.2814   35.6440 O   0  0  0  0  0  0  0  0  0  0  0  0
   -0.2132   -6.8159   33.5659 C   0  0  0  0  0  0  0  0  0  0  0  0
    0.2934   -6.4070   32.3309 C   0  0  0  0  0  0  0  0  0  0  0  0
   -0.3265   -6.8720   31.1844 C   0  0  0  0  0  0  0  0  0  0  0  0
   -1.3879   -7.6984   31.1937 N   0  0  0  0  0  0  0  0  0  0  0  0
   -1.8252   -8.0776   32.4116 C   0  0  0  0  0  0  0  0  0  0  0  0
   -3.0897   -9.2031   32.3303 Cl  0  0  0  0  0  0  0  0  0  0  0  0
   -1.3333   -7.6484   33.6264 C   0  0  0  0  0  0  0  0  0  0  0  0
   -1.9338   -8.1295   34.9102 C   0  0  0  0  0  0  0  0  0  0  0  0
    0.6102   -4.3828   37.2109 C   0  0  0  0  0  0  0  0  0  0  0  0
    0.9857   -3.6150   38.3006 C   0  0  0  0  0  0  0  0  0  0  0  0
    0.3719   -3.7901   39.4782 F   0  0  0  0  0  0  0  0  0  0  0  0
    1.9850   -2.6673   38.1822 C   0  0  0  0  0  0  0  0  0  0  0  0
    2.6009   -2.4900   36.9342 C   0  0  0  0  0  0  0  0  0  0  0  0
    3.6857   -1.5196   36.8817 N   0  0  0  0  0  0  0  0  0  0  0  0
    3.4439   -0.3864   37.3218 O   0  0  0  0  0  0  0  0  0  0  0  0
    4.7723   -1.8865   36.4157 O   0  0  0  0  0  0  0  0  0  0  0  0
  1  2  1  0
  2  3  2  0
  3  4  1  0
  4  5  1  0
  5  6  2  0
  5  7  1  0
  7  8  2  0
  8  9  1  0
  9 10  2  0
 10 11  1  0
 11 12  1  0
 11 13  2  0
 13 14  1  0
  3 15  1  0
 15 16  2  0
 16 17  1  0
 16 18  1  0
 18 19  2  0
 19 20  1  0
 20 21  2  0
 20 22  1  0
 19  2  1  0
 13  7  1  0
M  CHG  2  20   1  22  -1
M  END
>  <ref_mols>  (642) 
7gov-a

>  <gnina_score>  (642) 
5.055

>  <smina_score_min>  (642) 
-5.585

>  <ref_pdb>  (642) 
7gov-a

>  <inspiration_score>  (642) 
None

>  <inchikey>  (642) 
CDPJNASTKRRNLI-UHFFFAOYSA-N

>  <tags>  (642) 
BulkDock Fragalysis export,openbind_d68ev3c_c2_elabs_scored,openbind_d68ev3c_c2_elabs_scored_4.5plus,openbind_d68ev3c_c2_elabs,openbind_d68ev3c_c2_elabs_scored_5plus,syndirella_product,openbind_d68ev3c_c2_elabs_scored_top80percent,syndirella_placed

>  <smiles>  (642) 
Cc1c(NC(=O)c2ccnc(Cl)c2C)cc(F)cc1[N+](=O)[O-]

>  <subsites>  (642) 
None

>  <rmsd(smina/fragmenstein)>  (642) 
1.487

>  <alias>  (642) 
None

>  <energy_score>  (642) 
-25.706421

>  <HIPPO Pose ID>  (642) 
66468

>  <distance_score>  (642) 
0.624515

>  <HIPPO Compound ID>  (642) 
104830

>  <gnina_score_min>  (642) 
5.006

>  <name>  (642) 
P66468

>  <exports>  (642) 
['/opt/xchem-fragalysis-2/maxwin/BulkDock/OUTPUTS/openbind_d68ev3c_c2_elabs_1LOTQJ3.sdf', '/opt/xchem-fragalysis-2/maxwin/BulkDock/OUTPUTS/openbind_d68ev3c_c2_elabs_1LSYEHW.sdf', '/opt/xchem-fragalysis-2/maxwin/BulkDock/OUTPUTS/openbind_d68ev3c_c2_elabs_1LSYI5W.sdf']

$$$$
P66469
     RDKit          3D

 22 23  0  0  0  0  0  0  0  0999 V2000
    3.9690   -3.2572   34.4290 C   0  0  0  0  0  0  0  0  0  0  0  0
    2.4672   -3.2854   34.5193 C   0  0  0  0  0  0  0  0  0  0  0  0
    1.7440   -3.1640   33.5333 O   0  0  0  0  0  0  0  0  0  0  0  0
    1.8444   -3.4359   35.8523 C   0  0  0  0  0  0  0  0  0  0  0  0
    2.3374   -2.6813   36.9282 C   0  0  0  0  0  0  0  0  0  0  0  0
    1.7926   -2.8468   38.2020 C   0  0  0  0  0  0  0  0  0  0  0  0
    0.7753   -3.7741   38.3968 C   0  0  0  0  0  0  0  0  0  0  0  0
    0.2365   -3.9046   39.6169 F   0  0  0  0  0  0  0  0  0  0  0  0
    0.3020   -4.5430   37.3393 C   0  0  0  0  0  0  0  0  0  0  0  0
   -0.7040   -5.4031   37.5644 F   0  0  0  0  0  0  0  0  0  0  0  0
    0.8186   -4.3703   36.0507 C   0  0  0  0  0  0  0  0  0  0  0  0
    0.3169   -5.1346   34.9978 N   0  0  0  0  0  0  0  0  0  0  0  0
   -0.0254   -6.6334   34.9246 C   0  0  0  0  0  0  0  0  0  0  0  0
   -0.0152   -7.4526   35.7549 O   0  0  0  0  0  0  0  0  0  0  0  0
   -0.5510   -7.0868   33.5905 C   0  0  0  0  0  0  0  0  0  0  0  0
   -1.5554   -8.0685   33.7061 C   0  0  0  0  0  0  0  0  0  0  0  0
   -2.1336   -8.5827   32.5710 C   0  0  0  0  0  0  0  0  0  0  0  0
   -1.8004   -8.1802   31.3373 N   0  0  0  0  0  0  0  0  0  0  0  0
   -0.8080   -7.2627   31.2406 C   0  0  0  0  0  0  0  0  0  0  0  0
   -0.5312   -6.8319   29.5947 Cl  0  0  0  0  0  0  0  0  0  0  0  0
   -0.1216   -6.6896   32.3127 C   0  0  0  0  0  0  0  0  0  0  0  0
    1.0003   -5.7355   32.0436 C   0  0  0  0  0  0  0  0  0  0  0  0
  1  2  1  0
  2  3  2  0
  2  4  1  0
  4  5  2  0
  5  6  1  0
  6  7  2  0
  7  8  1  0
  7  9  1  0
  9 10  1  0
  9 11  2  0
 11 12  1  0
 12 13  1  0
 13 14  2  0
 13 15  1  0
 15 16  2  0
 16 17  1  0
 17 18  2  0
 18 19  1  0
 19 20  1  0
 19 21  2  0
 21 22  1  0
 11  4  1  0
 21 15  1  0
M  END
>  <ref_mols>  (643) 
7gov-a

>  <gnina_score>  (643) 
5.176

>  <smina_score_min>  (643) 
-5.822

>  <ref_pdb>  (643) 
7gov-a

>  <inspiration_score>  (643) 
None

>  <inchikey>  (643) 
GNXRKCNIWZMJJC-UHFFFAOYSA-N

>  <tags>  (643) 
BulkDock Fragalysis export,openbind_d68ev3c_c2_elabs_scored,openbind_d68ev3c_c2_elabs_scored_4.5plus,openbind_d68ev3c_c2_elabs,openbind_d68ev3c_c2_elabs_scored_5plus,syndirella_product,openbind_d68ev3c_c2_elabs_scored_top80percent,syndirella_placed

>  <smiles>  (643) 
CC(=O)c1ccc(F)c(F)c1NC(=O)c1ccnc(Cl)c1C

>  <subsites>  (643) 
None

>  <rmsd(smina/fragmenstein)>  (643) 
0.779

>  <alias>  (643) 
None

>  <energy_score>  (643) 
-25.15487

>  <HIPPO Pose ID>  (643) 
66469

>  <distance_score>  (643) 
0.447371

>  <HIPPO Compound ID>  (643) 
104831

>  <gnina_score_min>  (643) 
5.103

>  <name>  (643) 
P66469

>  <exports>  (643) 
['/opt/xchem-fragalysis-2/maxwin/BulkDock/OUTPUTS/openbind_d68ev3c_c2_elabs_1LOTQJ3.sdf', '/opt/xchem-fragalysis-2/maxwin/BulkDock/OUTPUTS/openbind_d68ev3c_c2_elabs_1LSYEHW.sdf', '/opt/xchem-fragalysis-2/maxwin/BulkDock/OUTPUTS/openbind_d68ev3c_c2_elabs_1LSYI5W.sdf']

$$$$
P66470
     RDKit          3D

 22 23  0  0  0  0  0  0  0  0999 V2000
    3.2455   -2.7936   33.3906 C   0  0  0  0  0  0  0  0  0  0  0  0
    2.7412   -2.9660   34.4669 C   0  0  0  0  0  0  0  0  0  0  0  0
    2.1426   -3.1632   35.7546 C   0  0  0  0  0  0  0  0  0  0  0  0
    2.5800   -2.4050   36.8455 C   0  0  0  0  0  0  0  0  0  0  0  0
    2.0463   -2.6308   38.1234 C   0  0  0  0  0  0  0  0  0  0  0  0
    2.5051   -1.8649   39.2393 C   0  0  0  0  0  0  0  0  0  0  0  0
    2.9011   -1.2234   40.1227 N   0  0  0  0  0  0  0  0  0  0  0  0
    1.0744   -3.6107   38.3011 C   0  0  0  0  0  0  0  0  0  0  0  0
    0.5086   -3.8068   39.5016 F   0  0  0  0  0  0  0  0  0  0  0  0
    0.6627   -4.3957   37.2335 C   0  0  0  0  0  0  0  0  0  0  0  0
    1.1953   -4.1667   35.9620 C   0  0  0  0  0  0  0  0  0  0  0  0
    0.7589   -4.9596   34.9151 N   0  0  0  0  0  0  0  0  0  0  0  0
    0.4101   -6.4506   34.8742 C   0  0  0  0  0  0  0  0  0  0  0  0
    0.5060   -7.2706   35.6939 O   0  0  0  0  0  0  0  0  0  0  0  0
   -0.2380   -6.8289   33.5899 C   0  0  0  0  0  0  0  0  0  0  0  0
    0.2793   -6.4082   32.3626 C   0  0  0  0  0  0  0  0  0  0  0  0
   -0.3243   -6.8685   31.2056 C   0  0  0  0  0  0  0  0  0  0  0  0
   -1.3820   -7.6994   31.1975 N   0  0  0  0  0  0  0  0  0  0  0  0
   -1.8293   -8.0888   32.4082 C   0  0  0  0  0  0  0  0  0  0  0  0
   -3.0928   -9.2133   32.3102 Cl  0  0  0  0  0  0  0  0  0  0  0  0
   -1.3523   -7.6695   33.6325 C   0  0  0  0  0  0  0  0  0  0  0  0
   -1.9744   -8.1723   34.8981 C   0  0  0  0  0  0  0  0  0  0  0  0
  1  2  3  0
  2  3  1  0
  3  4  2  0
  4  5  1  0
  5  6  1  0
  6  7  3  0
  5  8  2  0
  8  9  1  0
  8 10  1  0
 10 11  2  0
 11 12  1  0
 12 13  1  0
 13 14  2  0
 13 15  1  0
 15 16  2  0
 16 17  1  0
 17 18  2  0
 18 19  1  0
 19 20  1  0
 19 21  2  0
 21 22  1  0
 11  3  1  0
 21 15  1  0
M  END
>  <ref_mols>  (644) 
7gov-a

>  <gnina_score>  (644) 
5.077

>  <smina_score_min>  (644) 
-5.16

>  <ref_pdb>  (644) 
7gov-a

>  <inspiration_score>  (644) 
None

>  <inchikey>  (644) 
NVXOJHHIXPAOGE-UHFFFAOYSA-N

>  <tags>  (644) 
BulkDock Fragalysis export,openbind_d68ev3c_c2_elabs_scored,openbind_d68ev3c_c2_elabs_scored_4.5plus,openbind_d68ev3c_c2_elabs,openbind_d68ev3c_c2_elabs_scored_5plus,syndirella_product,openbind_d68ev3c_c2_elabs_scored_top80percent,syndirella_placed

>  <smiles>  (644) 
C#Cc1cc(C#N)c(F)cc1NC(=O)c1ccnc(Cl)c1C

>  <subsites>  (644) 
None

>  <rmsd(smina/fragmenstein)>  (644) 
1.504

>  <alias>  (644) 
None

>  <energy_score>  (644) 
-7.824045

>  <HIPPO Pose ID>  (644) 
66470

>  <distance_score>  (644) 
0.655262

>  <HIPPO Compound ID>  (644) 
104832

>  <gnina_score_min>  (644) 
5.064

>  <name>  (644) 
P66470

>  <exports>  (644) 
['/opt/xchem-fragalysis-2/maxwin/BulkDock/OUTPUTS/openbind_d68ev3c_c2_elabs_1LOTQJ3.sdf', '/opt/xchem-fragalysis-2/maxwin/BulkDock/OUTPUTS/openbind_d68ev3c_c2_elabs_1LSYEHW.sdf', '/opt/xchem-fragalysis-2/maxwin/BulkDock/OUTPUTS/openbind_d68ev3c_c2_elabs_1LSYI5W.sdf']

$$$$
P66471
     RDKit          3D

 22 23  0  0  0  0  0  0  0  0999 V2000
    3.4867   -4.1941   34.0511 C   0  0  0  0  0  0  0  0  0  0  0  0
    2.7899   -3.9583   35.0002 C   0  0  0  0  0  0  0  0  0  0  0  0
    1.9662   -3.7010   36.1491 C   0  0  0  0  0  0  0  0  0  0  0  0
    2.5182   -3.0072   37.2290 C   0  0  0  0  0  0  0  0  0  0  0  0
    1.7513   -2.7775   38.3707 C   0  0  0  0  0  0  0  0  0  0  0  0
    2.4684   -1.9877   39.7238 Cl  0  0  0  0  0  0  0  0  0  0  0  0
    0.4210   -3.1888   38.4152 C   0  0  0  0  0  0  0  0  0  0  0  0
   -0.3075   -3.0188   39.5278 F   0  0  0  0  0  0  0  0  0  0  0  0
   -0.1542   -3.8143   37.3187 C   0  0  0  0  0  0  0  0  0  0  0  0
   -1.4313   -4.2241   37.3777 F   0  0  0  0  0  0  0  0  0  0  0  0
    0.6201   -4.1005   36.1994 C   0  0  0  0  0  0  0  0  0  0  0  0
    0.1034   -4.9391   35.2271 N   0  0  0  0  0  0  0  0  0  0  0  0
    0.5506   -6.3326   34.7751 C   0  0  0  0  0  0  0  0  0  0  0  0
    1.3766   -7.0332   35.1974 O   0  0  0  0  0  0  0  0  0  0  0  0
   -0.1989   -6.7505   33.5747 C   0  0  0  0  0  0  0  0  0  0  0  0
    0.2460   -6.3275   32.3233 C   0  0  0  0  0  0  0  0  0  0  0  0
   -0.3934   -6.8342   31.2106 C   0  0  0  0  0  0  0  0  0  0  0  0
   -1.4287   -7.6918   31.2792 N   0  0  0  0  0  0  0  0  0  0  0  0
   -1.8047   -8.0779   32.5198 C   0  0  0  0  0  0  0  0  0  0  0  0
   -3.0868   -9.1846   32.4671 Cl  0  0  0  0  0  0  0  0  0  0  0  0
   -1.2595   -7.6384   33.7092 C   0  0  0  0  0  0  0  0  0  0  0  0
   -1.7054   -8.0817   35.0616 C   0  0  0  0  0  0  0  0  0  0  0  0
  1  2  3  0
  2  3  1  0
  3  4  2  0
  4  5  1  0
  5  6  1  0
  5  7  2  0
  7  8  1  0
  7  9  1  0
  9 10  1  0
  9 11  2  0
 11 12  1  0
 12 13  1  0
 13 14  2  0
 13 15  1  0
 15 16  2  0
 16 17  1  0
 17 18  2  0
 18 19  1  0
 19 20  1  0
 19 21  2  0
 21 22  1  0
 11  3  1  0
 21 15  1  0
M  END
>  <ref_mols>  (645) 
7gov-a

>  <gnina_score>  (645) 
5.398

>  <smina_score_min>  (645) 
-5.38

>  <ref_pdb>  (645) 
7gov-a

>  <inspiration_score>  (645) 
None

>  <inchikey>  (645) 
KGYBSHJQZSMACT-UHFFFAOYSA-N

>  <tags>  (645) 
BulkDock Fragalysis export,openbind_d68ev3c_c2_elabs_scored,openbind_d68ev3c_c2_elabs_scored_4.5plus,openbind_d68ev3c_c2_elabs,openbind_d68ev3c_c2_elabs_scored_5plus,syndirella_product,openbind_d68ev3c_c2_elabs_scored_top80percent,syndirella_placed

>  <smiles>  (645) 
C#Cc1cc(Cl)c(F)c(F)c1NC(=O)c1ccnc(Cl)c1C

>  <subsites>  (645) 
None

>  <rmsd(smina/fragmenstein)>  (645) 
0.828

>  <alias>  (645) 
None

>  <energy_score>  (645) 
-6.554624

>  <HIPPO Pose ID>  (645) 
66471

>  <distance_score>  (645) 
0.566664

>  <HIPPO Compound ID>  (645) 
104833

>  <gnina_score_min>  (645) 
5.422

>  <name>  (645) 
P66471

>  <exports>  (645) 
['/opt/xchem-fragalysis-2/maxwin/BulkDock/OUTPUTS/openbind_d68ev3c_c2_elabs_1LOTQJ3.sdf', '/opt/xchem-fragalysis-2/maxwin/BulkDock/OUTPUTS/openbind_d68ev3c_c2_elabs_1LSYEHW.sdf', '/opt/xchem-fragalysis-2/maxwin/BulkDock/OUTPUTS/openbind_d68ev3c_c2_elabs_1LSYI5W.sdf']

$$$$
P66472
     RDKit          3D

 22 23  0  0  0  0  0  0  0  0999 V2000
    2.8788   -3.0855   34.4440 C   0  0  0  0  0  0  0  0  0  0  0  0
    2.1859   -3.2163   35.7696 C   0  0  0  0  0  0  0  0  0  0  0  0
    2.6517   -2.5034   36.8836 C   0  0  0  0  0  0  0  0  0  0  0  0
    2.0736   -2.7244   38.1436 C   0  0  0  0  0  0  0  0  0  0  0  0
    2.5772   -2.0028   39.2906 N   0  0  0  0  0  0  0  0  0  0  0  0
    3.8089   -1.9167   39.4111 O   0  0  0  0  0  0  0  0  0  0  0  0
    1.7521   -1.4792   40.0514 O   0  0  0  0  0  0  0  0  0  0  0  0
    1.0471   -3.6405   38.3171 C   0  0  0  0  0  0  0  0  0  0  0  0
    0.4732   -3.8496   39.5104 F   0  0  0  0  0  0  0  0  0  0  0  0
    0.6121   -4.3820   37.2298 C   0  0  0  0  0  0  0  0  0  0  0  0
    1.1774   -4.1648   35.9674 C   0  0  0  0  0  0  0  0  0  0  0  0
    0.7421   -4.9496   34.9174 N   0  0  0  0  0  0  0  0  0  0  0  0
    0.4255   -6.4482   34.8587 C   0  0  0  0  0  0  0  0  0  0  0  0
    0.5532   -7.2784   35.6639 O   0  0  0  0  0  0  0  0  0  0  0  0
   -0.2348   -6.8205   33.5803 C   0  0  0  0  0  0  0  0  0  0  0  0
    0.2756   -6.3986   32.3508 C   0  0  0  0  0  0  0  0  0  0  0  0
   -0.3332   -6.8612   31.1975 C   0  0  0  0  0  0  0  0  0  0  0  0
   -1.3904   -7.6928   31.1962 N   0  0  0  0  0  0  0  0  0  0  0  0
   -1.8299   -8.0841   32.4092 C   0  0  0  0  0  0  0  0  0  0  0  0
   -3.0942   -9.2086   32.3180 Cl  0  0  0  0  0  0  0  0  0  0  0  0
   -1.3461   -7.6639   33.6304 C   0  0  0  0  0  0  0  0  0  0  0  0
   -1.9532   -8.1700   34.9016 C   0  0  0  0  0  0  0  0  0  0  0  0
  1  2  1  0
  2  3  2  0
  3  4  1  0
  4  5  1  0
  5  6  2  0
  5  7  1  0
  4  8  2  0
  8  9  1  0
  8 10  1  0
 10 11  2  0
 11 12  1  0
 12 13  1  0
 13 14  2  0
 13 15  1  0
 15 16  2  0
 16 17  1  0
 17 18  2  0
 18 19  1  0
 19 20  1  0
 19 21  2  0
 21 22  1  0
 11  2  1  0
 21 15  1  0
M  CHG  2   5   1   7  -1
M  END
>  <ref_mols>  (646) 
7gov-a

>  <gnina_score>  (646) 
4.912

>  <smina_score_min>  (646) 
-5.446

>  <ref_pdb>  (646) 
7gov-a

>  <inspiration_score>  (646) 
None

>  <inchikey>  (646) 
BCSNVYMBDUSGFE-UHFFFAOYSA-N

>  <tags>  (646) 
BulkDock Fragalysis export,openbind_d68ev3c_c2_elabs_scored,openbind_d68ev3c_c2_elabs_scored_4.5plus,openbind_d68ev3c_c2_elabs,openbind_d68ev3c_c2_elabs_scored_5plus,syndirella_product,openbind_d68ev3c_c2_elabs_scored_top80percent,syndirella_placed

>  <smiles>  (646) 
Cc1cc([N+](=O)[O-])c(F)cc1NC(=O)c1ccnc(Cl)c1C

>  <subsites>  (646) 
None

>  <rmsd(smina/fragmenstein)>  (646) 
1.551

>  <alias>  (646) 
None

>  <energy_score>  (646) 
-25.112742

>  <HIPPO Pose ID>  (646) 
66472

>  <distance_score>  (646) 
0.622989

>  <HIPPO Compound ID>  (646) 
104834

>  <gnina_score_min>  (646) 
5.051

>  <name>  (646) 
P66472

>  <exports>  (646) 
['/opt/xchem-fragalysis-2/maxwin/BulkDock/OUTPUTS/openbind_d68ev3c_c2_elabs_1LOTQJ3.sdf', '/opt/xchem-fragalysis-2/maxwin/BulkDock/OUTPUTS/openbind_d68ev3c_c2_elabs_1LSYEHW.sdf', '/opt/xchem-fragalysis-2/maxwin/BulkDock/OUTPUTS/openbind_d68ev3c_c2_elabs_1LSYI5W.sdf']

$$$$
P66476
     RDKit          3D

 22 23  0  0  0  0  0  0  0  0999 V2000
    3.2360   -3.7575   33.5458 C   0  0  0  0  0  0  0  0  0  0  0  0
    2.6768   -3.7426   34.6084 C   0  0  0  0  0  0  0  0  0  0  0  0
    2.0029   -3.7281   35.8773 C   0  0  0  0  0  0  0  0  0  0  0  0
    2.5405   -2.9284   36.8946 C   0  0  0  0  0  0  0  0  0  0  0  0
    1.9406   -2.9027   38.1518 C   0  0  0  0  0  0  0  0  0  0  0  0
    2.6237   -1.9247   39.3946 Cl  0  0  0  0  0  0  0  0  0  0  0  0
    0.7992   -3.6579   38.3909 C   0  0  0  0  0  0  0  0  0  0  0  0
    0.1980   -3.6232   39.5909 F   0  0  0  0  0  0  0  0  0  0  0  0
    0.2574   -4.4501   37.3837 C   0  0  0  0  0  0  0  0  0  0  0  0
   -0.8659   -5.1231   37.6640 F   0  0  0  0  0  0  0  0  0  0  0  0
    0.8518   -4.5074   36.1169 C   0  0  0  0  0  0  0  0  0  0  0  0
    0.3354   -5.2874   35.0712 N   0  0  0  0  0  0  0  0  0  0  0  0
   -0.6885   -6.4447   35.0930 C   0  0  0  0  0  0  0  0  0  0  0  0
   -1.3205   -6.8797   35.9735 O   0  0  0  0  0  0  0  0  0  0  0  0
   -0.8998   -7.0728   33.7516 C   0  0  0  0  0  0  0  0  0  0  0  0
   -1.6700   -8.2439   33.7036 C   0  0  0  0  0  0  0  0  0  0  0  0
   -1.9219   -8.8240   32.4741 C   0  0  0  0  0  0  0  0  0  0  0  0
   -1.4433   -8.3489   31.3036 N   0  0  0  0  0  0  0  0  0  0  0  0
   -0.6875   -7.2363   31.3897 C   0  0  0  0  0  0  0  0  0  0  0  0
   -0.1576   -6.8094   30.2102 O   0  0  0  0  0  0  0  0  0  0  0  0
   -0.4063   -6.5555   32.5608 C   0  0  0  0  0  0  0  0  0  0  0  0
    0.3401   -5.4420   32.5244 F   0  0  0  0  0  0  0  0  0  0  0  0
  1  2  3  0
  2  3  1  0
  3  4  2  0
  4  5  1  0
  5  6  1  0
  5  7  2  0
  7  8  1  0
  7  9  1  0
  9 10  1  0
  9 11  2  0
 11 12  1  0
 12 13  1  0
 13 14  2  0
 13 15  1  0
 15 16  2  0
 16 17  1  0
 17 18  2  0
 18 19  1  0
 19 20  1  0
 19 21  2  0
 21 22  1  0
 11  3  1  0
 21 15  1  0
M  END
>  <ref_mols>  (647) 
7gov-a

>  <gnina_score>  (647) 
5.068

>  <smina_score_min>  (647) 
-6.206

>  <ref_pdb>  (647) 
7gov-a

>  <inspiration_score>  (647) 
None

>  <inchikey>  (647) 
IRDMKFSQXMPTED-UHFFFAOYSA-N

>  <tags>  (647) 
BulkDock Fragalysis export,openbind_d68ev3c_c2_elabs_scored,openbind_d68ev3c_c2_elabs_scored_4.5plus,openbind_d68ev3c_c2_elabs,openbind_d68ev3c_c2_elabs_scored_5plus,syndirella_product,openbind_d68ev3c_c2_elabs_scored_top80percent,syndirella_placed

>  <smiles>  (647) 
C#Cc1cc(Cl)c(F)c(F)c1NC(=O)c1ccnc(O)c1F

>  <subsites>  (647) 
None

>  <rmsd(smina/fragmenstein)>  (647) 
0.784

>  <alias>  (647) 
None

>  <energy_score>  (647) 
-20.241861

>  <HIPPO Pose ID>  (647) 
66476

>  <distance_score>  (647) 
0.707643

>  <HIPPO Compound ID>  (647) 
104840

>  <gnina_score_min>  (647) 
5.001

>  <name>  (647) 
P66476

>  <exports>  (647) 
['/opt/xchem-fragalysis-2/maxwin/BulkDock/OUTPUTS/openbind_d68ev3c_c2_elabs_1LOTQJ3.sdf', '/opt/xchem-fragalysis-2/maxwin/BulkDock/OUTPUTS/openbind_d68ev3c_c2_elabs_1LSYEHW.sdf', '/opt/xchem-fragalysis-2/maxwin/BulkDock/OUTPUTS/openbind_d68ev3c_c2_elabs_1LSYI5W.sdf']

$$$$
P66483
     RDKit          3D

 22 24  0  0  0  0  0  0  0  0999 V2000
   -1.4731   -7.6820   34.9744 C   0  0  0  0  0  0  0  0  0  0  0  0
   -1.0684   -7.4803   33.5459 C   0  0  0  0  0  0  0  0  0  0  0  0
   -0.0261   -6.6163   33.1933 C   0  0  0  0  0  0  0  0  0  0  0  0
    0.6618   -5.7875   34.2322 C   0  0  0  0  0  0  0  0  0  0  0  0
    1.0561   -6.2645   35.2186 O   0  0  0  0  0  0  0  0  0  0  0  0
    0.6221   -4.3174   33.7818 N   0  0  0  0  0  0  0  0  0  0  0  0
    0.9722   -3.1119   34.4887 C   0  0  1  0  0  0  0  0  0  0  0  0
   -0.3150   -2.2732   34.2398 C   0  0  0  0  0  0  0  0  0  0  0  0
   -0.7453   -1.9149   33.1507 O   0  0  0  0  0  0  0  0  0  0  0  0
   -0.9567   -2.0978   35.4498 N   0  0  0  0  0  0  0  0  0  0  0  0
   -0.2000   -2.6310   36.4751 C   0  0  0  0  0  0  0  0  0  0  0  0
   -0.5269   -2.6099   37.8117 C   0  0  0  0  0  0  0  0  0  0  0  0
    0.4299   -3.1019   38.6810 C   0  0  0  0  0  0  0  0  0  0  0  0
    0.1633   -3.1461   39.9913 F   0  0  0  0  0  0  0  0  0  0  0  0
    1.6733   -3.5405   38.2216 C   0  0  0  0  0  0  0  0  0  0  0  0
    1.9567   -3.6010   36.8525 C   0  0  0  0  0  0  0  0  0  0  0  0
    0.9857   -3.1691   35.9781 C   0  0  0  0  0  0  0  0  0  0  0  0
    0.3279   -6.4366   31.8518 C   0  0  0  0  0  0  0  0  0  0  0  0
   -0.3964   -7.0984   30.8846 C   0  0  0  0  0  0  0  0  0  0  0  0
   -1.4224   -7.9139   31.1657 N   0  0  0  0  0  0  0  0  0  0  0  0
   -1.7024   -8.0955   32.4772 C   0  0  0  0  0  0  0  0  0  0  0  0
   -3.0153   -9.1557   32.6561 Cl  0  0  0  0  0  0  0  0  0  0  0  0
  1  2  1  0
  2  3  2  0
  3  4  1  0
  4  5  2  0
  4  6  1  0
  7  6  1  6
  7  8  1  0
  8  9  2  0
  8 10  1  0
 10 11  1  0
 11 12  2  0
 12 13  1  0
 13 14  1  0
 13 15  2  0
 15 16  1  0
 16 17  2  0
  3 18  1  0
 18 19  2  0
 19 20  1  0
 20 21  2  0
 21 22  1  0
 21  2  1  0
 17  7  1  0
 17 11  1  0
M  END
>  <ref_mols>  (648) 
7gov-a

>  <gnina_score>  (648) 
5.283

>  <smina_score_min>  (648) 
-6.0

>  <ref_pdb>  (648) 
7gov-a

>  <inspiration_score>  (648) 
None

>  <inchikey>  (648) 
NHVOXGNVBOPGCY-GFCCVEGCSA-N

>  <tags>  (648) 
BulkDock Fragalysis export,openbind_d68ev3c_c2_elabs_scored,openbind_d68ev3c_c2_elabs_scored_4.5plus,openbind_d68ev3c_c2_elabs,openbind_d68ev3c_c2_elabs_scored_5plus,syndirella_product,openbind_d68ev3c_c2_elabs_scored_top80percent,syndirella_placed

>  <smiles>  (648) 
Cc1c(C(=O)N[C@H]2C(=O)Nc3cc(F)ccc32)ccnc1Cl

>  <subsites>  (648) 
None

>  <rmsd(smina/fragmenstein)>  (648) 
1.005

>  <alias>  (648) 
None

>  <energy_score>  (648) 
-7.934255

>  <HIPPO Pose ID>  (648) 
66483

>  <distance_score>  (648) 
1.595352

>  <HIPPO Compound ID>  (648) 
104858

>  <gnina_score_min>  (648) 
5.031

>  <name>  (648) 
P66483

>  <exports>  (648) 
['/opt/xchem-fragalysis-2/maxwin/BulkDock/OUTPUTS/openbind_d68ev3c_c2_elabs_1LOTQJ3.sdf', '/opt/xchem-fragalysis-2/maxwin/BulkDock/OUTPUTS/openbind_d68ev3c_c2_elabs_1LSYEHW.sdf', '/opt/xchem-fragalysis-2/maxwin/BulkDock/OUTPUTS/openbind_d68ev3c_c2_elabs_1LSYI5W.sdf']

$$$$
P66486
     RDKit          3D

 22 23  0  0  0  0  0  0  0  0999 V2000
    3.7242   -3.0362   33.7399 C   0  0  0  0  0  0  0  0  0  0  0  0
    3.1271   -3.1320   34.7774 C   0  0  0  0  0  0  0  0  0  0  0  0
    2.4162   -3.2417   36.0197 C   0  0  0  0  0  0  0  0  0  0  0  0
    2.8130   -2.4524   37.1035 C   0  0  0  0  0  0  0  0  0  0  0  0
    2.1565   -2.5677   38.3320 C   0  0  0  0  0  0  0  0  0  0  0  0
    2.6652   -1.5829   39.6514 Cl  0  0  0  0  0  0  0  0  0  0  0  0
    1.0959   -3.4539   38.4802 C   0  0  0  0  0  0  0  0  0  0  0  0
    0.4211   -3.5357   39.6379 F   0  0  0  0  0  0  0  0  0  0  0  0
    0.7081   -4.2472   37.4127 C   0  0  0  0  0  0  0  0  0  0  0  0
   -0.3600   -5.0426   37.5728 F   0  0  0  0  0  0  0  0  0  0  0  0
    1.3722   -4.1595   36.1814 C   0  0  0  0  0  0  0  0  0  0  0  0
    0.9968   -4.9587   35.1080 N   0  0  0  0  0  0  0  0  0  0  0  0
    0.2704   -6.3076   35.0767 C   0  0  0  0  0  0  0  0  0  0  0  0
   -0.0637   -7.0061   35.9472 O   0  0  0  0  0  0  0  0  0  0  0  0
   -0.1412   -6.7079   33.7078 C   0  0  0  0  0  0  0  0  0  0  0  0
   -1.1243   -7.6853   33.6571 C   0  0  0  0  0  0  0  0  0  0  0  0
   -1.6233   -8.0324   32.4281 C   0  0  0  0  0  0  0  0  0  0  0  0
   -3.0444   -9.2143   32.4335 Br  0  0  0  0  0  0  0  0  0  0  0  0
   -1.2131   -7.5308   31.2487 N   0  0  0  0  0  0  0  0  0  0  0  0
   -0.2238   -6.6147   31.3230 C   0  0  0  0  0  0  0  0  0  0  0  0
    0.3174   -6.1605   32.5160 C   0  0  0  0  0  0  0  0  0  0  0  0
    1.2485   -5.1966   32.4924 F   0  0  0  0  0  0  0  0  0  0  0  0
  1  2  3  0
  2  3  1  0
  3  4  2  0
  4  5  1  0
  5  6  1  0
  5  7  2  0
  7  8  1  0
  7  9  1  0
  9 10  1  0
  9 11  2  0
 11 12  1  0
 12 13  1  0
 13 14  2  0
 13 15  1  0
 15 16  2  0
 16 17  1  0
 17 18  1  0
 17 19  2  0
 19 20  1  0
 20 21  2  0
 21 22  1  0
 11  3  1  0
 21 15  1  0
M  END
>  <ref_mols>  (649) 
7gov-a

>  <gnina_score>  (649) 
5.402

>  <smina_score_min>  (649) 
-5.043

>  <ref_pdb>  (649) 
7gov-a

>  <inspiration_score>  (649) 
None

>  <inchikey>  (649) 
KBVBQLMOPNYNHG-UHFFFAOYSA-N

>  <tags>  (649) 
BulkDock Fragalysis export,openbind_d68ev3c_c2_elabs_scored,openbind_d68ev3c_c2_elabs_scored_4.5plus,openbind_d68ev3c_c2_elabs,openbind_d68ev3c_c2_elabs_scored_5plus,syndirella_product,openbind_d68ev3c_c2_elabs_scored_top80percent,syndirella_placed

>  <smiles>  (649) 
C#Cc1cc(Cl)c(F)c(F)c1NC(=O)c1cc(Br)ncc1F

>  <subsites>  (649) 
None

>  <rmsd(smina/fragmenstein)>  (649) 
1.207

>  <alias>  (649) 
None

>  <energy_score>  (649) 
-5.289604

>  <HIPPO Pose ID>  (649) 
66486

>  <distance_score>  (649) 
0.809312

>  <HIPPO Compound ID>  (649) 
104868

>  <gnina_score_min>  (649) 
5.279

>  <name>  (649) 
P66486

>  <exports>  (649) 
['/opt/xchem-fragalysis-2/maxwin/BulkDock/OUTPUTS/openbind_d68ev3c_c2_elabs_1LOTQJ3.sdf', '/opt/xchem-fragalysis-2/maxwin/BulkDock/OUTPUTS/openbind_d68ev3c_c2_elabs_1LSYEHW.sdf', '/opt/xchem-fragalysis-2/maxwin/BulkDock/OUTPUTS/openbind_d68ev3c_c2_elabs_1LSYI5W.sdf']

$$$$
P66487
     RDKit          3D

 22 23  0  0  0  0  0  0  0  0999 V2000
    3.9347   -4.7193   34.5178 C   0  0  0  0  0  0  0  0  0  0  0  0
    3.3616   -3.3911   34.9413 C   0  0  0  0  0  0  0  0  0  0  0  0
    3.6185   -2.3461   34.3493 O   0  0  0  0  0  0  0  0  0  0  0  0
    2.5048   -3.3438   36.1451 C   0  0  0  0  0  0  0  0  0  0  0  0
    2.9187   -2.5325   37.2066 C   0  0  0  0  0  0  0  0  0  0  0  0
    2.1999   -2.5464   38.4033 C   0  0  0  0  0  0  0  0  0  0  0  0
    2.7895   -1.4816   39.8509 Br  0  0  0  0  0  0  0  0  0  0  0  0
    1.0677   -3.3473   38.5310 C   0  0  0  0  0  0  0  0  0  0  0  0
    0.3590   -3.3737   39.6692 F   0  0  0  0  0  0  0  0  0  0  0  0
    0.6387   -4.1302   37.4699 C   0  0  0  0  0  0  0  0  0  0  0  0
    1.3537   -4.1248   36.2690 C   0  0  0  0  0  0  0  0  0  0  0  0
    0.8670   -4.8700   35.2074 N   0  0  0  0  0  0  0  0  0  0  0  0
   -0.0753   -6.0793   35.1880 C   0  0  0  0  0  0  0  0  0  0  0  0
   -0.6565   -6.5984   36.0547 O   0  0  0  0  0  0  0  0  0  0  0  0
   -0.3212   -6.5886   33.8107 C   0  0  0  0  0  0  0  0  0  0  0  0
   -1.2440   -7.6182   33.7219 C   0  0  0  0  0  0  0  0  0  0  0  0
   -1.6276   -8.0296   32.4711 C   0  0  0  0  0  0  0  0  0  0  0  0
   -3.0142   -9.2459   32.4117 Br  0  0  0  0  0  0  0  0  0  0  0  0
   -1.1461   -7.5566   31.3084 N   0  0  0  0  0  0  0  0  0  0  0  0
   -0.1965   -6.6058   31.4206 C   0  0  0  0  0  0  0  0  0  0  0  0
    0.2242   -6.0837   32.6340 C   0  0  0  0  0  0  0  0  0  0  0  0
    1.1283   -5.0944   32.6427 F   0  0  0  0  0  0  0  0  0  0  0  0
  1  2  1  0
  2  3  2  0
  2  4  1  0
  4  5  2  0
  5  6  1  0
  6  7  1  0
  6  8  2  0
  8  9  1  0
  8 10  1  0
 10 11  2  0
 11 12  1  0
 12 13  1  0
 13 14  2  0
 13 15  1  0
 15 16  2  0
 16 17  1  0
 17 18  1  0
 17 19  2  0
 19 20  1  0
 20 21  2  0
 21 22  1  0
 11  4  1  0
 21 15  1  0
M  END
>  <ref_mols>  (650) 
7gov-a

>  <gnina_score>  (650) 
5.14

>  <smina_score_min>  (650) 
-4.556

>  <ref_pdb>  (650) 
7gov-a

>  <inspiration_score>  (650) 
None

>  <inchikey>  (650) 
GUDADJZWMGCZMQ-UHFFFAOYSA-N

>  <tags>  (650) 
BulkDock Fragalysis export,openbind_d68ev3c_c2_elabs_scored,openbind_d68ev3c_c2_elabs_scored_4.5plus,openbind_d68ev3c_c2_elabs,openbind_d68ev3c_c2_elabs_scored_5plus,syndirella_product,openbind_d68ev3c_c2_elabs_scored_top80percent,syndirella_placed

>  <smiles>  (650) 
CC(=O)c1cc(Br)c(F)cc1NC(=O)c1cc(Br)ncc1F

>  <subsites>  (650) 
None

>  <rmsd(smina/fragmenstein)>  (650) 
0.675

>  <alias>  (650) 
None

>  <energy_score>  (650) 
-15.427514

>  <HIPPO Pose ID>  (650) 
66487

>  <distance_score>  (650) 
0.908235

>  <HIPPO Compound ID>  (650) 
104871

>  <gnina_score_min>  (650) 
5.145

>  <name>  (650) 
P66487

>  <exports>  (650) 
['/opt/xchem-fragalysis-2/maxwin/BulkDock/OUTPUTS/openbind_d68ev3c_c2_elabs_1LOTQJ3.sdf', '/opt/xchem-fragalysis-2/maxwin/BulkDock/OUTPUTS/openbind_d68ev3c_c2_elabs_1LSYEHW.sdf', '/opt/xchem-fragalysis-2/maxwin/BulkDock/OUTPUTS/openbind_d68ev3c_c2_elabs_1LSYI5W.sdf']

$$$$
P66488
     RDKit          3D

 22 23  0  0  0  0  0  0  0  0999 V2000
    0.3656   -3.3968   39.8448 C   0  0  0  0  0  0  0  0  0  0  0  0
    1.1300   -3.3560   38.5537 C   0  0  0  0  0  0  0  0  0  0  0  0
    0.6740   -4.1281   37.4811 C   0  0  0  0  0  0  0  0  0  0  0  0
    1.3683   -4.1367   36.2687 C   0  0  0  0  0  0  0  0  0  0  0  0
    0.9620   -4.9504   35.2309 N   0  0  0  0  0  0  0  0  0  0  0  0
   -0.1843   -5.9645   35.1501 C   0  0  0  0  0  0  0  0  0  0  0  0
   -0.9252   -6.3349   35.9705 O   0  0  0  0  0  0  0  0  0  0  0  0
   -0.3682   -6.5169   33.7839 C   0  0  0  0  0  0  0  0  0  0  0  0
   -1.2550   -7.5771   33.6985 C   0  0  0  0  0  0  0  0  0  0  0  0
   -1.6050   -8.0179   32.4491 C   0  0  0  0  0  0  0  0  0  0  0  0
   -2.9607   -9.2675   32.3908 Br  0  0  0  0  0  0  0  0  0  0  0  0
   -1.1176   -7.5492   31.2874 N   0  0  0  0  0  0  0  0  0  0  0  0
   -0.1941   -6.5721   31.4009 C   0  0  0  0  0  0  0  0  0  0  0  0
    0.1884   -6.0163   32.6119 C   0  0  0  0  0  0  0  0  0  0  0  0
    1.0531   -4.9925   32.6206 F   0  0  0  0  0  0  0  0  0  0  0  0
    2.4939   -3.3437   36.0878 C   0  0  0  0  0  0  0  0  0  0  0  0
    3.1309   -3.3623   34.9058 F   0  0  0  0  0  0  0  0  0  0  0  0
    2.9722   -2.5620   37.1245 C   0  0  0  0  0  0  0  0  0  0  0  0
    2.2917   -2.5855   38.3514 C   0  0  0  0  0  0  0  0  0  0  0  0
    2.8545   -1.7936   39.4348 N   0  0  0  0  0  0  0  0  0  0  0  0
    4.0518   -1.9714   39.7025 O   0  0  0  0  0  0  0  0  0  0  0  0
    2.1067   -0.9861   40.0021 O   0  0  0  0  0  0  0  0  0  0  0  0
  1  2  1  0
  2  3  2  0
  3  4  1  0
  4  5  1  0
  5  6  1  0
  6  7  2  0
  6  8  1  0
  8  9  2  0
  9 10  1  0
 10 11  1  0
 10 12  2  0
 12 13  1  0
 13 14  2  0
 14 15  1  0
  4 16  2  0
 16 17  1  0
 16 18  1  0
 18 19  2  0
 19 20  1  0
 20 21  2  0
 20 22  1  0
 19  2  1  0
 14  8  1  0
M  CHG  2  20   1  22  -1
M  END
>  <ref_mols>  (651) 
7gov-a

>  <gnina_score>  (651) 
5.057

>  <smina_score_min>  (651) 
-4.498

>  <ref_pdb>  (651) 
7gov-a

>  <inspiration_score>  (651) 
None

>  <inchikey>  (651) 
BWUBWKDAKDOKKX-UHFFFAOYSA-N

>  <tags>  (651) 
BulkDock Fragalysis export,openbind_d68ev3c_c2_elabs_scored,openbind_d68ev3c_c2_elabs_scored_4.5plus,openbind_d68ev3c_c2_elabs,openbind_d68ev3c_c2_elabs_scored_5plus,syndirella_product,openbind_d68ev3c_c2_elabs_scored_top80percent,syndirella_placed

>  <smiles>  (651) 
Cc1cc(NC(=O)c2cc(Br)ncc2F)c(F)cc1[N+](=O)[O-]

>  <subsites>  (651) 
None

>  <rmsd(smina/fragmenstein)>  (651) 
0.577

>  <alias>  (651) 
None

>  <energy_score>  (651) 
-29.268019

>  <HIPPO Pose ID>  (651) 
66488

>  <distance_score>  (651) 
0.965573

>  <HIPPO Compound ID>  (651) 
104877

>  <gnina_score_min>  (651) 
5.024

>  <name>  (651) 
P66488

>  <exports>  (651) 
['/opt/xchem-fragalysis-2/maxwin/BulkDock/OUTPUTS/openbind_d68ev3c_c2_elabs_1LOTQJ3.sdf', '/opt/xchem-fragalysis-2/maxwin/BulkDock/OUTPUTS/openbind_d68ev3c_c2_elabs_1LSYEHW.sdf', '/opt/xchem-fragalysis-2/maxwin/BulkDock/OUTPUTS/openbind_d68ev3c_c2_elabs_1LSYI5W.sdf']

$$$$
P66489
     RDKit          3D

 22 23  0  0  0  0  0  0  0  0999 V2000
    2.9700   -3.9711   34.5625 C   0  0  0  0  0  0  0  0  0  0  0  0
    2.1973   -3.8461   35.8503 C   0  0  0  0  0  0  0  0  0  0  0  0
    1.0353   -4.6137   36.0833 C   0  0  0  0  0  0  0  0  0  0  0  0
    0.5852   -5.5302   35.1290 N   0  0  0  0  0  0  0  0  0  0  0  0
   -0.6889   -6.4091   35.1018 C   0  0  0  0  0  0  0  0  0  0  0  0
   -1.5202   -6.5609   35.9069 O   0  0  0  0  0  0  0  0  0  0  0  0
   -0.8941   -7.0725   33.7832 C   0  0  0  0  0  0  0  0  0  0  0  0
   -0.4523   -6.5035   32.5861 C   0  0  0  0  0  0  0  0  0  0  0  0
   -0.8026   -7.1215   31.3970 C   0  0  0  0  0  0  0  0  0  0  0  0
   -0.2503   -6.3148   29.7799 Br  0  0  0  0  0  0  0  0  0  0  0  0
   -1.5806   -8.2259   31.3220 N   0  0  0  0  0  0  0  0  0  0  0  0
   -1.9877   -8.7542   32.4983 C   0  0  0  0  0  0  0  0  0  0  0  0
   -1.6772   -8.2209   33.7312 C   0  0  0  0  0  0  0  0  0  0  0  0
   -2.1743   -8.8006   34.8281 F   0  0  0  0  0  0  0  0  0  0  0  0
    0.3077   -4.4572   37.2708 C   0  0  0  0  0  0  0  0  0  0  0  0
    0.7500   -3.5859   38.2562 C   0  0  0  0  0  0  0  0  0  0  0  0
    0.0566   -3.4722   39.3962 F   0  0  0  0  0  0  0  0  0  0  0  0
    1.9026   -2.8439   38.0845 C   0  0  0  0  0  0  0  0  0  0  0  0
    2.6205   -2.9840   36.8899 C   0  0  0  0  0  0  0  0  0  0  0  0
    3.8293   -2.1745   36.7688 N   0  0  0  0  0  0  0  0  0  0  0  0
    4.8792   -2.7302   36.4206 O   0  0  0  0  0  0  0  0  0  0  0  0
    3.7211   -0.9687   37.0370 O   0  0  0  0  0  0  0  0  0  0  0  0
  1  2  1  0
  2  3  2  0
  3  4  1  0
  4  5  1  0
  5  6  2  0
  5  7  1  0
  7  8  2  0
  8  9  1  0
  9 10  1  0
  9 11  2  0
 11 12  1  0
 12 13  2  0
 13 14  1  0
  3 15  1  0
 15 16  2  0
 16 17  1  0
 16 18  1  0
 18 19  2  0
 19 20  1  0
 20 21  2  0
 20 22  1  0
 19  2  1  0
 13  7  1  0
M  CHG  2  20   1  22  -1
M  END
>  <ref_mols>  (652) 
7gov-a

>  <gnina_score>  (652) 
5.141

>  <smina_score_min>  (652) 
-6.132

>  <ref_pdb>  (652) 
7gov-a

>  <inspiration_score>  (652) 
None

>  <inchikey>  (652) 
YMCGOLGTTIDEHP-UHFFFAOYSA-N

>  <tags>  (652) 
BulkDock Fragalysis export,openbind_d68ev3c_c2_elabs_scored,openbind_d68ev3c_c2_elabs_scored_4.5plus,openbind_d68ev3c_c2_elabs,openbind_d68ev3c_c2_elabs_scored_5plus,syndirella_product,openbind_d68ev3c_c2_elabs_scored_top80percent,syndirella_placed

>  <smiles>  (652) 
Cc1c(NC(=O)c2cc(Br)ncc2F)cc(F)cc1[N+](=O)[O-]

>  <subsites>  (652) 
None

>  <rmsd(smina/fragmenstein)>  (652) 
1.179

>  <alias>  (652) 
None

>  <energy_score>  (652) 
-21.43105

>  <HIPPO Pose ID>  (652) 
66489

>  <distance_score>  (652) 
0.765555

>  <HIPPO Compound ID>  (652) 
104878

>  <gnina_score_min>  (652) 
5.09

>  <name>  (652) 
P66489

>  <exports>  (652) 
['/opt/xchem-fragalysis-2/maxwin/BulkDock/OUTPUTS/openbind_d68ev3c_c2_elabs_1LOTQJ3.sdf', '/opt/xchem-fragalysis-2/maxwin/BulkDock/OUTPUTS/openbind_d68ev3c_c2_elabs_1LSYEHW.sdf', '/opt/xchem-fragalysis-2/maxwin/BulkDock/OUTPUTS/openbind_d68ev3c_c2_elabs_1LSYI5W.sdf']

$$$$
P66490
     RDKit          3D

 22 23  0  0  0  0  0  0  0  0999 V2000
    4.3120   -4.4011   34.7209 C   0  0  0  0  0  0  0  0  0  0  0  0
    3.2679   -3.3186   34.8115 C   0  0  0  0  0  0  0  0  0  0  0  0
    3.2929   -2.2888   34.1420 O   0  0  0  0  0  0  0  0  0  0  0  0
    2.2976   -3.4157   35.9109 C   0  0  0  0  0  0  0  0  0  0  0  0
    2.7014   -2.7722   37.0988 C   0  0  0  0  0  0  0  0  0  0  0  0
    1.8984   -2.8023   38.2383 C   0  0  0  0  0  0  0  0  0  0  0  0
    0.6849   -3.4663   38.1864 C   0  0  0  0  0  0  0  0  0  0  0  0
   -0.0800   -3.5305   39.2847 F   0  0  0  0  0  0  0  0  0  0  0  0
    0.2673   -4.0700   37.0057 C   0  0  0  0  0  0  0  0  0  0  0  0
   -0.9107   -4.7208   36.9859 F   0  0  0  0  0  0  0  0  0  0  0  0
    1.0585   -4.0534   35.8417 C   0  0  0  0  0  0  0  0  0  0  0  0
    0.4913   -4.7319   34.7558 N   0  0  0  0  0  0  0  0  0  0  0  0
    1.1130   -5.1650   33.4027 C   0  0  0  0  0  0  0  0  0  0  0  0
    2.1692   -4.9553   32.9549 O   0  0  0  0  0  0  0  0  0  0  0  0
    0.1941   -6.0629   32.6586 C   0  0  0  0  0  0  0  0  0  0  0  0
   -0.5559   -7.0105   33.3533 C   0  0  0  0  0  0  0  0  0  0  0  0
   -1.3714   -7.8579   32.6329 C   0  0  0  0  0  0  0  0  0  0  0  0
   -2.4064   -9.0385   33.6493 Br  0  0  0  0  0  0  0  0  0  0  0  0
   -1.4637   -7.8690   31.2867 N   0  0  0  0  0  0  0  0  0  0  0  0
   -0.6545   -6.9899   30.6415 C   0  0  0  0  0  0  0  0  0  0  0  0
    0.1651   -6.0693   31.2745 C   0  0  0  0  0  0  0  0  0  0  0  0
    0.8817   -5.2096   30.5391 F   0  0  0  0  0  0  0  0  0  0  0  0
  1  2  1  0
  2  3  2  0
  2  4  1  0
  4  5  2  0
  5  6  1  0
  6  7  2  0
  7  8  1  0
  7  9  1  0
  9 10  1  0
  9 11  2  0
 11 12  1  0
 12 13  1  0
 13 14  2  0
 13 15  1  0
 15 16  2  0
 16 17  1  0
 17 18  1  0
 17 19  2  0
 19 20  1  0
 20 21  2  0
 21 22  1  0
 11  4  1  0
 21 15  1  0
M  END
>  <ref_mols>  (653) 
7gov-a

>  <gnina_score>  (653) 
5.108

>  <smina_score_min>  (653) 
-5.095

>  <ref_pdb>  (653) 
7gov-a

>  <inspiration_score>  (653) 
None

>  <inchikey>  (653) 
BNYYMYAFCCYETP-UHFFFAOYSA-N

>  <tags>  (653) 
BulkDock Fragalysis export,openbind_d68ev3c_c2_elabs_scored,openbind_d68ev3c_c2_elabs_scored_4.5plus,openbind_d68ev3c_c2_elabs,openbind_d68ev3c_c2_elabs_scored_5plus,syndirella_product,openbind_d68ev3c_c2_elabs_scored_top80percent,syndirella_placed

>  <smiles>  (653) 
CC(=O)c1ccc(F)c(F)c1NC(=O)c1cc(Br)ncc1F

>  <subsites>  (653) 
None

>  <rmsd(smina/fragmenstein)>  (653) 
1.775

>  <alias>  (653) 
None

>  <energy_score>  (653) 
-9.405764

>  <HIPPO Pose ID>  (653) 
66490

>  <distance_score>  (653) 
1.28382

>  <HIPPO Compound ID>  (653) 
104879

>  <gnina_score_min>  (653) 
5.182

>  <name>  (653) 
P66490

>  <exports>  (653) 
['/opt/xchem-fragalysis-2/maxwin/BulkDock/OUTPUTS/openbind_d68ev3c_c2_elabs_1LOTQJ3.sdf', '/opt/xchem-fragalysis-2/maxwin/BulkDock/OUTPUTS/openbind_d68ev3c_c2_elabs_1LSYEHW.sdf', '/opt/xchem-fragalysis-2/maxwin/BulkDock/OUTPUTS/openbind_d68ev3c_c2_elabs_1LSYI5W.sdf']

$$$$
P66491
     RDKit          3D

 22 23  0  0  0  0  0  0  0  0999 V2000
    4.3852   -3.5786   34.6725 C   0  0  0  0  0  0  0  0  0  0  0  0
    2.9321   -3.9763   34.6863 C   0  0  0  0  0  0  0  0  0  0  0  0
    2.3793   -4.3963   33.6687 O   0  0  0  0  0  0  0  0  0  0  0  0
    2.1522   -3.8367   35.9559 C   0  0  0  0  0  0  0  0  0  0  0  0
    2.5841   -2.9488   36.9501 C   0  0  0  0  0  0  0  0  0  0  0  0
    1.8632   -2.8395   38.1348 C   0  0  0  0  0  0  0  0  0  0  0  0
    2.2942   -1.9977   39.0848 F   0  0  0  0  0  0  0  0  0  0  0  0
    0.7077   -3.5826   38.3329 C   0  0  0  0  0  0  0  0  0  0  0  0
    0.0234   -3.4699   39.4793 F   0  0  0  0  0  0  0  0  0  0  0  0
    0.2483   -4.4468   37.3471 C   0  0  0  0  0  0  0  0  0  0  0  0
    0.9724   -4.5882   36.1588 C   0  0  0  0  0  0  0  0  0  0  0  0
    0.5294   -5.4665   35.1714 N   0  0  0  0  0  0  0  0  0  0  0  0
   -0.7059   -6.3936   35.1336 C   0  0  0  0  0  0  0  0  0  0  0  0
   -1.5031   -6.6246   35.9535 O   0  0  0  0  0  0  0  0  0  0  0  0
   -0.9030   -7.0324   33.7974 C   0  0  0  0  0  0  0  0  0  0  0  0
   -0.4520   -6.4543   32.6083 C   0  0  0  0  0  0  0  0  0  0  0  0
   -0.7851   -7.0660   31.4102 C   0  0  0  0  0  0  0  0  0  0  0  0
   -0.2143   -6.2421   29.8075 Br  0  0  0  0  0  0  0  0  0  0  0  0
   -1.5582   -8.1743   31.3157 N   0  0  0  0  0  0  0  0  0  0  0  0
   -1.9689   -8.7158   32.4840 C   0  0  0  0  0  0  0  0  0  0  0  0
   -1.6740   -8.1896   33.7245 C   0  0  0  0  0  0  0  0  0  0  0  0
   -2.1749   -8.7903   34.8089 F   0  0  0  0  0  0  0  0  0  0  0  0
  1  2  1  0
  2  3  2  0
  2  4  1  0
  4  5  2  0
  5  6  1  0
  6  7  1  0
  6  8  2  0
  8  9  1  0
  8 10  1  0
 10 11  2  0
 11 12  1  0
 12 13  1  0
 13 14  2  0
 13 15  1  0
 15 16  2  0
 16 17  1  0
 17 18  1  0
 17 19  2  0
 19 20  1  0
 20 21  2  0
 21 22  1  0
 11  4  1  0
 21 15  1  0
M  END
>  <ref_mols>  (654) 
7gov-a

>  <gnina_score>  (654) 
5.169

>  <smina_score_min>  (654) 
-5.899

>  <ref_pdb>  (654) 
7gov-a

>  <inspiration_score>  (654) 
None

>  <inchikey>  (654) 
XUMYFWXKSQJPJP-UHFFFAOYSA-N

>  <tags>  (654) 
BulkDock Fragalysis export,openbind_d68ev3c_c2_elabs_scored,openbind_d68ev3c_c2_elabs_scored_4.5plus,openbind_d68ev3c_c2_elabs,openbind_d68ev3c_c2_elabs_scored_5plus,syndirella_product,openbind_d68ev3c_c2_elabs_scored_top80percent,syndirella_placed

>  <smiles>  (654) 
CC(=O)c1cc(F)c(F)cc1NC(=O)c1cc(Br)ncc1F

>  <subsites>  (654) 
None

>  <rmsd(smina/fragmenstein)>  (654) 
1.197

>  <alias>  (654) 
None

>  <energy_score>  (654) 
-21.719014

>  <HIPPO Pose ID>  (654) 
66491

>  <distance_score>  (654) 
0.767258

>  <HIPPO Compound ID>  (654) 
104881

>  <gnina_score_min>  (654) 
5.122

>  <name>  (654) 
P66491

>  <exports>  (654) 
['/opt/xchem-fragalysis-2/maxwin/BulkDock/OUTPUTS/openbind_d68ev3c_c2_elabs_1LOTQJ3.sdf', '/opt/xchem-fragalysis-2/maxwin/BulkDock/OUTPUTS/openbind_d68ev3c_c2_elabs_1LSYEHW.sdf', '/opt/xchem-fragalysis-2/maxwin/BulkDock/OUTPUTS/openbind_d68ev3c_c2_elabs_1LSYI5W.sdf']

$$$$
P66495
     RDKit          3D

 22 23  0  0  0  0  0  0  0  0999 V2000
   -1.5161   -6.6071   35.9201 O   0  0  0  0  0  0  0  0  0  0  0  0
   -0.7048   -6.4144   35.1036 C   0  0  0  0  0  0  0  0  0  0  0  0
    0.5483   -5.5071   35.1299 N   0  0  0  0  0  0  0  0  0  0  0  0
    0.9958   -4.6062   36.0991 C   0  0  0  0  0  0  0  0  0  0  0  0
    0.2652   -4.4474   37.2823 C   0  0  0  0  0  0  0  0  0  0  0  0
    0.7033   -3.5612   38.2581 C   0  0  0  0  0  0  0  0  0  0  0  0
    0.0123   -3.4421   39.3994 F   0  0  0  0  0  0  0  0  0  0  0  0
    1.8481   -2.8027   38.0715 C   0  0  0  0  0  0  0  0  0  0  0  0
    2.5715   -2.9390   36.8876 C   0  0  0  0  0  0  0  0  0  0  0  0
    2.1575   -3.8412   35.8856 C   0  0  0  0  0  0  0  0  0  0  0  0
    2.9976   -3.9706   34.6413 C   0  0  0  0  0  0  0  0  0  0  0  0
    3.6139   -2.8063   34.2858 F   0  0  0  0  0  0  0  0  0  0  0  0
    3.9856   -4.8981   34.7467 F   0  0  0  0  0  0  0  0  0  0  0  0
    2.2706   -4.3385   33.5413 F   0  0  0  0  0  0  0  0  0  0  0  0
   -0.9080   -7.0668   33.7775 C   0  0  0  0  0  0  0  0  0  0  0  0
   -0.4643   -6.4943   32.5824 C   0  0  0  0  0  0  0  0  0  0  0  0
   -0.8051   -7.1132   31.3908 C   0  0  0  0  0  0  0  0  0  0  0  0
   -0.2466   -6.3043   29.7768 Br  0  0  0  0  0  0  0  0  0  0  0  0
   -1.5781   -8.2210   31.3106 N   0  0  0  0  0  0  0  0  0  0  0  0
   -1.9858   -8.7538   32.4842 C   0  0  0  0  0  0  0  0  0  0  0  0
   -1.6829   -8.2211   33.7191 C   0  0  0  0  0  0  0  0  0  0  0  0
   -2.1796   -8.8099   34.8115 F   0  0  0  0  0  0  0  0  0  0  0  0
  1  2  2  0
  2  3  1  0
  3  4  1  0
  4  5  2  0
  5  6  1  0
  6  7  1  0
  6  8  2  0
  8  9  1  0
  9 10  2  0
 10 11  1  0
 11 12  1  0
 11 13  1  0
 11 14  1  0
  2 15  1  0
 15 16  2  0
 16 17  1  0
 17 18  1  0
 17 19  2  0
 19 20  1  0
 20 21  2  0
 21 22  1  0
 10  4  1  0
 21 15  1  0
M  END
>  <ref_mols>  (655) 
7gov-a

>  <gnina_score>  (655) 
5.14

>  <smina_score_min>  (655) 
-6.116

>  <ref_pdb>  (655) 
7gov-a

>  <inspiration_score>  (655) 
None

>  <inchikey>  (655) 
COEITGFBXCQATM-UHFFFAOYSA-N

>  <tags>  (655) 
BulkDock Fragalysis export,openbind_d68ev3c_c2_elabs_scored,openbind_d68ev3c_c2_elabs_scored_4.5plus,openbind_d68ev3c_c2_elabs,openbind_d68ev3c_c2_elabs_scored_5plus,syndirella_product,openbind_d68ev3c_c2_elabs_scored_top80percent,syndirella_placed

>  <smiles>  (655) 
O=C(Nc1cc(F)ccc1C(F)(F)F)c1cc(Br)ncc1F

>  <subsites>  (655) 
None

>  <rmsd(smina/fragmenstein)>  (655) 
1.02

>  <alias>  (655) 
None

>  <energy_score>  (655) 
-10.083798

>  <HIPPO Pose ID>  (655) 
66495

>  <distance_score>  (655) 
0.76531

>  <HIPPO Compound ID>  (655) 
104902

>  <gnina_score_min>  (655) 
5.108

>  <name>  (655) 
P66495

>  <exports>  (655) 
['/opt/xchem-fragalysis-2/maxwin/BulkDock/OUTPUTS/openbind_d68ev3c_c2_elabs_1LOTQJ3.sdf', '/opt/xchem-fragalysis-2/maxwin/BulkDock/OUTPUTS/openbind_d68ev3c_c2_elabs_1LSYEHW.sdf', '/opt/xchem-fragalysis-2/maxwin/BulkDock/OUTPUTS/openbind_d68ev3c_c2_elabs_1LSYI5W.sdf']

$$$$
P66524
     RDKit          3D

 22 23  0  0  0  0  0  0  0  0999 V2000
    2.9388   -2.9404   33.4266 C   0  0  0  0  0  0  0  0  0  0  0  0
    2.4125   -3.1625   34.4830 C   0  0  0  0  0  0  0  0  0  0  0  0
    1.8048   -3.3933   35.7617 C   0  0  0  0  0  0  0  0  0  0  0  0
    2.2717   -2.6603   36.8605 C   0  0  0  0  0  0  0  0  0  0  0  0
    1.7491   -2.8950   38.1336 C   0  0  0  0  0  0  0  0  0  0  0  0
    2.3224   -1.9635   39.4648 Cl  0  0  0  0  0  0  0  0  0  0  0  0
    0.7666   -3.8618   38.3168 C   0  0  0  0  0  0  0  0  0  0  0  0
    0.2185   -4.0554   39.5266 F   0  0  0  0  0  0  0  0  0  0  0  0
    0.3258   -4.6161   37.2361 C   0  0  0  0  0  0  0  0  0  0  0  0
   -0.6427   -5.5264   37.4295 F   0  0  0  0  0  0  0  0  0  0  0  0
    0.8292   -4.3816   35.9513 C   0  0  0  0  0  0  0  0  0  0  0  0
    0.3756   -5.1440   34.8779 N   0  0  0  0  0  0  0  0  0  0  0  0
    0.1459   -6.6593   34.7555 C   0  0  0  0  0  0  0  0  0  0  0  0
    0.3719   -7.5204   35.5067 O   0  0  0  0  0  0  0  0  0  0  0  0
   -0.5258   -7.0381   33.4704 C   0  0  0  0  0  0  0  0  0  0  0  0
   -1.5933   -7.9573   33.5293 C   0  0  0  0  0  0  0  0  0  0  0  0
   -2.1979   -8.5361   34.7708 C   0  0  0  0  0  0  0  0  0  0  0  0
   -2.1182   -8.4062   32.3292 C   0  0  0  0  0  0  0  0  0  0  0  0
   -1.7060   -7.9995   31.1154 N   0  0  0  0  0  0  0  0  0  0  0  0
   -0.6825   -7.1216   31.0900 C   0  0  0  0  0  0  0  0  0  0  0  0
   -0.0505   -6.6058   32.2173 C   0  0  0  0  0  0  0  0  0  0  0  0
    1.0831   -5.6504   31.9981 C   0  0  0  0  0  0  0  0  0  0  0  0
  1  2  3  0
  2  3  1  0
  3  4  2  0
  4  5  1  0
  5  6  1  0
  5  7  2  0
  7  8  1  0
  7  9  1  0
  9 10  1  0
  9 11  2  0
 11 12  1  0
 12 13  1  0
 13 14  2  0
 13 15  1  0
 15 16  2  0
 16 17  1  0
 16 18  1  0
 18 19  2  0
 19 20  1  0
 20 21  2  0
 21 22  1  0
 11  3  1  0
 21 15  1  0
M  END
>  <ref_mols>  (656) 
7gov-a

>  <gnina_score>  (656) 
5.259

>  <smina_score_min>  (656) 
-5.381

>  <ref_pdb>  (656) 
7gov-a

>  <inspiration_score>  (656) 
None

>  <inchikey>  (656) 
QHZNFVWMOHVLKG-UHFFFAOYSA-N

>  <tags>  (656) 
BulkDock Fragalysis export,openbind_d68ev3c_c2_elabs_scored,openbind_d68ev3c_c2_elabs_scored_4.5plus,openbind_d68ev3c_c2_elabs,openbind_d68ev3c_c2_elabs_scored_5plus,syndirella_product,openbind_d68ev3c_c2_elabs_scored_top80percent,syndirella_placed

>  <smiles>  (656) 
C#Cc1cc(Cl)c(F)c(F)c1NC(=O)c1c(C)cncc1C

>  <subsites>  (656) 
None

>  <rmsd(smina/fragmenstein)>  (656) 
0.859

>  <alias>  (656) 
None

>  <energy_score>  (656) 
-13.225837

>  <HIPPO Pose ID>  (656) 
66524

>  <distance_score>  (656) 
0.461241

>  <HIPPO Compound ID>  (656) 
104981

>  <gnina_score_min>  (656) 
5.184

>  <name>  (656) 
P66524

>  <exports>  (656) 
['/opt/xchem-fragalysis-2/maxwin/BulkDock/OUTPUTS/openbind_d68ev3c_c2_elabs_1LOTQJ3.sdf', '/opt/xchem-fragalysis-2/maxwin/BulkDock/OUTPUTS/openbind_d68ev3c_c2_elabs_1LSYEHW.sdf', '/opt/xchem-fragalysis-2/maxwin/BulkDock/OUTPUTS/openbind_d68ev3c_c2_elabs_1LSYI5W.sdf']

$$$$
P66529
     RDKit          3D

 22 23  0  0  0  0  0  0  0  0999 V2000
    3.2568   -3.2220   33.6576 C   0  0  0  0  0  0  0  0  0  0  0  0
    2.7419   -3.2984   34.7399 C   0  0  0  0  0  0  0  0  0  0  0  0
    2.1260   -3.3879   36.0352 C   0  0  0  0  0  0  0  0  0  0  0  0
    2.6231   -2.5996   37.0773 C   0  0  0  0  0  0  0  0  0  0  0  0
    2.0649   -2.6990   38.3539 C   0  0  0  0  0  0  0  0  0  0  0  0
    2.6877   -1.7132   39.6226 Cl  0  0  0  0  0  0  0  0  0  0  0  0
    1.0098   -3.5736   38.5920 C   0  0  0  0  0  0  0  0  0  0  0  0
    0.4269   -3.6362   39.7990 F   0  0  0  0  0  0  0  0  0  0  0  0
    0.5275   -4.3730   37.5677 C   0  0  0  0  0  0  0  0  0  0  0  0
   -0.5281   -5.1610   37.8195 F   0  0  0  0  0  0  0  0  0  0  0  0
    1.0818   -4.2911   36.2865 C   0  0  0  0  0  0  0  0  0  0  0  0
    0.5915   -5.0633   35.2404 N   0  0  0  0  0  0  0  0  0  0  0  0
   -0.0717   -6.4524   35.2481 C   0  0  0  0  0  0  0  0  0  0  0  0
   -0.3821   -7.1367   36.1394 O   0  0  0  0  0  0  0  0  0  0  0  0
   -0.4452   -6.9119   33.8767 C   0  0  0  0  0  0  0  0  0  0  0  0
   -1.4459   -7.8729   33.8126 C   0  0  0  0  0  0  0  0  0  0  0  0
   -1.9640   -8.2048   32.5771 C   0  0  0  0  0  0  0  0  0  0  0  0
   -3.1132   -9.1398   32.5105 C   0  0  0  0  0  0  0  0  0  0  0  0
   -1.5336   -7.6713   31.4136 N   0  0  0  0  0  0  0  0  0  0  0  0
   -0.5184   -6.7852   31.5025 C   0  0  0  0  0  0  0  0  0  0  0  0
    0.0082   -5.8634   29.9368 Br  0  0  0  0  0  0  0  0  0  0  0  0
    0.0692   -6.3954   32.6927 C   0  0  0  0  0  0  0  0  0  0  0  0
  1  2  3  0
  2  3  1  0
  3  4  2  0
  4  5  1  0
  5  6  1  0
  5  7  2  0
  7  8  1  0
  7  9  1  0
  9 10  1  0
  9 11  2  0
 11 12  1  0
 12 13  1  0
 13 14  2  0
 13 15  1  0
 15 16  2  0
 16 17  1  0
 17 18  1  0
 17 19  2  0
 19 20  1  0
 20 21  1  0
 20 22  2  0
 11  3  1  0
 22 15  1  0
M  END
>  <ref_mols>  (657) 
7gov-a

>  <gnina_score>  (657) 
5.244

>  <smina_score_min>  (657) 
-5.087

>  <ref_pdb>  (657) 
7gov-a

>  <inspiration_score>  (657) 
None

>  <inchikey>  (657) 
JDUZHHVIWCTDQI-UHFFFAOYSA-N

>  <tags>  (657) 
BulkDock Fragalysis export,openbind_d68ev3c_c2_elabs_scored,openbind_d68ev3c_c2_elabs_scored_4.5plus,openbind_d68ev3c_c2_elabs,openbind_d68ev3c_c2_elabs_scored_5plus,syndirella_product,openbind_d68ev3c_c2_elabs_scored_top80percent,syndirella_placed

>  <smiles>  (657) 
C#Cc1cc(Cl)c(F)c(F)c1NC(=O)c1cc(C)nc(Br)c1

>  <subsites>  (657) 
None

>  <rmsd(smina/fragmenstein)>  (657) 
0.885

>  <alias>  (657) 
None

>  <energy_score>  (657) 
-2.245755

>  <HIPPO Pose ID>  (657) 
66529

>  <distance_score>  (657) 
0.696416

>  <HIPPO Compound ID>  (657) 
104993

>  <gnina_score_min>  (657) 
5.08

>  <name>  (657) 
P66529

>  <exports>  (657) 
['/opt/xchem-fragalysis-2/maxwin/BulkDock/OUTPUTS/openbind_d68ev3c_c2_elabs_1LOTQJ3.sdf', '/opt/xchem-fragalysis-2/maxwin/BulkDock/OUTPUTS/openbind_d68ev3c_c2_elabs_1LSYEHW.sdf', '/opt/xchem-fragalysis-2/maxwin/BulkDock/OUTPUTS/openbind_d68ev3c_c2_elabs_1LSYI5W.sdf']

$$$$
P66531
     RDKit          3D

 22 23  0  0  0  0  0  0  0  0999 V2000
    3.0704   -4.1269   34.6951 C   0  0  0  0  0  0  0  0  0  0  0  0
    2.2257   -3.9239   35.9270 C   0  0  0  0  0  0  0  0  0  0  0  0
    0.9947   -4.5941   36.0835 C   0  0  0  0  0  0  0  0  0  0  0  0
    0.4933   -5.4104   35.0653 N   0  0  0  0  0  0  0  0  0  0  0  0
   -0.7401   -6.3438   35.0416 C   0  0  0  0  0  0  0  0  0  0  0  0
   -1.5724   -6.5178   35.8412 O   0  0  0  0  0  0  0  0  0  0  0  0
   -0.9076   -7.0412   33.7332 C   0  0  0  0  0  0  0  0  0  0  0  0
   -0.4620   -6.4982   32.5245 C   0  0  0  0  0  0  0  0  0  0  0  0
   -0.8006   -7.1595   31.3580 C   0  0  0  0  0  0  0  0  0  0  0  0
   -0.3580   -6.5245   29.8323 Cl  0  0  0  0  0  0  0  0  0  0  0  0
   -1.5643   -8.2721   31.2990 N   0  0  0  0  0  0  0  0  0  0  0  0
   -1.9676   -8.7770   32.4854 C   0  0  0  0  0  0  0  0  0  0  0  0
   -1.6694   -8.2076   33.7053 C   0  0  0  0  0  0  0  0  0  0  0  0
   -2.1588   -8.7722   34.8137 F   0  0  0  0  0  0  0  0  0  0  0  0
    0.2400   -4.4256   37.2525 C   0  0  0  0  0  0  0  0  0  0  0  0
    0.6965   -3.6010   38.2722 C   0  0  0  0  0  0  0  0  0  0  0  0
   -0.0279   -3.4719   39.3909 F   0  0  0  0  0  0  0  0  0  0  0  0
    1.8803   -2.9007   38.1457 C   0  0  0  0  0  0  0  0  0  0  0  0
    2.6274   -3.0573   36.9726 C   0  0  0  0  0  0  0  0  0  0  0  0
    3.8490   -2.2664   36.8752 N   0  0  0  0  0  0  0  0  0  0  0  0
    4.6257   -2.2861   37.8420 O   0  0  0  0  0  0  0  0  0  0  0  0
    4.0035   -1.5854   35.8511 O   0  0  0  0  0  0  0  0  0  0  0  0
  1  2  1  0
  2  3  2  0
  3  4  1  0
  4  5  1  0
  5  6  2  0
  5  7  1  0
  7  8  2  0
  8  9  1  0
  9 10  1  0
  9 11  2  0
 11 12  1  0
 12 13  2  0
 13 14  1  0
  3 15  1  0
 15 16  2  0
 16 17  1  0
 16 18  1  0
 18 19  2  0
 19 20  1  0
 20 21  2  0
 20 22  1  0
 19  2  1  0
 13  7  1  0
M  CHG  2  20   1  22  -1
M  END
>  <ref_mols>  (658) 
7gov-a

>  <gnina_score>  (658) 
5.157

>  <smina_score_min>  (658) 
-6.123

>  <ref_pdb>  (658) 
7gov-a

>  <inspiration_score>  (658) 
None

>  <inchikey>  (658) 
COCFAJZGPLFIJZ-UHFFFAOYSA-N

>  <tags>  (658) 
BulkDock Fragalysis export,openbind_d68ev3c_c2_elabs_scored,openbind_d68ev3c_c2_elabs_scored_4.5plus,openbind_d68ev3c_c2_elabs,openbind_d68ev3c_c2_elabs_scored_5plus,syndirella_product,openbind_d68ev3c_c2_elabs_scored_top80percent,syndirella_placed

>  <smiles>  (658) 
Cc1c(NC(=O)c2cc(Cl)ncc2F)cc(F)cc1[N+](=O)[O-]

>  <subsites>  (658) 
None

>  <rmsd(smina/fragmenstein)>  (658) 
1.208

>  <alias>  (658) 
None

>  <energy_score>  (658) 
-21.840891

>  <HIPPO Pose ID>  (658) 
66531

>  <distance_score>  (658) 
0.770359

>  <HIPPO Compound ID>  (658) 
105000

>  <gnina_score_min>  (658) 
5.051

>  <name>  (658) 
P66531

>  <exports>  (658) 
['/opt/xchem-fragalysis-2/maxwin/BulkDock/OUTPUTS/openbind_d68ev3c_c2_elabs_1LOTQJ3.sdf', '/opt/xchem-fragalysis-2/maxwin/BulkDock/OUTPUTS/openbind_d68ev3c_c2_elabs_1LSYEHW.sdf', '/opt/xchem-fragalysis-2/maxwin/BulkDock/OUTPUTS/openbind_d68ev3c_c2_elabs_1LSYI5W.sdf']

$$$$
P66532
     RDKit          3D

 22 23  0  0  0  0  0  0  0  0999 V2000
    4.3008   -3.5921   34.6126 C   0  0  0  0  0  0  0  0  0  0  0  0
    2.8406   -3.9618   34.6427 C   0  0  0  0  0  0  0  0  0  0  0  0
    2.2603   -4.3479   33.6272 O   0  0  0  0  0  0  0  0  0  0  0  0
    2.0866   -3.8410   35.9296 C   0  0  0  0  0  0  0  0  0  0  0  0
    2.5126   -2.9069   36.8904 C   0  0  0  0  0  0  0  0  0  0  0  0
    1.8352   -2.7884   38.1028 C   0  0  0  0  0  0  0  0  0  0  0  0
    0.7369   -3.5990   38.3518 C   0  0  0  0  0  0  0  0  0  0  0  0
    0.1062   -3.4955   39.5300 F   0  0  0  0  0  0  0  0  0  0  0  0
    0.2914   -4.5150   37.4035 C   0  0  0  0  0  0  0  0  0  0  0  0
   -0.7519   -5.2842   37.7357 F   0  0  0  0  0  0  0  0  0  0  0  0
    0.9494   -4.6473   36.1742 C   0  0  0  0  0  0  0  0  0  0  0  0
    0.5317   -5.5412   35.1750 N   0  0  0  0  0  0  0  0  0  0  0  0
   -0.7368   -6.4198   35.0798 C   0  0  0  0  0  0  0  0  0  0  0  0
   -1.5941   -6.5959   35.8513 O   0  0  0  0  0  0  0  0  0  0  0  0
   -0.8989   -7.0678   33.7467 C   0  0  0  0  0  0  0  0  0  0  0  0
   -0.4382   -6.4973   32.5572 C   0  0  0  0  0  0  0  0  0  0  0  0
   -0.7746   -7.1238   31.3708 C   0  0  0  0  0  0  0  0  0  0  0  0
   -0.3165   -6.4501   29.8658 Cl  0  0  0  0  0  0  0  0  0  0  0  0
   -1.5491   -8.2286   31.2746 N   0  0  0  0  0  0  0  0  0  0  0  0
   -1.9619   -8.7627   32.4445 C   0  0  0  0  0  0  0  0  0  0  0  0
   -1.6681   -8.2283   33.6806 C   0  0  0  0  0  0  0  0  0  0  0  0
   -2.1655   -8.8257   34.7683 F   0  0  0  0  0  0  0  0  0  0  0  0
  1  2  1  0
  2  3  2  0
  2  4  1  0
  4  5  2  0
  5  6  1  0
  6  7  2  0
  7  8  1  0
  7  9  1  0
  9 10  1  0
  9 11  2  0
 11 12  1  0
 12 13  1  0
 13 14  2  0
 13 15  1  0
 15 16  2  0
 16 17  1  0
 17 18  1  0
 17 19  2  0
 19 20  1  0
 20 21  2  0
 21 22  1  0
 11  4  1  0
 21 15  1  0
M  END
>  <ref_mols>  (659) 
7gov-a

>  <gnina_score>  (659) 
5.246

>  <smina_score_min>  (659) 
-5.813

>  <ref_pdb>  (659) 
7gov-a

>  <inspiration_score>  (659) 
None

>  <inchikey>  (659) 
YDXPGSUUZXTWDQ-UHFFFAOYSA-N

>  <tags>  (659) 
BulkDock Fragalysis export,openbind_d68ev3c_c2_elabs_scored,openbind_d68ev3c_c2_elabs_scored_4.5plus,openbind_d68ev3c_c2_elabs,openbind_d68ev3c_c2_elabs_scored_5plus,syndirella_product,openbind_d68ev3c_c2_elabs_scored_top80percent,syndirella_placed

>  <smiles>  (659) 
CC(=O)c1ccc(F)c(F)c1NC(=O)c1cc(Cl)ncc1F

>  <subsites>  (659) 
None

>  <rmsd(smina/fragmenstein)>  (659) 
0.669

>  <alias>  (659) 
None

>  <energy_score>  (659) 
-16.185441

>  <HIPPO Pose ID>  (659) 
66532

>  <distance_score>  (659) 
0.783867

>  <HIPPO Compound ID>  (659) 
105001

>  <gnina_score_min>  (659) 
5.1

>  <name>  (659) 
P66532

>  <exports>  (659) 
['/opt/xchem-fragalysis-2/maxwin/BulkDock/OUTPUTS/openbind_d68ev3c_c2_elabs_1LOTQJ3.sdf', '/opt/xchem-fragalysis-2/maxwin/BulkDock/OUTPUTS/openbind_d68ev3c_c2_elabs_1LSYEHW.sdf', '/opt/xchem-fragalysis-2/maxwin/BulkDock/OUTPUTS/openbind_d68ev3c_c2_elabs_1LSYI5W.sdf']

$$$$
P66533
     RDKit          3D

 22 23  0  0  0  0  0  0  0  0999 V2000
   -1.5052   -6.5957   35.8768 O   0  0  0  0  0  0  0  0  0  0  0  0
   -0.6946   -6.4025   35.0597 C   0  0  0  0  0  0  0  0  0  0  0  0
    0.5593   -5.4970   35.0861 N   0  0  0  0  0  0  0  0  0  0  0  0
    1.0090   -4.5981   36.0564 C   0  0  0  0  0  0  0  0  0  0  0  0
    0.2792   -4.4423   37.2411 C   0  0  0  0  0  0  0  0  0  0  0  0
    0.7189   -3.5612   38.2209 C   0  0  0  0  0  0  0  0  0  0  0  0
    0.0281   -3.4457   39.3629 F   0  0  0  0  0  0  0  0  0  0  0  0
    1.8651   -2.8045   38.0372 C   0  0  0  0  0  0  0  0  0  0  0  0
    2.5879   -2.9379   36.8524 C   0  0  0  0  0  0  0  0  0  0  0  0
    2.1721   -3.8351   35.8462 C   0  0  0  0  0  0  0  0  0  0  0  0
    3.0131   -3.9576   34.6020 C   0  0  0  0  0  0  0  0  0  0  0  0
    4.0423   -4.8368   34.7259 F   0  0  0  0  0  0  0  0  0  0  0  0
    3.5767   -2.7749   34.2203 F   0  0  0  0  0  0  0  0  0  0  0  0
    2.3022   -4.3807   33.5114 F   0  0  0  0  0  0  0  0  0  0  0  0
   -0.8948   -7.0657   33.7374 C   0  0  0  0  0  0  0  0  0  0  0  0
   -0.4456   -6.5137   32.5340 C   0  0  0  0  0  0  0  0  0  0  0  0
   -0.7976   -7.1545   31.3602 C   0  0  0  0  0  0  0  0  0  0  0  0
   -0.3495   -6.5077   29.8410 Cl  0  0  0  0  0  0  0  0  0  0  0  0
   -1.5779   -8.2553   31.2893 N   0  0  0  0  0  0  0  0  0  0  0  0
   -1.9856   -8.7686   32.4703 C   0  0  0  0  0  0  0  0  0  0  0  0
   -1.6760   -8.2191   33.6962 C   0  0  0  0  0  0  0  0  0  0  0  0
   -2.1714   -8.7926   34.7974 F   0  0  0  0  0  0  0  0  0  0  0  0
  1  2  2  0
  2  3  1  0
  3  4  1  0
  4  5  2  0
  5  6  1  0
  6  7  1  0
  6  8  2  0
  8  9  1  0
  9 10  2  0
 10 11  1  0
 11 12  1  0
 11 13  1  0
 11 14  1  0
  2 15  1  0
 15 16  2  0
 16 17  1  0
 17 18  1  0
 17 19  2  0
 19 20  1  0
 20 21  2  0
 21 22  1  0
 10  4  1  0
 21 15  1  0
M  END
>  <ref_mols>  (660) 
7gov-a

>  <gnina_score>  (660) 
5.119

>  <smina_score_min>  (660) 
-6.067

>  <ref_pdb>  (660) 
7gov-a

>  <inspiration_score>  (660) 
None

>  <inchikey>  (660) 
DOTHBVKFPOAEQQ-UHFFFAOYSA-N

>  <tags>  (660) 
BulkDock Fragalysis export,openbind_d68ev3c_c2_elabs_scored,openbind_d68ev3c_c2_elabs_scored_4.5plus,openbind_d68ev3c_c2_elabs,openbind_d68ev3c_c2_elabs_scored_5plus,syndirella_product,openbind_d68ev3c_c2_elabs_scored_top80percent,syndirella_placed

>  <smiles>  (660) 
O=C(Nc1cc(F)ccc1C(F)(F)F)c1cc(Cl)ncc1F

>  <subsites>  (660) 
None

>  <rmsd(smina/fragmenstein)>  (660) 
1.185

>  <alias>  (660) 
None

>  <energy_score>  (660) 
-12.894558

>  <HIPPO Pose ID>  (660) 
66533

>  <distance_score>  (660) 
0.756055

>  <HIPPO Compound ID>  (660) 
105005

>  <gnina_score_min>  (660) 
5.057

>  <name>  (660) 
P66533

>  <exports>  (660) 
['/opt/xchem-fragalysis-2/maxwin/BulkDock/OUTPUTS/openbind_d68ev3c_c2_elabs_1LOTQJ3.sdf', '/opt/xchem-fragalysis-2/maxwin/BulkDock/OUTPUTS/openbind_d68ev3c_c2_elabs_1LSYEHW.sdf', '/opt/xchem-fragalysis-2/maxwin/BulkDock/OUTPUTS/openbind_d68ev3c_c2_elabs_1LSYI5W.sdf']

$$$$
P66538
     RDKit          3D

 22 23  0  0  0  0  0  0  0  0999 V2000
    0.0690   -3.5220   39.5783 C   0  0  0  0  0  0  0  0  0  0  0  0
    0.8154   -3.6193   38.2779 C   0  0  0  0  0  0  0  0  0  0  0  0
    0.3223   -4.4746   37.2785 C   0  0  0  0  0  0  0  0  0  0  0  0
    1.0087   -4.6314   36.0709 C   0  0  0  0  0  0  0  0  0  0  0  0
    0.5703   -5.5289   35.1033 N   0  0  0  0  0  0  0  0  0  0  0  0
   -0.7167   -6.3816   35.0348 C   0  0  0  0  0  0  0  0  0  0  0  0
   -1.5730   -6.5223   35.8150 O   0  0  0  0  0  0  0  0  0  0  0  0
   -0.8965   -7.0564   33.7185 C   0  0  0  0  0  0  0  0  0  0  0  0
   -0.4481   -6.5077   32.5142 C   0  0  0  0  0  0  0  0  0  0  0  0
   -0.7952   -7.1582   31.3443 C   0  0  0  0  0  0  0  0  0  0  0  0
   -0.3537   -6.5160   29.8211 Cl  0  0  0  0  0  0  0  0  0  0  0  0
   -1.5686   -8.2644   31.2796 N   0  0  0  0  0  0  0  0  0  0  0  0
   -1.9728   -8.7754   32.4628 C   0  0  0  0  0  0  0  0  0  0  0  0
   -1.6676   -8.2166   33.6849 C   0  0  0  0  0  0  0  0  0  0  0  0
   -2.1557   -8.7865   34.7914 F   0  0  0  0  0  0  0  0  0  0  0  0
    2.1636   -3.8868   35.8271 C   0  0  0  0  0  0  0  0  0  0  0  0
    2.7987   -4.0119   34.6510 F   0  0  0  0  0  0  0  0  0  0  0  0
    2.6660   -3.0142   36.7805 C   0  0  0  0  0  0  0  0  0  0  0  0
    1.9962   -2.8997   38.0048 C   0  0  0  0  0  0  0  0  0  0  0  0
    2.5823   -2.0144   39.0024 N   0  0  0  0  0  0  0  0  0  0  0  0
    3.7874   -2.1589   39.2551 O   0  0  0  0  0  0  0  0  0  0  0  0
    1.8436   -1.1627   39.5152 O   0  0  0  0  0  0  0  0  0  0  0  0
  1  2  1  0
  2  3  2  0
  3  4  1  0
  4  5  1  0
  5  6  1  0
  6  7  2  0
  6  8  1  0
  8  9  2  0
  9 10  1  0
 10 11  1  0
 10 12  2  0
 12 13  1  0
 13 14  2  0
 14 15  1  0
  4 16  2  0
 16 17  1  0
 16 18  1  0
 18 19  2  0
 19 20  1  0
 20 21  2  0
 20 22  1  0
 19  2  1  0
 14  8  1  0
M  CHG  2  20   1  22  -1
M  END
>  <ref_mols>  (661) 
7gov-a

>  <gnina_score>  (661) 
5.123

>  <smina_score_min>  (661) 
-5.922

>  <ref_pdb>  (661) 
7gov-a

>  <inspiration_score>  (661) 
None

>  <inchikey>  (661) 
PYKCUEKFWUGONJ-UHFFFAOYSA-N

>  <tags>  (661) 
BulkDock Fragalysis export,openbind_d68ev3c_c2_elabs_scored,openbind_d68ev3c_c2_elabs_scored_4.5plus,openbind_d68ev3c_c2_elabs,openbind_d68ev3c_c2_elabs_scored_5plus,syndirella_product,openbind_d68ev3c_c2_elabs_scored_top80percent,syndirella_placed

>  <smiles>  (661) 
Cc1cc(NC(=O)c2cc(Cl)ncc2F)c(F)cc1[N+](=O)[O-]

>  <subsites>  (661) 
None

>  <rmsd(smina/fragmenstein)>  (661) 
1.109

>  <alias>  (661) 
None

>  <energy_score>  (661) 
-30.090537

>  <HIPPO Pose ID>  (661) 
66538

>  <distance_score>  (661) 
0.771156

>  <HIPPO Compound ID>  (661) 
105025

>  <gnina_score_min>  (661) 
5.112

>  <name>  (661) 
P66538

>  <exports>  (661) 
['/opt/xchem-fragalysis-2/maxwin/BulkDock/OUTPUTS/openbind_d68ev3c_c2_elabs_1LOTQJ3.sdf', '/opt/xchem-fragalysis-2/maxwin/BulkDock/OUTPUTS/openbind_d68ev3c_c2_elabs_1LSYEHW.sdf', '/opt/xchem-fragalysis-2/maxwin/BulkDock/OUTPUTS/openbind_d68ev3c_c2_elabs_1LSYI5W.sdf']

$$$$
P66541
     RDKit          3D

 22 23  0  0  0  0  0  0  0  0999 V2000
    2.1507   -2.4291   33.5797 C   0  0  0  0  0  0  0  0  0  0  0  0
    2.9728   -2.8624   34.7654 C   0  0  0  0  0  0  0  0  0  0  0  0
    4.1984   -2.9011   34.7154 O   0  0  0  0  0  0  0  0  0  0  0  0
    2.2712   -3.1369   36.0407 C   0  0  0  0  0  0  0  0  0  0  0  0
    2.6759   -2.3982   37.1618 C   0  0  0  0  0  0  0  0  0  0  0  0
    2.0517   -2.5949   38.3952 C   0  0  0  0  0  0  0  0  0  0  0  0
    1.0377   -3.5379   38.5064 C   0  0  0  0  0  0  0  0  0  0  0  0
    0.3993   -3.6850   39.6757 F   0  0  0  0  0  0  0  0  0  0  0  0
    0.6663   -4.3065   37.4120 C   0  0  0  0  0  0  0  0  0  0  0  0
   -0.3546   -5.1667   37.5522 F   0  0  0  0  0  0  0  0  0  0  0  0
    1.2869   -4.1228   36.1688 C   0  0  0  0  0  0  0  0  0  0  0  0
    0.9127   -4.9117   35.0866 N   0  0  0  0  0  0  0  0  0  0  0  0
    0.3960   -6.3569   35.0369 C   0  0  0  0  0  0  0  0  0  0  0  0
    0.2736   -7.1447   35.8860 O   0  0  0  0  0  0  0  0  0  0  0  0
   -0.1023   -6.7248   33.6862 C   0  0  0  0  0  0  0  0  0  0  0  0
    0.3309   -6.1680   32.4850 C   0  0  0  0  0  0  0  0  0  0  0  0
   -0.3056   -6.5408   31.3064 C   0  0  0  0  0  0  0  0  0  0  0  0
    0.0870   -5.8852   30.0186 C   0  0  0  0  0  0  0  0  0  0  0  0
   -1.3244   -7.4233   31.2776 N   0  0  0  0  0  0  0  0  0  0  0  0
   -1.6641   -7.9775   32.4561 C   0  0  0  0  0  0  0  0  0  0  0  0
   -3.0604   -9.1924   32.4681 Br  0  0  0  0  0  0  0  0  0  0  0  0
   -1.1075   -7.6735   33.6696 C   0  0  0  0  0  0  0  0  0  0  0  0
  1  2  1  0
  2  3  2  0
  2  4  1  0
  4  5  2  0
  5  6  1  0
  6  7  2  0
  7  8  1  0
  7  9  1  0
  9 10  1  0
  9 11  2  0
 11 12  1  0
 12 13  1  0
 13 14  2  0
 13 15  1  0
 15 16  2  0
 16 17  1  0
 17 18  1  0
 17 19  2  0
 19 20  1  0
 20 21  1  0
 20 22  2  0
 11  4  1  0
 22 15  1  0
M  END
>  <ref_mols>  (662) 
7gov-a

>  <gnina_score>  (662) 
5.143

>  <smina_score_min>  (662) 
-5.127

>  <ref_pdb>  (662) 
7gov-a

>  <inspiration_score>  (662) 
None

>  <inchikey>  (662) 
KDIONSOHYMZXPQ-UHFFFAOYSA-N

>  <tags>  (662) 
BulkDock Fragalysis export,openbind_d68ev3c_c2_elabs_scored,openbind_d68ev3c_c2_elabs_scored_4.5plus,openbind_d68ev3c_c2_elabs,openbind_d68ev3c_c2_elabs_scored_5plus,syndirella_product,openbind_d68ev3c_c2_elabs_scored_top80percent,syndirella_placed

>  <smiles>  (662) 
CC(=O)c1ccc(F)c(F)c1NC(=O)c1cc(C)nc(Br)c1

>  <subsites>  (662) 
None

>  <rmsd(smina/fragmenstein)>  (662) 
1.073

>  <alias>  (662) 
None

>  <energy_score>  (662) 
-8.130022

>  <HIPPO Pose ID>  (662) 
66541

>  <distance_score>  (662) 
0.79354

>  <HIPPO Compound ID>  (662) 
105032

>  <gnina_score_min>  (662) 
5.123

>  <name>  (662) 
P66541

>  <exports>  (662) 
['/opt/xchem-fragalysis-2/maxwin/BulkDock/OUTPUTS/openbind_d68ev3c_c2_elabs_1LOTQJ3.sdf', '/opt/xchem-fragalysis-2/maxwin/BulkDock/OUTPUTS/openbind_d68ev3c_c2_elabs_1LSYEHW.sdf', '/opt/xchem-fragalysis-2/maxwin/BulkDock/OUTPUTS/openbind_d68ev3c_c2_elabs_1LSYI5W.sdf']

$$$$
P66544
     RDKit          3D

 22 23  0  0  0  0  0  0  0  0999 V2000
    3.4771   -3.3060   33.6052 C   0  0  0  0  0  0  0  0  0  0  0  0
    2.9101   -3.3717   34.6618 C   0  0  0  0  0  0  0  0  0  0  0  0
    2.2328   -3.4363   35.9265 C   0  0  0  0  0  0  0  0  0  0  0  0
    2.6622   -2.5941   36.9587 C   0  0  0  0  0  0  0  0  0  0  0  0
    2.0482   -2.6527   38.2110 C   0  0  0  0  0  0  0  0  0  0  0  0
    2.5965   -1.6081   39.4665 Cl  0  0  0  0  0  0  0  0  0  0  0  0
    0.9975   -3.5343   38.4324 C   0  0  0  0  0  0  0  0  0  0  0  0
    0.3663   -3.5677   39.6167 F   0  0  0  0  0  0  0  0  0  0  0  0
    0.5753   -4.3791   37.4158 C   0  0  0  0  0  0  0  0  0  0  0  0
   -0.4780   -5.1714   37.6599 F   0  0  0  0  0  0  0  0  0  0  0  0
    1.1951   -4.3527   36.1588 C   0  0  0  0  0  0  0  0  0  0  0  0
    0.7997   -5.2040   35.1255 N   0  0  0  0  0  0  0  0  0  0  0  0
   -0.0239   -6.5006   35.1600 C   0  0  0  0  0  0  0  0  0  0  0  0
   -0.4394   -7.1080   36.0637 O   0  0  0  0  0  0  0  0  0  0  0  0
   -0.4107   -6.9659   33.7970 C   0  0  0  0  0  0  0  0  0  0  0  0
   -1.4735   -7.8558   33.7573 C   0  0  0  0  0  0  0  0  0  0  0  0
   -1.9342   -8.2365   32.5244 C   0  0  0  0  0  0  0  0  0  0  0  0
   -3.2994   -9.2183   32.4352 Cl  0  0  0  0  0  0  0  0  0  0  0  0
   -1.4457   -7.8409   31.3341 N   0  0  0  0  0  0  0  0  0  0  0  0
   -0.3801   -7.0174   31.3983 C   0  0  0  0  0  0  0  0  0  0  0  0
    0.1688   -6.5696   32.5924 C   0  0  0  0  0  0  0  0  0  0  0  0
    1.3142   -5.8292   32.5504 O   0  0  0  0  0  0  0  0  0  0  0  0
  1  2  3  0
  2  3  1  0
  3  4  2  0
  4  5  1  0
  5  6  1  0
  5  7  2  0
  7  8  1  0
  7  9  1  0
  9 10  1  0
  9 11  2  0
 11 12  1  0
 12 13  1  0
 13 14  2  0
 13 15  1  0
 15 16  2  0
 16 17  1  0
 17 18  1  0
 17 19  2  0
 19 20  1  0
 20 21  2  0
 21 22  1  0
 11  3  1  0
 21 15  1  0
M  END
>  <ref_mols>  (663) 
7gov-a

>  <gnina_score>  (663) 
5.271

>  <smina_score_min>  (663) 
-5.874

>  <ref_pdb>  (663) 
7gov-a

>  <inspiration_score>  (663) 
None

>  <inchikey>  (663) 
NVUZCDOSVWQYOK-UHFFFAOYSA-N

>  <tags>  (663) 
BulkDock Fragalysis export,openbind_d68ev3c_c2_elabs_scored,openbind_d68ev3c_c2_elabs_scored_4.5plus,openbind_d68ev3c_c2_elabs,openbind_d68ev3c_c2_elabs_scored_5plus,syndirella_product,openbind_d68ev3c_c2_elabs_scored_top80percent,syndirella_placed

>  <smiles>  (663) 
C#Cc1cc(Cl)c(F)c(F)c1NC(=O)c1cc(Cl)ncc1O

>  <subsites>  (663) 
None

>  <rmsd(smina/fragmenstein)>  (663) 
1.25

>  <alias>  (663) 
None

>  <energy_score>  (663) 
-11.317684

>  <HIPPO Pose ID>  (663) 
66544

>  <distance_score>  (663) 
0.659865

>  <HIPPO Compound ID>  (663) 
105038

>  <gnina_score_min>  (663) 
5.058

>  <name>  (663) 
P66544

>  <exports>  (663) 
['/opt/xchem-fragalysis-2/maxwin/BulkDock/OUTPUTS/openbind_d68ev3c_c2_elabs_1LOTQJ3.sdf', '/opt/xchem-fragalysis-2/maxwin/BulkDock/OUTPUTS/openbind_d68ev3c_c2_elabs_1LSYEHW.sdf', '/opt/xchem-fragalysis-2/maxwin/BulkDock/OUTPUTS/openbind_d68ev3c_c2_elabs_1LSYI5W.sdf']

$$$$
P66545
     RDKit          3D

 22 23  0  0  0  0  0  0  0  0999 V2000
    4.2492   -3.4674   34.6486 C   0  0  0  0  0  0  0  0  0  0  0  0
    2.7947   -3.8582   34.6692 C   0  0  0  0  0  0  0  0  0  0  0  0
    2.2086   -4.1989   33.6406 O   0  0  0  0  0  0  0  0  0  0  0  0
    2.0493   -3.8107   35.9647 C   0  0  0  0  0  0  0  0  0  0  0  0
    2.4626   -2.9354   36.9788 C   0  0  0  0  0  0  0  0  0  0  0  0
    1.7750   -2.9103   38.1925 C   0  0  0  0  0  0  0  0  0  0  0  0
    2.3604   -1.7474   39.5649 Br  0  0  0  0  0  0  0  0  0  0  0  0
    0.6702   -3.7345   38.3881 C   0  0  0  0  0  0  0  0  0  0  0  0
   -0.0012   -3.7139   39.5488 F   0  0  0  0  0  0  0  0  0  0  0  0
    0.2395   -4.5964   37.3846 C   0  0  0  0  0  0  0  0  0  0  0  0
    0.9311   -4.6481   36.1729 C   0  0  0  0  0  0  0  0  0  0  0  0
    0.5247   -5.5155   35.1593 N   0  0  0  0  0  0  0  0  0  0  0  0
   -0.6252   -6.5492   35.1224 C   0  0  0  0  0  0  0  0  0  0  0  0
   -1.3641   -6.8913   35.9619 O   0  0  0  0  0  0  0  0  0  0  0  0
   -0.8659   -7.1412   33.7591 C   0  0  0  0  0  0  0  0  0  0  0  0
   -0.3946   -6.5668   32.5734 C   0  0  0  0  0  0  0  0  0  0  0  0
   -0.7710   -7.1399   31.3713 C   0  0  0  0  0  0  0  0  0  0  0  0
   -0.3011   -6.4347   29.8832 Cl  0  0  0  0  0  0  0  0  0  0  0  0
   -1.5892   -8.2040   31.2474 N   0  0  0  0  0  0  0  0  0  0  0  0
   -2.0197   -8.7481   32.4023 C   0  0  0  0  0  0  0  0  0  0  0  0
   -1.6990   -8.2635   33.6566 C   0  0  0  0  0  0  0  0  0  0  0  0
   -2.2754   -8.9176   34.7032 O   0  0  0  0  0  0  0  0  0  0  0  0
  1  2  1  0
  2  3  2  0
  2  4  1  0
  4  5  2  0
  5  6  1  0
  6  7  1  0
  6  8  2  0
  8  9  1  0
  8 10  1  0
 10 11  2  0
 11 12  1  0
 12 13  1  0
 13 14  2  0
 13 15  1  0
 15 16  2  0
 16 17  1  0
 17 18  1  0
 17 19  2  0
 19 20  1  0
 20 21  2  0
 21 22  1  0
 11  4  1  0
 21 15  1  0
M  END
>  <ref_mols>  (664) 
7gov-a

>  <gnina_score>  (664) 
4.946

>  <smina_score_min>  (664) 
-6.267

>  <ref_pdb>  (664) 
7gov-a

>  <inspiration_score>  (664) 
None

>  <inchikey>  (664) 
BHDFLXUGFDNUOZ-UHFFFAOYSA-N

>  <tags>  (664) 
BulkDock Fragalysis export,openbind_d68ev3c_c2_elabs_scored,openbind_d68ev3c_c2_elabs_scored_4.5plus,openbind_d68ev3c_c2_elabs,openbind_d68ev3c_c2_elabs_scored_5plus,syndirella_product,openbind_d68ev3c_c2_elabs_scored_top80percent,syndirella_placed

>  <smiles>  (664) 
CC(=O)c1cc(Br)c(F)cc1NC(=O)c1cc(Cl)ncc1O

>  <subsites>  (664) 
None

>  <rmsd(smina/fragmenstein)>  (664) 
1.26

>  <alias>  (664) 
None

>  <energy_score>  (664) 
-37.9352

>  <HIPPO Pose ID>  (664) 
66545

>  <distance_score>  (664) 
0.718092

>  <HIPPO Compound ID>  (664) 
105041

>  <gnina_score_min>  (664) 
5.045

>  <name>  (664) 
P66545

>  <exports>  (664) 
['/opt/xchem-fragalysis-2/maxwin/BulkDock/OUTPUTS/openbind_d68ev3c_c2_elabs_1LOTQJ3.sdf', '/opt/xchem-fragalysis-2/maxwin/BulkDock/OUTPUTS/openbind_d68ev3c_c2_elabs_1LSYEHW.sdf', '/opt/xchem-fragalysis-2/maxwin/BulkDock/OUTPUTS/openbind_d68ev3c_c2_elabs_1LSYI5W.sdf']

$$$$
P66546
     RDKit          3D

 22 23  0  0  0  0  0  0  0  0999 V2000
    0.0030   -3.6431   39.6312 C   0  0  0  0  0  0  0  0  0  0  0  0
    0.7472   -3.7013   38.3272 C   0  0  0  0  0  0  0  0  0  0  0  0
    0.2730   -4.5544   37.3157 C   0  0  0  0  0  0  0  0  0  0  0  0
    0.9558   -4.6658   36.1023 C   0  0  0  0  0  0  0  0  0  0  0  0
    0.5390   -5.5413   35.1065 N   0  0  0  0  0  0  0  0  0  0  0  0
   -0.6166   -6.5700   35.0916 C   0  0  0  0  0  0  0  0  0  0  0  0
   -1.3507   -6.8974   35.9408 O   0  0  0  0  0  0  0  0  0  0  0  0
   -0.8640   -7.1718   33.7392 C   0  0  0  0  0  0  0  0  0  0  0  0
   -0.4094   -6.5813   32.5549 C   0  0  0  0  0  0  0  0  0  0  0  0
   -0.7810   -7.1549   31.3532 C   0  0  0  0  0  0  0  0  0  0  0  0
   -0.3146   -6.4447   29.8671 Cl  0  0  0  0  0  0  0  0  0  0  0  0
   -1.5885   -8.2258   31.2312 N   0  0  0  0  0  0  0  0  0  0  0  0
   -2.0113   -8.7779   32.3861 C   0  0  0  0  0  0  0  0  0  0  0  0
   -1.6884   -8.2986   33.6412 C   0  0  0  0  0  0  0  0  0  0  0  0
   -2.2561   -8.9607   34.6863 O   0  0  0  0  0  0  0  0  0  0  0  0
    2.0861   -3.8793   35.8661 C   0  0  0  0  0  0  0  0  0  0  0  0
    2.7172   -3.9629   34.6837 F   0  0  0  0  0  0  0  0  0  0  0  0
    2.5721   -3.0137   36.8338 C   0  0  0  0  0  0  0  0  0  0  0  0
    1.9062   -2.9425   38.0626 C   0  0  0  0  0  0  0  0  0  0  0  0
    2.4701   -2.0578   39.0736 N   0  0  0  0  0  0  0  0  0  0  0  0
    3.6793   -2.1725   39.3210 O   0  0  0  0  0  0  0  0  0  0  0  0
    1.7089   -1.2364   39.6026 O   0  0  0  0  0  0  0  0  0  0  0  0
  1  2  1  0
  2  3  2  0
  3  4  1  0
  4  5  1  0
  5  6  1  0
  6  7  2  0
  6  8  1  0
  8  9  2  0
  9 10  1  0
 10 11  1  0
 10 12  2  0
 12 13  1  0
 13 14  2  0
 14 15  1  0
  4 16  2  0
 16 17  1  0
 16 18  1  0
 18 19  2  0
 19 20  1  0
 20 21  2  0
 20 22  1  0
 19  2  1  0
 14  8  1  0
M  CHG  2  20   1  22  -1
M  END
>  <ref_mols>  (665) 
7gov-a

>  <gnina_score>  (665) 
4.831

>  <smina_score_min>  (665) 
-6.381

>  <ref_pdb>  (665) 
7gov-a

>  <inspiration_score>  (665) 
None

>  <inchikey>  (665) 
AWGALQRHMLZIQM-UHFFFAOYSA-N

>  <tags>  (665) 
BulkDock Fragalysis export,openbind_d68ev3c_c2_elabs_scored,openbind_d68ev3c_c2_elabs_scored_4.5plus,openbind_d68ev3c_c2_elabs,openbind_d68ev3c_c2_elabs_scored_5plus,syndirella_product,openbind_d68ev3c_c2_elabs_scored_top80percent,syndirella_placed

>  <smiles>  (665) 
Cc1cc(NC(=O)c2cc(Cl)ncc2O)c(F)cc1[N+](=O)[O-]

>  <subsites>  (665) 
None

>  <rmsd(smina/fragmenstein)>  (665) 
1.443

>  <alias>  (665) 
None

>  <energy_score>  (665) 
-24.342664

>  <HIPPO Pose ID>  (665) 
66546

>  <distance_score>  (665) 
0.705734

>  <HIPPO Compound ID>  (665) 
105047

>  <gnina_score_min>  (665) 
5.015

>  <name>  (665) 
P66546

>  <exports>  (665) 
['/opt/xchem-fragalysis-2/maxwin/BulkDock/OUTPUTS/openbind_d68ev3c_c2_elabs_1LOTQJ3.sdf', '/opt/xchem-fragalysis-2/maxwin/BulkDock/OUTPUTS/openbind_d68ev3c_c2_elabs_1LSYEHW.sdf', '/opt/xchem-fragalysis-2/maxwin/BulkDock/OUTPUTS/openbind_d68ev3c_c2_elabs_1LSYI5W.sdf']

$$$$
P66549
     RDKit          3D

 22 23  0  0  0  0  0  0  0  0999 V2000
    0.2530   -7.4033   35.5690 O   0  0  0  0  0  0  0  0  0  0  0  0
    0.1810   -6.5667   34.7597 C   0  0  0  0  0  0  0  0  0  0  0  0
    0.5510   -5.0731   34.8323 N   0  0  0  0  0  0  0  0  0  0  0  0
    0.9836   -4.2994   35.9068 C   0  0  0  0  0  0  0  0  0  0  0  0
    0.4172   -4.5603   37.1612 C   0  0  0  0  0  0  0  0  0  0  0  0
    0.7757   -3.7916   38.2609 C   0  0  0  0  0  0  0  0  0  0  0  0
    0.1916   -4.0127   39.4461 F   0  0  0  0  0  0  0  0  0  0  0  0
    1.7205   -2.7850   38.1453 C   0  0  0  0  0  0  0  0  0  0  0  0
    2.3084   -2.5400   36.9049 C   0  0  0  0  0  0  0  0  0  0  0  0
    1.9400   -3.2863   35.7665 C   0  0  0  0  0  0  0  0  0  0  0  0
    2.6419   -3.0359   34.4632 C   0  0  0  0  0  0  0  0  0  0  0  0
    3.4872   -1.9633   34.4959 F   0  0  0  0  0  0  0  0  0  0  0  0
    1.7623   -2.7581   33.4568 F   0  0  0  0  0  0  0  0  0  0  0  0
    3.3963   -4.0805   34.0313 F   0  0  0  0  0  0  0  0  0  0  0  0
   -0.4651   -6.9774   33.4713 C   0  0  0  0  0  0  0  0  0  0  0  0
   -1.5479   -7.8774   33.5604 C   0  0  0  0  0  0  0  0  0  0  0  0
   -2.3913   -8.2826   35.0118 Cl  0  0  0  0  0  0  0  0  0  0  0  0
   -2.0726   -8.4179   32.3981 C   0  0  0  0  0  0  0  0  0  0  0  0
   -1.6441   -8.1051   31.1598 N   0  0  0  0  0  0  0  0  0  0  0  0
   -0.6302   -7.2125   31.0908 C   0  0  0  0  0  0  0  0  0  0  0  0
   -0.0220   -6.6153   32.1934 C   0  0  0  0  0  0  0  0  0  0  0  0
    1.3412   -5.3679   31.7936 Br  0  0  0  0  0  0  0  0  0  0  0  0
  1  2  2  0
  2  3  1  0
  3  4  1  0
  4  5  2  0
  5  6  1  0
  6  7  1  0
  6  8  2  0
  8  9  1  0
  9 10  2  0
 10 11  1  0
 11 12  1  0
 11 13  1  0
 11 14  1  0
  2 15  1  0
 15 16  2  0
 16 17  1  0
 16 18  1  0
 18 19  2  0
 19 20  1  0
 20 21  2  0
 21 22  1  0
 10  4  1  0
 21 15  1  0
M  END
>  <ref_mols>  (666) 
7gov-a

>  <gnina_score>  (666) 
5.256

>  <smina_score_min>  (666) 
-5.67

>  <ref_pdb>  (666) 
7gov-a

>  <inspiration_score>  (666) 
None

>  <inchikey>  (666) 
UZLGVBHLNVDASV-UHFFFAOYSA-N

>  <tags>  (666) 
BulkDock Fragalysis export,openbind_d68ev3c_c2_elabs_scored,openbind_d68ev3c_c2_elabs_scored_4.5plus,openbind_d68ev3c_c2_elabs,openbind_d68ev3c_c2_elabs_scored_5plus,syndirella_product,openbind_d68ev3c_c2_elabs_scored_top80percent,syndirella_placed

>  <smiles>  (666) 
O=C(Nc1cc(F)ccc1C(F)(F)F)c1c(Cl)cncc1Br

>  <subsites>  (666) 
None

>  <rmsd(smina/fragmenstein)>  (666) 
1.449

>  <alias>  (666) 
None

>  <energy_score>  (666) 
-28.731763

>  <HIPPO Pose ID>  (666) 
66549

>  <distance_score>  (666) 
0.497765

>  <HIPPO Compound ID>  (666) 
105053

>  <gnina_score_min>  (666) 
5.226

>  <name>  (666) 
P66549

>  <exports>  (666) 
['/opt/xchem-fragalysis-2/maxwin/BulkDock/OUTPUTS/openbind_d68ev3c_c2_elabs_1LOTQJ3.sdf', '/opt/xchem-fragalysis-2/maxwin/BulkDock/OUTPUTS/openbind_d68ev3c_c2_elabs_1LSYEHW.sdf', '/opt/xchem-fragalysis-2/maxwin/BulkDock/OUTPUTS/openbind_d68ev3c_c2_elabs_1LSYI5W.sdf']

$$$$
P66551
     RDKit          3D

 22 23  0  0  0  0  0  0  0  0999 V2000
    1.7548   -0.4758   32.8855 C   0  0  0  0  0  0  0  0  0  0  0  0
    1.6994   -1.0594   34.1876 O   0  0  0  0  0  0  0  0  0  0  0  0
    0.8473   -2.1113   34.2839 C   0  0  0  0  0  0  0  0  0  0  0  0
    0.1543   -2.5520   33.3783 O   0  0  0  0  0  0  0  0  0  0  0  0
    0.8700   -2.6808   35.6584 C   0  0  0  0  0  0  0  0  0  0  0  0
    1.3006   -1.9006   36.7468 C   0  0  0  0  0  0  0  0  0  0  0  0
    1.2393   -2.4037   38.0467 C   0  0  0  0  0  0  0  0  0  0  0  0
    0.7532   -3.6843   38.2579 C   0  0  0  0  0  0  0  0  0  0  0  0
    0.5910   -4.1239   39.5124 F   0  0  0  0  0  0  0  0  0  0  0  0
    0.3969   -4.4982   37.1898 C   0  0  0  0  0  0  0  0  0  0  0  0
    0.4636   -4.0082   35.8827 C   0  0  0  0  0  0  0  0  0  0  0  0
    0.1312   -4.8540   34.8253 N   0  0  0  0  0  0  0  0  0  0  0  0
    0.1094   -6.3960   34.7427 C   0  0  0  0  0  0  0  0  0  0  0  0
    0.4400   -7.2006   35.5222 O   0  0  0  0  0  0  0  0  0  0  0  0
   -0.4975   -6.8904   33.4793 C   0  0  0  0  0  0  0  0  0  0  0  0
   -1.5350   -7.8284   33.5824 C   0  0  0  0  0  0  0  0  0  0  0  0
   -2.3236   -8.2494   35.0531 Cl  0  0  0  0  0  0  0  0  0  0  0  0
   -2.0332   -8.3971   32.4223 C   0  0  0  0  0  0  0  0  0  0  0  0
   -1.6039   -8.0833   31.1811 N   0  0  0  0  0  0  0  0  0  0  0  0
   -0.6039   -7.1697   31.1090 C   0  0  0  0  0  0  0  0  0  0  0  0
   -0.0257   -6.5438   32.2094 C   0  0  0  0  0  0  0  0  0  0  0  0
    1.3601   -5.2986   31.8643 Br  0  0  0  0  0  0  0  0  0  0  0  0
  1  2  1  0
  2  3  1  0
  3  4  2  0
  3  5  1  0
  5  6  2  0
  6  7  1  0
  7  8  2  0
  8  9  1  0
  8 10  1  0
 10 11  2  0
 11 12  1  0
 12 13  1  0
 13 14  2  0
 13 15  1  0
 15 16  2  0
 16 17  1  0
 16 18  1  0
 18 19  2  0
 19 20  1  0
 20 21  2  0
 21 22  1  0
 11  5  1  0
 21 15  1  0
M  END
>  <ref_mols>  (667) 
7gov-a

>  <gnina_score>  (667) 
5.11

>  <smina_score_min>  (667) 
-5.279

>  <ref_pdb>  (667) 
7gov-a

>  <inspiration_score>  (667) 
None

>  <inchikey>  (667) 
IMLIXBFGUMDEGU-UHFFFAOYSA-N

>  <tags>  (667) 
BulkDock Fragalysis export,openbind_d68ev3c_c2_elabs_scored,openbind_d68ev3c_c2_elabs_scored_4.5plus,openbind_d68ev3c_c2_elabs,openbind_d68ev3c_c2_elabs_scored_5plus,syndirella_product,openbind_d68ev3c_c2_elabs_scored_top80percent,syndirella_placed

>  <smiles>  (667) 
COC(=O)c1ccc(F)cc1NC(=O)c1c(Cl)cncc1Br

>  <subsites>  (667) 
None

>  <rmsd(smina/fragmenstein)>  (667) 
1.216

>  <alias>  (667) 
None

>  <energy_score>  (667) 
-45.452301

>  <HIPPO Pose ID>  (667) 
66551

>  <distance_score>  (667) 
1.006166

>  <HIPPO Compound ID>  (667) 
105055

>  <gnina_score_min>  (667) 
5.089

>  <name>  (667) 
P66551

>  <exports>  (667) 
['/opt/xchem-fragalysis-2/maxwin/BulkDock/OUTPUTS/openbind_d68ev3c_c2_elabs_1LOTQJ3.sdf', '/opt/xchem-fragalysis-2/maxwin/BulkDock/OUTPUTS/openbind_d68ev3c_c2_elabs_1LSYEHW.sdf', '/opt/xchem-fragalysis-2/maxwin/BulkDock/OUTPUTS/openbind_d68ev3c_c2_elabs_1LSYI5W.sdf']

$$$$
P66557
     RDKit          3D

 22 23  0  0  0  0  0  0  0  0999 V2000
    3.5610   -3.3134   33.6847 C   0  0  0  0  0  0  0  0  0  0  0  0
    2.9868   -3.3534   34.7386 C   0  0  0  0  0  0  0  0  0  0  0  0
    2.3040   -3.3982   36.0011 C   0  0  0  0  0  0  0  0  0  0  0  0
    2.7921   -2.6216   37.0576 C   0  0  0  0  0  0  0  0  0  0  0  0
    2.1715   -2.6706   38.3080 C   0  0  0  0  0  0  0  0  0  0  0  0
    2.7956   -1.7099   39.5949 Cl  0  0  0  0  0  0  0  0  0  0  0  0
    1.0564   -3.4765   38.5042 C   0  0  0  0  0  0  0  0  0  0  0  0
    0.4207   -3.4992   39.6862 F   0  0  0  0  0  0  0  0  0  0  0  0
    0.5722   -4.2519   37.4624 C   0  0  0  0  0  0  0  0  0  0  0  0
   -0.5434   -4.9636   37.6772 F   0  0  0  0  0  0  0  0  0  0  0  0
    1.1954   -4.2321   36.2074 C   0  0  0  0  0  0  0  0  0  0  0  0
    0.7118   -5.0060   35.1546 N   0  0  0  0  0  0  0  0  0  0  0  0
   -0.1015   -6.3094   35.1651 C   0  0  0  0  0  0  0  0  0  0  0  0
   -0.5639   -6.9047   36.0545 O   0  0  0  0  0  0  0  0  0  0  0  0
   -0.4117   -6.8116   33.7974 C   0  0  0  0  0  0  0  0  0  0  0  0
   -1.3689   -7.8176   33.7355 C   0  0  0  0  0  0  0  0  0  0  0  0
   -1.7938   -8.2133   32.4943 C   0  0  0  0  0  0  0  0  0  0  0  0
   -3.0992   -9.2674   32.3784 Cl  0  0  0  0  0  0  0  0  0  0  0  0
   -1.3334   -7.7568   31.3150 N   0  0  0  0  0  0  0  0  0  0  0  0
   -0.3588   -6.8264   31.4039 C   0  0  0  0  0  0  0  0  0  0  0  0
    0.1074   -6.3129   32.6056 C   0  0  0  0  0  0  0  0  0  0  0  0
    1.0229   -5.3345   32.5864 F   0  0  0  0  0  0  0  0  0  0  0  0
  1  2  3  0
  2  3  1  0
  3  4  2  0
  4  5  1  0
  5  6  1  0
  5  7  2  0
  7  8  1  0
  7  9  1  0
  9 10  1  0
  9 11  2  0
 11 12  1  0
 12 13  1  0
 13 14  2  0
 13 15  1  0
 15 16  2  0
 16 17  1  0
 17 18  1  0
 17 19  2  0
 19 20  1  0
 20 21  2  0
 21 22  1  0
 11  3  1  0
 21 15  1  0
M  END
>  <ref_mols>  (668) 
7gov-a

>  <gnina_score>  (668) 
5.401

>  <smina_score_min>  (668) 
-5.179

>  <ref_pdb>  (668) 
7gov-a

>  <inspiration_score>  (668) 
None

>  <inchikey>  (668) 
UPNUDCBLLJBCFX-UHFFFAOYSA-N

>  <tags>  (668) 
BulkDock Fragalysis export,openbind_d68ev3c_c2_elabs_scored,openbind_d68ev3c_c2_elabs_scored_4.5plus,openbind_d68ev3c_c2_elabs,openbind_d68ev3c_c2_elabs_scored_5plus,syndirella_product,openbind_d68ev3c_c2_elabs_scored_top80percent,syndirella_placed

>  <smiles>  (668) 
C#Cc1cc(Cl)c(F)c(F)c1NC(=O)c1cc(Cl)ncc1F

>  <subsites>  (668) 
None

>  <rmsd(smina/fragmenstein)>  (668) 
1.021

>  <alias>  (668) 
None

>  <energy_score>  (668) 
-8.761293

>  <HIPPO Pose ID>  (668) 
66557

>  <distance_score>  (668) 
0.736123

>  <HIPPO Compound ID>  (668) 
105070

>  <gnina_score_min>  (668) 
5.348

>  <name>  (668) 
P66557

>  <exports>  (668) 
['/opt/xchem-fragalysis-2/maxwin/BulkDock/OUTPUTS/openbind_d68ev3c_c2_elabs_1LOTQJ3.sdf', '/opt/xchem-fragalysis-2/maxwin/BulkDock/OUTPUTS/openbind_d68ev3c_c2_elabs_1LSYEHW.sdf', '/opt/xchem-fragalysis-2/maxwin/BulkDock/OUTPUTS/openbind_d68ev3c_c2_elabs_1LSYI5W.sdf']

$$$$
P66558
     RDKit          3D

 22 23  0  0  0  0  0  0  0  0999 V2000
    3.6481   -3.3597   33.7347 C   0  0  0  0  0  0  0  0  0  0  0  0
    3.0526   -3.3868   34.7772 C   0  0  0  0  0  0  0  0  0  0  0  0
    2.3442   -3.4159   36.0255 C   0  0  0  0  0  0  0  0  0  0  0  0
    2.8236   -2.6541   37.0956 C   0  0  0  0  0  0  0  0  0  0  0  0
    2.1745   -2.6960   38.3367 C   0  0  0  0  0  0  0  0  0  0  0  0
    2.6949   -1.9574   39.4438 C   0  0  0  0  0  0  0  0  0  0  0  0
    3.1508   -1.3513   40.3231 N   0  0  0  0  0  0  0  0  0  0  0  0
    1.0332   -3.4766   38.4908 C   0  0  0  0  0  0  0  0  0  0  0  0
    0.3800   -3.5154   39.6613 F   0  0  0  0  0  0  0  0  0  0  0  0
    0.5463   -4.2357   37.4368 C   0  0  0  0  0  0  0  0  0  0  0  0
    1.2096   -4.2186   36.2077 C   0  0  0  0  0  0  0  0  0  0  0  0
    0.7365   -5.0000   35.1633 N   0  0  0  0  0  0  0  0  0  0  0  0
   -0.3436   -6.0924   35.1434 C   0  0  0  0  0  0  0  0  0  0  0  0
   -1.0642   -6.4589   35.9844 O   0  0  0  0  0  0  0  0  0  0  0  0
   -0.5325   -6.6958   33.7939 C   0  0  0  0  0  0  0  0  0  0  0  0
   -1.4361   -7.7485   33.7335 C   0  0  0  0  0  0  0  0  0  0  0  0
   -1.7863   -8.2092   32.4918 C   0  0  0  0  0  0  0  0  0  0  0  0
   -3.0549   -9.3031   32.3620 Cl  0  0  0  0  0  0  0  0  0  0  0  0
   -1.2914   -7.7825   31.3163 N   0  0  0  0  0  0  0  0  0  0  0  0
   -0.3532   -6.8169   31.4086 C   0  0  0  0  0  0  0  0  0  0  0  0
    0.0333   -6.2349   32.6070 C   0  0  0  0  0  0  0  0  0  0  0  0
    0.9096   -5.2215   32.5857 F   0  0  0  0  0  0  0  0  0  0  0  0
  1  2  3  0
  2  3  1  0
  3  4  2  0
  4  5  1  0
  5  6  1  0
  6  7  3  0
  5  8  2  0
  8  9  1  0
  8 10  1  0
 10 11  2  0
 11 12  1  0
 12 13  1  0
 13 14  2  0
 13 15  1  0
 15 16  2  0
 16 17  1  0
 17 18  1  0
 17 19  2  0
 19 20  1  0
 20 21  2  0
 21 22  1  0
 11  3  1  0
 21 15  1  0
M  END
>  <ref_mols>  (669) 
7gov-a

>  <gnina_score>  (669) 
5.115

>  <smina_score_min>  (669) 
-5.434

>  <ref_pdb>  (669) 
7gov-a

>  <inspiration_score>  (669) 
None

>  <inchikey>  (669) 
NAWUXTXITKFJKZ-UHFFFAOYSA-N

>  <tags>  (669) 
BulkDock Fragalysis export,openbind_d68ev3c_c2_elabs_scored,openbind_d68ev3c_c2_elabs_scored_4.5plus,openbind_d68ev3c_c2_elabs,openbind_d68ev3c_c2_elabs_scored_5plus,syndirella_product,openbind_d68ev3c_c2_elabs_scored_top80percent,syndirella_placed

>  <smiles>  (669) 
C#Cc1cc(C#N)c(F)cc1NC(=O)c1cc(Cl)ncc1F

>  <subsites>  (669) 
None

>  <rmsd(smina/fragmenstein)>  (669) 
1.32

>  <alias>  (669) 
None

>  <energy_score>  (669) 
-13.826523

>  <HIPPO Pose ID>  (669) 
66558

>  <distance_score>  (669) 
0.841922

>  <HIPPO Compound ID>  (669) 
105071

>  <gnina_score_min>  (669) 
5.065

>  <name>  (669) 
P66558

>  <exports>  (669) 
['/opt/xchem-fragalysis-2/maxwin/BulkDock/OUTPUTS/openbind_d68ev3c_c2_elabs_1LOTQJ3.sdf', '/opt/xchem-fragalysis-2/maxwin/BulkDock/OUTPUTS/openbind_d68ev3c_c2_elabs_1LSYEHW.sdf', '/opt/xchem-fragalysis-2/maxwin/BulkDock/OUTPUTS/openbind_d68ev3c_c2_elabs_1LSYI5W.sdf']

$$$$
P66559
     RDKit          3D

 22 23  0  0  0  0  0  0  0  0999 V2000
    3.8911   -4.8668   34.4628 C   0  0  0  0  0  0  0  0  0  0  0  0
    3.2815   -3.5433   34.8470 C   0  0  0  0  0  0  0  0  0  0  0  0
    3.5089   -2.5105   34.2221 O   0  0  0  0  0  0  0  0  0  0  0  0
    2.4199   -3.4832   36.0473 C   0  0  0  0  0  0  0  0  0  0  0  0
    2.8026   -2.6078   37.0704 C   0  0  0  0  0  0  0  0  0  0  0  0
    2.0802   -2.5868   38.2636 C   0  0  0  0  0  0  0  0  0  0  0  0
    2.6285   -1.4359   39.6603 Br  0  0  0  0  0  0  0  0  0  0  0  0
    0.9723   -3.4147   38.4233 C   0  0  0  0  0  0  0  0  0  0  0  0
    0.2622   -3.4093   39.5611 F   0  0  0  0  0  0  0  0  0  0  0  0
    0.5714   -4.2614   37.3980 C   0  0  0  0  0  0  0  0  0  0  0  0
    1.2935   -4.2988   36.2014 C   0  0  0  0  0  0  0  0  0  0  0  0
    0.8537   -5.1214   35.1724 N   0  0  0  0  0  0  0  0  0  0  0  0
   -0.1732   -6.2640   35.1773 C   0  0  0  0  0  0  0  0  0  0  0  0
   -0.7590   -6.7501   36.0607 O   0  0  0  0  0  0  0  0  0  0  0  0
   -0.4646   -6.7864   33.8111 C   0  0  0  0  0  0  0  0  0  0  0  0
   -1.4138   -7.7985   33.7471 C   0  0  0  0  0  0  0  0  0  0  0  0
   -1.8159   -8.2118   32.5037 C   0  0  0  0  0  0  0  0  0  0  0  0
   -3.1152   -9.2719   32.3818 Cl  0  0  0  0  0  0  0  0  0  0  0  0
   -1.3400   -7.7680   31.3264 N   0  0  0  0  0  0  0  0  0  0  0  0
   -0.3710   -6.8325   31.4171 C   0  0  0  0  0  0  0  0  0  0  0  0
    0.0734   -6.3032   32.6199 C   0  0  0  0  0  0  0  0  0  0  0  0
    0.9938   -5.3293   32.6044 F   0  0  0  0  0  0  0  0  0  0  0  0
  1  2  1  0
  2  3  2  0
  2  4  1  0
  4  5  2  0
  5  6  1  0
  6  7  1  0
  6  8  2  0
  8  9  1  0
  8 10  1  0
 10 11  2  0
 11 12  1  0
 12 13  1  0
 13 14  2  0
 13 15  1  0
 15 16  2  0
 16 17  1  0
 17 18  1  0
 17 19  2  0
 19 20  1  0
 20 21  2  0
 21 22  1  0
 11  4  1  0
 21 15  1  0
M  END
>  <ref_mols>  (670) 
7gov-a

>  <gnina_score>  (670) 
5.168

>  <smina_score_min>  (670) 
-5.274

>  <ref_pdb>  (670) 
7gov-a

>  <inspiration_score>  (670) 
None

>  <inchikey>  (670) 
QDVAPXZSIZVWRA-UHFFFAOYSA-N

>  <tags>  (670) 
BulkDock Fragalysis export,openbind_d68ev3c_c2_elabs_scored,openbind_d68ev3c_c2_elabs_scored_4.5plus,openbind_d68ev3c_c2_elabs,openbind_d68ev3c_c2_elabs_scored_5plus,syndirella_product,openbind_d68ev3c_c2_elabs_scored_top80percent,syndirella_placed

>  <smiles>  (670) 
CC(=O)c1cc(Br)c(F)cc1NC(=O)c1cc(Cl)ncc1F

>  <subsites>  (670) 
None

>  <rmsd(smina/fragmenstein)>  (670) 
1.529

>  <alias>  (670) 
None

>  <energy_score>  (670) 
-21.923812

>  <HIPPO Pose ID>  (670) 
66559

>  <distance_score>  (670) 
0.774717

>  <HIPPO Compound ID>  (670) 
105073

>  <gnina_score_min>  (670) 
5.061

>  <name>  (670) 
P66559

>  <exports>  (670) 
['/opt/xchem-fragalysis-2/maxwin/BulkDock/OUTPUTS/openbind_d68ev3c_c2_elabs_1LOTQJ3.sdf', '/opt/xchem-fragalysis-2/maxwin/BulkDock/OUTPUTS/openbind_d68ev3c_c2_elabs_1LSYEHW.sdf', '/opt/xchem-fragalysis-2/maxwin/BulkDock/OUTPUTS/openbind_d68ev3c_c2_elabs_1LSYI5W.sdf']

$$$$
P66573
     RDKit          3D

 22 23  0  0  0  0  0  0  0  0999 V2000
    3.3848   -4.6427   34.0844 C   0  0  0  0  0  0  0  0  0  0  0  0
    2.6639   -4.3116   34.9854 C   0  0  0  0  0  0  0  0  0  0  0  0
    1.8332   -3.9491   36.0975 C   0  0  0  0  0  0  0  0  0  0  0  0
    2.4103   -3.1921   37.1243 C   0  0  0  0  0  0  0  0  0  0  0  0
    1.6647   -2.8650   38.2541 C   0  0  0  0  0  0  0  0  0  0  0  0
    2.4150   -2.0074   39.5456 Cl  0  0  0  0  0  0  0  0  0  0  0  0
    0.3280   -3.2409   38.3353 C   0  0  0  0  0  0  0  0  0  0  0  0
   -0.3836   -2.9865   39.4426 F   0  0  0  0  0  0  0  0  0  0  0  0
   -0.2739   -3.9184   37.2832 C   0  0  0  0  0  0  0  0  0  0  0  0
   -1.5633   -4.2786   37.3774 F   0  0  0  0  0  0  0  0  0  0  0  0
    0.4759   -4.3060   36.1763 C   0  0  0  0  0  0  0  0  0  0  0  0
   -0.1120   -5.1489   35.2407 N   0  0  0  0  0  0  0  0  0  0  0  0
    0.2478   -6.5830   34.8245 C   0  0  0  0  0  0  0  0  0  0  0  0
    1.0455   -7.3156   35.2521 O   0  0  0  0  0  0  0  0  0  0  0  0
   -0.5436   -7.0496   33.6721 C   0  0  0  0  0  0  0  0  0  0  0  0
   -1.3961   -8.1355   33.8874 C   0  0  0  0  0  0  0  0  0  0  0  0
   -2.0335   -8.6783   32.7904 C   0  0  0  0  0  0  0  0  0  0  0  0
   -1.8645   -8.2333   31.5290 N   0  0  0  0  0  0  0  0  0  0  0  0
   -1.0024   -7.1987   31.3591 C   0  0  0  0  0  0  0  0  0  0  0  0
   -0.8571   -6.7665   30.0968 F   0  0  0  0  0  0  0  0  0  0  0  0
   -0.3363   -6.5531   32.3867 C   0  0  0  0  0  0  0  0  0  0  0  0
    0.6589   -5.1994   32.0261 Cl  0  0  0  0  0  0  0  0  0  0  0  0
  1  2  3  0
  2  3  1  0
  3  4  2  0
  4  5  1  0
  5  6  1  0
  5  7  2  0
  7  8  1  0
  7  9  1  0
  9 10  1  0
  9 11  2  0
 11 12  1  0
 12 13  1  0
 13 14  2  0
 13 15  1  0
 15 16  2  0
 16 17  1  0
 17 18  2  0
 18 19  1  0
 19 20  1  0
 19 21  2  0
 21 22  1  0
 11  3  1  0
 21 15  1  0
M  END
>  <ref_mols>  (671) 
7gov-a

>  <gnina_score>  (671) 
5.26

>  <smina_score_min>  (671) 
-6.07

>  <ref_pdb>  (671) 
7gov-a

>  <inspiration_score>  (671) 
None

>  <inchikey>  (671) 
ZHPQHOKLOFKPGL-UHFFFAOYSA-N

>  <tags>  (671) 
BulkDock Fragalysis export,openbind_d68ev3c_c2_elabs_scored,openbind_d68ev3c_c2_elabs_scored_4.5plus,openbind_d68ev3c_c2_elabs,openbind_d68ev3c_c2_elabs_scored_5plus,syndirella_product,openbind_d68ev3c_c2_elabs_scored_top80percent,syndirella_placed

>  <smiles>  (671) 
C#Cc1cc(Cl)c(F)c(F)c1NC(=O)c1ccnc(F)c1Cl

>  <subsites>  (671) 
None

>  <rmsd(smina/fragmenstein)>  (671) 
0.502

>  <alias>  (671) 
None

>  <energy_score>  (671) 
-0.047833

>  <HIPPO Pose ID>  (671) 
66573

>  <distance_score>  (671) 
0.392948

>  <HIPPO Compound ID>  (671) 
105130

>  <gnina_score_min>  (671) 
5.169

>  <name>  (671) 
P66573

>  <exports>  (671) 
['/opt/xchem-fragalysis-2/maxwin/BulkDock/OUTPUTS/openbind_d68ev3c_c2_elabs_1LOTQJ3.sdf', '/opt/xchem-fragalysis-2/maxwin/BulkDock/OUTPUTS/openbind_d68ev3c_c2_elabs_1LSYEHW.sdf', '/opt/xchem-fragalysis-2/maxwin/BulkDock/OUTPUTS/openbind_d68ev3c_c2_elabs_1LSYI5W.sdf']

$$$$
P66575
     RDKit          3D

 22 23  0  0  0  0  0  0  0  0999 V2000
    4.0882   -3.2749   34.4071 C   0  0  0  0  0  0  0  0  0  0  0  0
    2.6240   -3.6150   34.5042 C   0  0  0  0  0  0  0  0  0  0  0  0
    1.9581   -3.8806   33.5023 O   0  0  0  0  0  0  0  0  0  0  0  0
    1.9756   -3.6084   35.8490 C   0  0  0  0  0  0  0  0  0  0  0  0
    2.4548   -2.7658   36.8612 C   0  0  0  0  0  0  0  0  0  0  0  0
    1.8727   -2.8086   38.1299 C   0  0  0  0  0  0  0  0  0  0  0  0
    2.5341   -1.6722   39.4901 Br  0  0  0  0  0  0  0  0  0  0  0  0
    0.8178   -3.6799   38.3880 C   0  0  0  0  0  0  0  0  0  0  0  0
    0.2373   -3.7162   39.5963 F   0  0  0  0  0  0  0  0  0  0  0  0
    0.3396   -4.5248   37.3939 C   0  0  0  0  0  0  0  0  0  0  0  0
    0.9136   -4.4904   36.1214 C   0  0  0  0  0  0  0  0  0  0  0  0
    0.4469   -5.3423   35.1265 N   0  0  0  0  0  0  0  0  0  0  0  0
   -0.4357   -6.6041   35.2204 C   0  0  0  0  0  0  0  0  0  0  0  0
   -0.8458   -7.1704   36.1520 O   0  0  0  0  0  0  0  0  0  0  0  0
   -0.8151   -7.1631   33.8619 C   0  0  0  0  0  0  0  0  0  0  0  0
   -0.1098   -6.8230   32.6940 C   0  0  0  0  0  0  0  0  0  0  0  0
   -0.5253   -7.3215   31.4678 C   0  0  0  0  0  0  0  0  0  0  0  0
   -1.5685   -8.1533   31.3189 N   0  0  0  0  0  0  0  0  0  0  0  0
   -2.1940   -8.5215   32.4579 C   0  0  0  0  0  0  0  0  0  0  0  0
   -3.2409   -9.3438   32.2950 F   0  0  0  0  0  0  0  0  0  0  0  0
   -1.8811   -8.0665   33.7331 C   0  0  0  0  0  0  0  0  0  0  0  0
   -2.9191   -8.6030   35.0067 Cl  0  0  0  0  0  0  0  0  0  0  0  0
  1  2  1  0
  2  3  2  0
  2  4  1  0
  4  5  2  0
  5  6  1  0
  6  7  1  0
  6  8  2  0
  8  9  1  0
  8 10  1  0
 10 11  2  0
 11 12  1  0
 12 13  1  0
 13 14  2  0
 13 15  1  0
 15 16  2  0
 16 17  1  0
 17 18  2  0
 18 19  1  0
 19 20  1  0
 19 21  2  0
 21 22  1  0
 11  4  1  0
 21 15  1  0
M  END
>  <ref_mols>  (672) 
7gov-a

>  <gnina_score>  (672) 
5.348

>  <smina_score_min>  (672) 
-5.973

>  <ref_pdb>  (672) 
7gov-a

>  <inspiration_score>  (672) 
None

>  <inchikey>  (672) 
FYJFTYHKSLJNPA-UHFFFAOYSA-N

>  <tags>  (672) 
BulkDock Fragalysis export,openbind_d68ev3c_c2_elabs_scored,openbind_d68ev3c_c2_elabs_scored_4.5plus,openbind_d68ev3c_c2_elabs,openbind_d68ev3c_c2_elabs_scored_5plus,syndirella_product,openbind_d68ev3c_c2_elabs_scored_top80percent,syndirella_placed

>  <smiles>  (672) 
CC(=O)c1cc(Br)c(F)cc1NC(=O)c1ccnc(F)c1Cl

>  <subsites>  (672) 
None

>  <rmsd(smina/fragmenstein)>  (672) 
1.106

>  <alias>  (672) 
None

>  <energy_score>  (672) 
-18.933904

>  <HIPPO Pose ID>  (672) 
66575

>  <distance_score>  (672) 
0.648616

>  <HIPPO Compound ID>  (672) 
105133

>  <gnina_score_min>  (672) 
5.241

>  <name>  (672) 
P66575

>  <exports>  (672) 
['/opt/xchem-fragalysis-2/maxwin/BulkDock/OUTPUTS/openbind_d68ev3c_c2_elabs_1LOTQJ3.sdf', '/opt/xchem-fragalysis-2/maxwin/BulkDock/OUTPUTS/openbind_d68ev3c_c2_elabs_1LSYEHW.sdf', '/opt/xchem-fragalysis-2/maxwin/BulkDock/OUTPUTS/openbind_d68ev3c_c2_elabs_1LSYI5W.sdf']

$$$$
P66576
     RDKit          3D

 22 23  0  0  0  0  0  0  0  0999 V2000
    0.0927   -3.6426   39.6419 C   0  0  0  0  0  0  0  0  0  0  0  0
    0.8245   -3.6677   38.3301 C   0  0  0  0  0  0  0  0  0  0  0  0
    0.2937   -4.4299   37.2759 C   0  0  0  0  0  0  0  0  0  0  0  0
    0.9567   -4.5061   36.0485 C   0  0  0  0  0  0  0  0  0  0  0  0
    0.4600   -5.2766   35.0045 N   0  0  0  0  0  0  0  0  0  0  0  0
   -0.6842   -6.3081   34.9777 C   0  0  0  0  0  0  0  0  0  0  0  0
   -1.4426   -6.6193   35.8095 O   0  0  0  0  0  0  0  0  0  0  0  0
   -0.8574   -6.9807   33.6468 C   0  0  0  0  0  0  0  0  0  0  0  0
   -1.5373   -8.2117   33.7010 C   0  0  0  0  0  0  0  0  0  0  0  0
   -1.8853   -8.8402   32.5255 C   0  0  0  0  0  0  0  0  0  0  0  0
   -1.5876   -8.3539   31.3096 N   0  0  0  0  0  0  0  0  0  0  0  0
   -0.8874   -7.1943   31.2758 C   0  0  0  0  0  0  0  0  0  0  0  0
   -0.6362   -6.7063   30.0501 F   0  0  0  0  0  0  0  0  0  0  0  0
   -0.5176   -6.4565   32.3955 C   0  0  0  0  0  0  0  0  0  0  0  0
    0.2203   -4.9213   32.1276 Cl  0  0  0  0  0  0  0  0  0  0  0  0
    2.1335   -3.7831   35.8471 C   0  0  0  0  0  0  0  0  0  0  0  0
    2.7580   -3.8465   34.6603 F   0  0  0  0  0  0  0  0  0  0  0  0
    2.6756   -3.0044   36.8579 C   0  0  0  0  0  0  0  0  0  0  0  0
    2.0235   -2.9632   38.0961 C   0  0  0  0  0  0  0  0  0  0  0  0
    2.6484   -2.1749   39.1509 N   0  0  0  0  0  0  0  0  0  0  0  0
    1.9392   -1.3518   39.7457 O   0  0  0  0  0  0  0  0  0  0  0  0
    3.8539   -2.3657   39.3697 O   0  0  0  0  0  0  0  0  0  0  0  0
  1  2  1  0
  2  3  2  0
  3  4  1  0
  4  5  1  0
  5  6  1  0
  6  7  2  0
  6  8  1  0
  8  9  2  0
  9 10  1  0
 10 11  2  0
 11 12  1  0
 12 13  1  0
 12 14  2  0
 14 15  1  0
  4 16  2  0
 16 17  1  0
 16 18  1  0
 18 19  2  0
 19 20  1  0
 20 21  2  0
 20 22  1  0
 19  2  1  0
 14  8  1  0
M  CHG  2  20   1  22  -1
M  END
>  <ref_mols>  (673) 
7gov-a

>  <gnina_score>  (673) 
4.92

>  <smina_score_min>  (673) 
-5.99

>  <ref_pdb>  (673) 
7gov-a

>  <inspiration_score>  (673) 
None

>  <inchikey>  (673) 
ATDIAAAQRDEGRU-UHFFFAOYSA-N

>  <tags>  (673) 
BulkDock Fragalysis export,openbind_d68ev3c_c2_elabs_scored,openbind_d68ev3c_c2_elabs_scored_4.5plus,openbind_d68ev3c_c2_elabs,openbind_d68ev3c_c2_elabs_scored_5plus,syndirella_product,openbind_d68ev3c_c2_elabs_scored_top80percent,syndirella_placed

>  <smiles>  (673) 
Cc1cc(NC(=O)c2ccnc(F)c2Cl)c(F)cc1[N+](=O)[O-]

>  <subsites>  (673) 
None

>  <rmsd(smina/fragmenstein)>  (673) 
1.102

>  <alias>  (673) 
None

>  <energy_score>  (673) 
-22.62541

>  <HIPPO Pose ID>  (673) 
66576

>  <distance_score>  (673) 
0.72265

>  <HIPPO Compound ID>  (673) 
105139

>  <gnina_score_min>  (673) 
5.018

>  <name>  (673) 
P66576

>  <exports>  (673) 
['/opt/xchem-fragalysis-2/maxwin/BulkDock/OUTPUTS/openbind_d68ev3c_c2_elabs_1LOTQJ3.sdf', '/opt/xchem-fragalysis-2/maxwin/BulkDock/OUTPUTS/openbind_d68ev3c_c2_elabs_1LSYEHW.sdf', '/opt/xchem-fragalysis-2/maxwin/BulkDock/OUTPUTS/openbind_d68ev3c_c2_elabs_1LSYI5W.sdf']

$$$$
P66579
     RDKit          3D

 22 23  0  0  0  0  0  0  0  0999 V2000
   -1.5354   -6.5504   35.8065 O   0  0  0  0  0  0  0  0  0  0  0  0
   -0.6935   -6.3494   35.0214 C   0  0  0  0  0  0  0  0  0  0  0  0
    0.5656   -5.4590   35.1094 N   0  0  0  0  0  0  0  0  0  0  0  0
    0.9907   -4.5825   36.1139 C   0  0  0  0  0  0  0  0  0  0  0  0
    0.2513   -4.4865   37.2991 C   0  0  0  0  0  0  0  0  0  0  0  0
    0.6529   -3.6168   38.3059 C   0  0  0  0  0  0  0  0  0  0  0  0
   -0.0533   -3.5505   39.4423 F   0  0  0  0  0  0  0  0  0  0  0  0
    1.7722   -2.8151   38.1528 C   0  0  0  0  0  0  0  0  0  0  0  0
    2.5079   -2.8927   36.9725 C   0  0  0  0  0  0  0  0  0  0  0  0
    2.1385   -3.7857   35.9441 C   0  0  0  0  0  0  0  0  0  0  0  0
    2.9773   -3.8121   34.6934 C   0  0  0  0  0  0  0  0  0  0  0  0
    2.9469   -5.0029   34.0323 F   0  0  0  0  0  0  0  0  0  0  0  0
    2.5594   -2.8834   33.7856 F   0  0  0  0  0  0  0  0  0  0  0  0
    4.2958   -3.5394   34.9076 F   0  0  0  0  0  0  0  0  0  0  0  0
   -0.8616   -7.0313   33.6972 C   0  0  0  0  0  0  0  0  0  0  0  0
   -1.5518   -8.2530   33.7660 C   0  0  0  0  0  0  0  0  0  0  0  0
   -1.9032   -8.8856   32.5972 C   0  0  0  0  0  0  0  0  0  0  0  0
   -1.5889   -8.4176   31.3796 N   0  0  0  0  0  0  0  0  0  0  0  0
   -0.8738   -7.2632   31.3215 C   0  0  0  0  0  0  0  0  0  0  0  0
   -0.4758   -6.7140   29.5399 Br  0  0  0  0  0  0  0  0  0  0  0  0
   -0.5170   -6.5080   32.4418 C   0  0  0  0  0  0  0  0  0  0  0  0
    0.1929   -4.9437   32.2444 Cl  0  0  0  0  0  0  0  0  0  0  0  0
  1  2  2  0
  2  3  1  0
  3  4  1  0
  4  5  2  0
  5  6  1  0
  6  7  1  0
  6  8  2  0
  8  9  1  0
  9 10  2  0
 10 11  1  0
 11 12  1  0
 11 13  1  0
 11 14  1  0
  2 15  1  0
 15 16  2  0
 16 17  1  0
 17 18  2  0
 18 19  1  0
 19 20  1  0
 19 21  2  0
 21 22  1  0
 10  4  1  0
 21 15  1  0
M  END
>  <ref_mols>  (674) 
7gov-a

>  <gnina_score>  (674) 
5.164

>  <smina_score_min>  (674) 
-5.903

>  <ref_pdb>  (674) 
7gov-a

>  <inspiration_score>  (674) 
None

>  <inchikey>  (674) 
ILKNINHDJWZUED-UHFFFAOYSA-N

>  <tags>  (674) 
BulkDock Fragalysis export,openbind_d68ev3c_c2_elabs_scored,openbind_d68ev3c_c2_elabs_scored_4.5plus,openbind_d68ev3c_c2_elabs,openbind_d68ev3c_c2_elabs_scored_5plus,syndirella_product,openbind_d68ev3c_c2_elabs_scored_top80percent,syndirella_placed

>  <smiles>  (674) 
O=C(Nc1cc(F)ccc1C(F)(F)F)c1ccnc(Br)c1Cl

>  <subsites>  (674) 
None

>  <rmsd(smina/fragmenstein)>  (674) 
1.091

>  <alias>  (674) 
None

>  <energy_score>  (674) 
-19.548983

>  <HIPPO Pose ID>  (674) 
66579

>  <distance_score>  (674) 
0.757671

>  <HIPPO Compound ID>  (674) 
105148

>  <gnina_score_min>  (674) 
5.124

>  <name>  (674) 
P66579

>  <exports>  (674) 
['/opt/xchem-fragalysis-2/maxwin/BulkDock/OUTPUTS/openbind_d68ev3c_c2_elabs_1LOTQJ3.sdf', '/opt/xchem-fragalysis-2/maxwin/BulkDock/OUTPUTS/openbind_d68ev3c_c2_elabs_1LSYEHW.sdf', '/opt/xchem-fragalysis-2/maxwin/BulkDock/OUTPUTS/openbind_d68ev3c_c2_elabs_1LSYI5W.sdf']

$$$$
P66581
     RDKit          3D

 22 23  0  0  0  0  0  0  0  0999 V2000
    3.4456   -3.8906   33.6167 C   0  0  0  0  0  0  0  0  0  0  0  0
    2.8300   -3.8532   34.6471 C   0  0  0  0  0  0  0  0  0  0  0  0
    2.1027   -3.8071   35.8852 C   0  0  0  0  0  0  0  0  0  0  0  0
    2.5595   -2.9221   36.8720 C   0  0  0  0  0  0  0  0  0  0  0  0
    1.9112   -2.8537   38.1025 C   0  0  0  0  0  0  0  0  0  0  0  0
    2.5002   -1.7759   39.3098 Cl  0  0  0  0  0  0  0  0  0  0  0  0
    0.8043   -3.6557   38.3466 C   0  0  0  0  0  0  0  0  0  0  0  0
    0.1735   -3.6033   39.5307 F   0  0  0  0  0  0  0  0  0  0  0  0
    0.3398   -4.5303   37.3682 C   0  0  0  0  0  0  0  0  0  0  0  0
   -0.7086   -5.3004   37.6840 F   0  0  0  0  0  0  0  0  0  0  0  0
    0.9761   -4.6236   36.1225 C   0  0  0  0  0  0  0  0  0  0  0  0
    0.5396   -5.4830   35.0984 N   0  0  0  0  0  0  0  0  0  0  0  0
   -0.7148   -6.3775   35.0065 C   0  0  0  0  0  0  0  0  0  0  0  0
   -1.5442   -6.6016   35.7973 O   0  0  0  0  0  0  0  0  0  0  0  0
   -0.8844   -7.0472   33.6773 C   0  0  0  0  0  0  0  0  0  0  0  0
   -1.5720   -8.2708   33.7397 C   0  0  0  0  0  0  0  0  0  0  0  0
   -1.9160   -8.9007   32.5682 C   0  0  0  0  0  0  0  0  0  0  0  0
   -1.5950   -8.4288   31.3539 N   0  0  0  0  0  0  0  0  0  0  0  0
   -0.8839   -7.2723   31.3020 C   0  0  0  0  0  0  0  0  0  0  0  0
   -0.4784   -6.7186   29.5233 Br  0  0  0  0  0  0  0  0  0  0  0  0
   -0.5349   -6.5195   32.4255 C   0  0  0  0  0  0  0  0  0  0  0  0
    0.1765   -4.9556   32.2337 Cl  0  0  0  0  0  0  0  0  0  0  0  0
  1  2  3  0
  2  3  1  0
  3  4  2  0
  4  5  1  0
  5  6  1  0
  5  7  2  0
  7  8  1  0
  7  9  1  0
  9 10  1  0
  9 11  2  0
 11 12  1  0
 12 13  1  0
 13 14  2  0
 13 15  1  0
 15 16  2  0
 16 17  1  0
 17 18  2  0
 18 19  1  0
 19 20  1  0
 19 21  2  0
 21 22  1  0
 11  3  1  0
 21 15  1  0
M  END
>  <ref_mols>  (675) 
7gov-a

>  <gnina_score>  (675) 
5.554

>  <smina_score_min>  (675) 
-5.443

>  <ref_pdb>  (675) 
7gov-a

>  <inspiration_score>  (675) 
None

>  <inchikey>  (675) 
SHBLBBKUMQHZGB-UHFFFAOYSA-N

>  <tags>  (675) 
BulkDock Fragalysis export,openbind_d68ev3c_c2_elabs_scored,openbind_d68ev3c_c2_elabs_scored_4.5plus,openbind_d68ev3c_c2_elabs,openbind_d68ev3c_c2_elabs_scored_5plus,syndirella_product,openbind_d68ev3c_c2_elabs_scored_top80percent,syndirella_placed

>  <smiles>  (675) 
C#Cc1cc(Cl)c(F)c(F)c1NC(=O)c1ccnc(Br)c1Cl

>  <subsites>  (675) 
None

>  <rmsd(smina/fragmenstein)>  (675) 
0.764

>  <alias>  (675) 
None

>  <energy_score>  (675) 
-14.183669

>  <HIPPO Pose ID>  (675) 
66581

>  <distance_score>  (675) 
0.756685

>  <HIPPO Compound ID>  (675) 
105155

>  <gnina_score_min>  (675) 
5.4

>  <name>  (675) 
P66581

>  <exports>  (675) 
['/opt/xchem-fragalysis-2/maxwin/BulkDock/OUTPUTS/openbind_d68ev3c_c2_elabs_1LOTQJ3.sdf', '/opt/xchem-fragalysis-2/maxwin/BulkDock/OUTPUTS/openbind_d68ev3c_c2_elabs_1LSYEHW.sdf', '/opt/xchem-fragalysis-2/maxwin/BulkDock/OUTPUTS/openbind_d68ev3c_c2_elabs_1LSYI5W.sdf']

$$$$
P66582
     RDKit          3D

 22 23  0  0  0  0  0  0  0  0999 V2000
    3.3347   -2.6296   33.5243 C   0  0  0  0  0  0  0  0  0  0  0  0
    2.8181   -2.8192   34.5918 C   0  0  0  0  0  0  0  0  0  0  0  0
    2.2065   -3.0351   35.8708 C   0  0  0  0  0  0  0  0  0  0  0  0
    2.6258   -2.2927   36.9781 C   0  0  0  0  0  0  0  0  0  0  0  0
    2.0792   -2.5446   38.2464 C   0  0  0  0  0  0  0  0  0  0  0  0
    2.5197   -1.7928   39.3793 C   0  0  0  0  0  0  0  0  0  0  0  0
    2.9039   -1.1625   40.2756 N   0  0  0  0  0  0  0  0  0  0  0  0
    1.1141   -3.5359   38.3985 C   0  0  0  0  0  0  0  0  0  0  0  0
    0.5379   -3.7578   39.5891 F   0  0  0  0  0  0  0  0  0  0  0  0
    0.7203   -4.3052   37.3148 C   0  0  0  0  0  0  0  0  0  0  0  0
    1.2645   -4.0465   36.0547 C   0  0  0  0  0  0  0  0  0  0  0  0
    0.8499   -4.8269   34.9944 N   0  0  0  0  0  0  0  0  0  0  0  0
    0.5769   -6.3304   34.9134 C   0  0  0  0  0  0  0  0  0  0  0  0
    0.7302   -7.1683   35.7049 O   0  0  0  0  0  0  0  0  0  0  0  0
   -0.0712   -6.6930   33.6351 C   0  0  0  0  0  0  0  0  0  0  0  0
    0.4462   -6.2753   32.4055 C   0  0  0  0  0  0  0  0  0  0  0  0
   -0.1634   -6.7309   31.2507 C   0  0  0  0  0  0  0  0  0  0  0  0
   -1.2232   -7.5580   31.2504 N   0  0  0  0  0  0  0  0  0  0  0  0
   -1.6796   -7.9480   32.4642 C   0  0  0  0  0  0  0  0  0  0  0  0
   -3.0765   -9.1801   32.4134 Br  0  0  0  0  0  0  0  0  0  0  0  0
   -1.1844   -7.5223   33.6818 C   0  0  0  0  0  0  0  0  0  0  0  0
   -1.9786   -7.9334   35.1650 Cl  0  0  0  0  0  0  0  0  0  0  0  0
  1  2  3  0
  2  3  1  0
  3  4  2  0
  4  5  1  0
  5  6  1  0
  6  7  3  0
  5  8  2  0
  8  9  1  0
  8 10  1  0
 10 11  2  0
 11 12  1  0
 12 13  1  0
 13 14  2  0
 13 15  1  0
 15 16  2  0
 16 17  1  0
 17 18  2  0
 18 19  1  0
 19 20  1  0
 19 21  2  0
 21 22  1  0
 11  3  1  0
 21 15  1  0
M  END
>  <ref_mols>  (676) 
7gov-a

>  <gnina_score>  (676) 
5.222

>  <smina_score_min>  (676) 
-4.819

>  <ref_pdb>  (676) 
7gov-a

>  <inspiration_score>  (676) 
None

>  <inchikey>  (676) 
ZAUVHZRPGGHQGA-UHFFFAOYSA-N

>  <tags>  (676) 
BulkDock Fragalysis export,openbind_d68ev3c_c2_elabs_scored,openbind_d68ev3c_c2_elabs_scored_4.5plus,openbind_d68ev3c_c2_elabs,openbind_d68ev3c_c2_elabs_scored_5plus,syndirella_product,openbind_d68ev3c_c2_elabs_scored_top80percent,syndirella_placed

>  <smiles>  (676) 
C#Cc1cc(C#N)c(F)cc1NC(=O)c1ccnc(Br)c1Cl

>  <subsites>  (676) 
None

>  <rmsd(smina/fragmenstein)>  (676) 
1.723

>  <alias>  (676) 
None

>  <energy_score>  (676) 
-2.238061

>  <HIPPO Pose ID>  (676) 
66582

>  <distance_score>  (676) 
0.782987

>  <HIPPO Compound ID>  (676) 
105156

>  <gnina_score_min>  (676) 
5.037

>  <name>  (676) 
P66582

>  <exports>  (676) 
['/opt/xchem-fragalysis-2/maxwin/BulkDock/OUTPUTS/openbind_d68ev3c_c2_elabs_1LOTQJ3.sdf', '/opt/xchem-fragalysis-2/maxwin/BulkDock/OUTPUTS/openbind_d68ev3c_c2_elabs_1LSYEHW.sdf', '/opt/xchem-fragalysis-2/maxwin/BulkDock/OUTPUTS/openbind_d68ev3c_c2_elabs_1LSYI5W.sdf']

$$$$
P66583
     RDKit          3D

 22 23  0  0  0  0  0  0  0  0999 V2000
    4.4381   -3.4275   34.7295 C   0  0  0  0  0  0  0  0  0  0  0  0
    3.0349   -3.9784   34.7265 C   0  0  0  0  0  0  0  0  0  0  0  0
    2.5951   -4.5501   33.7302 O   0  0  0  0  0  0  0  0  0  0  0  0
    2.1815   -3.8200   35.9501 C   0  0  0  0  0  0  0  0  0  0  0  0
    2.6197   -3.0046   37.0074 C   0  0  0  0  0  0  0  0  0  0  0  0
    1.8711   -2.9129   38.1819 C   0  0  0  0  0  0  0  0  0  0  0  0
    2.5097   -1.8471   39.6085 Br  0  0  0  0  0  0  0  0  0  0  0  0
    0.6754   -3.6097   38.3012 C   0  0  0  0  0  0  0  0  0  0  0  0
   -0.0518   -3.5364   39.4255 F   0  0  0  0  0  0  0  0  0  0  0  0
    0.2078   -4.3922   37.2523 C   0  0  0  0  0  0  0  0  0  0  0  0
    0.9530   -4.5061   36.0727 C   0  0  0  0  0  0  0  0  0  0  0  0
    0.4491   -5.2736   35.0203 N   0  0  0  0  0  0  0  0  0  0  0  0
   -0.7389   -6.2585   34.9763 C   0  0  0  0  0  0  0  0  0  0  0  0
   -1.5317   -6.5261   35.7924 O   0  0  0  0  0  0  0  0  0  0  0  0
   -0.8996   -6.9608   33.6618 C   0  0  0  0  0  0  0  0  0  0  0  0
   -1.5061   -8.2250   33.7601 C   0  0  0  0  0  0  0  0  0  0  0  0
   -1.8303   -8.9006   32.6078 C   0  0  0  0  0  0  0  0  0  0  0  0
   -1.5482   -8.4437   31.3787 N   0  0  0  0  0  0  0  0  0  0  0  0
   -0.9080   -7.2474   31.2927 C   0  0  0  0  0  0  0  0  0  0  0  0
   -0.5053   -6.7382   29.4994 Br  0  0  0  0  0  0  0  0  0  0  0  0
   -0.6192   -6.4353   32.3926 C   0  0  0  0  0  0  0  0  0  0  0  0
   -0.1254   -4.7976   32.1476 Cl  0  0  0  0  0  0  0  0  0  0  0  0
  1  2  1  0
  2  3  2  0
  2  4  1  0
  4  5  2  0
  5  6  1  0
  6  7  1  0
  6  8  2  0
  8  9  1  0
  8 10  1  0
 10 11  2  0
 11 12  1  0
 12 13  1  0
 13 14  2  0
 13 15  1  0
 15 16  2  0
 16 17  1  0
 17 18  2  0
 18 19  1  0
 19 20  1  0
 19 21  2  0
 21 22  1  0
 11  4  1  0
 21 15  1  0
M  END
>  <ref_mols>  (677) 
7gov-a

>  <gnina_score>  (677) 
5.341

>  <smina_score_min>  (677) 
-6.211

>  <ref_pdb>  (677) 
7gov-a

>  <inspiration_score>  (677) 
None

>  <inchikey>  (677) 
QZKORSCJXCGAEK-UHFFFAOYSA-N

>  <tags>  (677) 
BulkDock Fragalysis export,openbind_d68ev3c_c2_elabs_scored,openbind_d68ev3c_c2_elabs_scored_4.5plus,openbind_d68ev3c_c2_elabs,openbind_d68ev3c_c2_elabs_scored_5plus,syndirella_product,openbind_d68ev3c_c2_elabs_scored_top80percent,syndirella_placed

>  <smiles>  (677) 
CC(=O)c1cc(Br)c(F)cc1NC(=O)c1ccnc(Br)c1Cl

>  <subsites>  (677) 
None

>  <rmsd(smina/fragmenstein)>  (677) 
1.216

>  <alias>  (677) 
None

>  <energy_score>  (677) 
-0.284474

>  <HIPPO Pose ID>  (677) 
66583

>  <distance_score>  (677) 
0.755073

>  <HIPPO Compound ID>  (677) 
105158

>  <gnina_score_min>  (677) 
5.257

>  <name>  (677) 
P66583

>  <exports>  (677) 
['/opt/xchem-fragalysis-2/maxwin/BulkDock/OUTPUTS/openbind_d68ev3c_c2_elabs_1LOTQJ3.sdf', '/opt/xchem-fragalysis-2/maxwin/BulkDock/OUTPUTS/openbind_d68ev3c_c2_elabs_1LSYEHW.sdf', '/opt/xchem-fragalysis-2/maxwin/BulkDock/OUTPUTS/openbind_d68ev3c_c2_elabs_1LSYI5W.sdf']

$$$$
P66584
     RDKit          3D

 22 23  0  0  0  0  0  0  0  0999 V2000
    0.4851   -3.7448   39.7312 C   0  0  0  0  0  0  0  0  0  0  0  0
    1.1299   -3.4947   38.3989 C   0  0  0  0  0  0  0  0  0  0  0  0
    0.7424   -4.2793   37.3070 C   0  0  0  0  0  0  0  0  0  0  0  0
    1.2801   -4.0447   36.0381 C   0  0  0  0  0  0  0  0  0  0  0  0
    0.8676   -4.8264   34.9828 N   0  0  0  0  0  0  0  0  0  0  0  0
    0.5690   -6.3254   34.9130 C   0  0  0  0  0  0  0  0  0  0  0  0
    0.6962   -7.1577   35.7150 O   0  0  0  0  0  0  0  0  0  0  0  0
   -0.0684   -6.6944   33.6304 C   0  0  0  0  0  0  0  0  0  0  0  0
    0.4505   -6.2793   32.4009 C   0  0  0  0  0  0  0  0  0  0  0  0
   -0.1587   -6.7354   31.2458 C   0  0  0  0  0  0  0  0  0  0  0  0
   -1.2192   -7.5619   31.2445 N   0  0  0  0  0  0  0  0  0  0  0  0
   -1.6774   -7.9498   32.4580 C   0  0  0  0  0  0  0  0  0  0  0  0
   -3.0750   -9.1812   32.4084 Br  0  0  0  0  0  0  0  0  0  0  0  0
   -1.1839   -7.5223   33.6755 C   0  0  0  0  0  0  0  0  0  0  0  0
   -1.9873   -7.9295   35.1564 Cl  0  0  0  0  0  0  0  0  0  0  0  0
    2.2183   -3.0477   35.8344 C   0  0  0  0  0  0  0  0  0  0  0  0
    2.7495   -2.8821   34.6135 F   0  0  0  0  0  0  0  0  0  0  0  0
    2.6738   -2.2952   36.9038 C   0  0  0  0  0  0  0  0  0  0  0  0
    2.1361   -2.5346   38.1800 C   0  0  0  0  0  0  0  0  0  0  0  0
    2.6686   -1.7418   39.2815 N   0  0  0  0  0  0  0  0  0  0  0  0
    3.0150   -2.3368   40.3112 O   0  0  0  0  0  0  0  0  0  0  0  0
    2.7569   -0.5187   39.1008 O   0  0  0  0  0  0  0  0  0  0  0  0
  1  2  1  0
  2  3  2  0
  3  4  1  0
  4  5  1  0
  5  6  1  0
  6  7  2  0
  6  8  1  0
  8  9  2  0
  9 10  1  0
 10 11  2  0
 11 12  1  0
 12 13  1  0
 12 14  2  0
 14 15  1  0
  4 16  2  0
 16 17  1  0
 16 18  1  0
 18 19  2  0
 19 20  1  0
 20 21  2  0
 20 22  1  0
 19  2  1  0
 14  8  1  0
M  CHG  2  20   1  22  -1
M  END
>  <ref_mols>  (678) 
7gov-a

>  <gnina_score>  (678) 
5.097

>  <smina_score_min>  (678) 
-5.247

>  <ref_pdb>  (678) 
7gov-a

>  <inspiration_score>  (678) 
None

>  <inchikey>  (678) 
QUYOQGHJZMPSJW-UHFFFAOYSA-N

>  <tags>  (678) 
BulkDock Fragalysis export,openbind_d68ev3c_c2_elabs_scored,openbind_d68ev3c_c2_elabs_scored_4.5plus,openbind_d68ev3c_c2_elabs,openbind_d68ev3c_c2_elabs_scored_5plus,syndirella_product,openbind_d68ev3c_c2_elabs_scored_top80percent,syndirella_placed

>  <smiles>  (678) 
Cc1cc(NC(=O)c2ccnc(Br)c2Cl)c(F)cc1[N+](=O)[O-]

>  <subsites>  (678) 
None

>  <rmsd(smina/fragmenstein)>  (678) 
2.067

>  <alias>  (678) 
None

>  <energy_score>  (678) 
-20.667214

>  <HIPPO Pose ID>  (678) 
66584

>  <distance_score>  (678) 
0.783008

>  <HIPPO Compound ID>  (678) 
105164

>  <gnina_score_min>  (678) 
5.002

>  <name>  (678) 
P66584

>  <exports>  (678) 
['/opt/xchem-fragalysis-2/maxwin/BulkDock/OUTPUTS/openbind_d68ev3c_c2_elabs_1LOTQJ3.sdf', '/opt/xchem-fragalysis-2/maxwin/BulkDock/OUTPUTS/openbind_d68ev3c_c2_elabs_1LSYEHW.sdf', '/opt/xchem-fragalysis-2/maxwin/BulkDock/OUTPUTS/openbind_d68ev3c_c2_elabs_1LSYI5W.sdf']

$$$$
P66585
     RDKit          3D

 22 23  0  0  0  0  0  0  0  0999 V2000
    2.9812   -3.8037   35.0914 C   0  0  0  0  0  0  0  0  0  0  0  0
    2.0951   -3.5713   36.2914 C   0  0  0  0  0  0  0  0  0  0  0  0
    0.7457   -3.9790   36.3100 C   0  0  0  0  0  0  0  0  0  0  0  0
    0.2394   -4.8013   35.3249 N   0  0  0  0  0  0  0  0  0  0  0  0
    0.7088   -6.1774   34.8377 C   0  0  0  0  0  0  0  0  0  0  0  0
    1.5499   -6.8729   35.2392 O   0  0  0  0  0  0  0  0  0  0  0  0
   -0.0261   -6.5703   33.6276 C   0  0  0  0  0  0  0  0  0  0  0  0
    0.4331   -6.1310   32.3844 C   0  0  0  0  0  0  0  0  0  0  0  0
   -0.1932   -6.6167   31.2540 C   0  0  0  0  0  0  0  0  0  0  0  0
   -1.2243   -7.4790   31.2979 N   0  0  0  0  0  0  0  0  0  0  0  0
   -1.6167   -7.8914   32.5289 C   0  0  0  0  0  0  0  0  0  0  0  0
   -2.9829   -9.1606   32.5034 Br  0  0  0  0  0  0  0  0  0  0  0  0
   -1.0819   -7.4540   33.7278 C   0  0  0  0  0  0  0  0  0  0  0  0
   -1.7049   -7.9181   35.2634 Cl  0  0  0  0  0  0  0  0  0  0  0  0
   -0.0852   -3.7364   37.4013 C   0  0  0  0  0  0  0  0  0  0  0  0
    0.4494   -3.1411   38.5313 C   0  0  0  0  0  0  0  0  0  0  0  0
   -0.3122   -3.0119   39.6231 F   0  0  0  0  0  0  0  0  0  0  0  0
    1.7641   -2.7072   38.5656 C   0  0  0  0  0  0  0  0  0  0  0  0
    2.5724   -2.9028   37.4392 C   0  0  0  0  0  0  0  0  0  0  0  0
    3.9367   -2.3785   37.5150 N   0  0  0  0  0  0  0  0  0  0  0  0
    4.5581   -2.5382   38.5784 O   0  0  0  0  0  0  0  0  0  0  0  0
    4.3616   -1.7386   36.5422 O   0  0  0  0  0  0  0  0  0  0  0  0
  1  2  1  0
  2  3  2  0
  3  4  1  0
  4  5  1  0
  5  6  2  0
  5  7  1  0
  7  8  2  0
  8  9  1  0
  9 10  2  0
 10 11  1  0
 11 12  1  0
 11 13  2  0
 13 14  1  0
  3 15  1  0
 15 16  2  0
 16 17  1  0
 16 18  1  0
 18 19  2  0
 19 20  1  0
 20 21  2  0
 20 22  1  0
 19  2  1  0
 13  7  1  0
M  CHG  2  20   1  22  -1
M  END
>  <ref_mols>  (679) 
7gov-a

>  <gnina_score>  (679) 
5.167

>  <smina_score_min>  (679) 
-4.669

>  <ref_pdb>  (679) 
7gov-a

>  <inspiration_score>  (679) 
None

>  <inchikey>  (679) 
CRSOLBMRUPFXLY-UHFFFAOYSA-N

>  <tags>  (679) 
BulkDock Fragalysis export,openbind_d68ev3c_c2_elabs_scored,openbind_d68ev3c_c2_elabs_scored_4.5plus,openbind_d68ev3c_c2_elabs,openbind_d68ev3c_c2_elabs_scored_5plus,syndirella_product,openbind_d68ev3c_c2_elabs_scored_top80percent,syndirella_placed

>  <smiles>  (679) 
Cc1c(NC(=O)c2ccnc(Br)c2Cl)cc(F)cc1[N+](=O)[O-]

>  <subsites>  (679) 
None

>  <rmsd(smina/fragmenstein)>  (679) 
1.231

>  <alias>  (679) 
None

>  <energy_score>  (679) 
-11.983849

>  <HIPPO Pose ID>  (679) 
66585

>  <distance_score>  (679) 
0.756637

>  <HIPPO Compound ID>  (679) 
105165

>  <gnina_score_min>  (679) 
5.184

>  <name>  (679) 
P66585

>  <exports>  (679) 
['/opt/xchem-fragalysis-2/maxwin/BulkDock/OUTPUTS/openbind_d68ev3c_c2_elabs_1LOTQJ3.sdf', '/opt/xchem-fragalysis-2/maxwin/BulkDock/OUTPUTS/openbind_d68ev3c_c2_elabs_1LSYEHW.sdf', '/opt/xchem-fragalysis-2/maxwin/BulkDock/OUTPUTS/openbind_d68ev3c_c2_elabs_1LSYI5W.sdf']

$$$$
P66586
     RDKit          3D

 22 23  0  0  0  0  0  0  0  0999 V2000
    3.8444   -4.3189   34.3265 C   0  0  0  0  0  0  0  0  0  0  0  0
    3.0610   -3.1007   34.7412 C   0  0  0  0  0  0  0  0  0  0  0  0
    3.0686   -2.0546   34.0991 O   0  0  0  0  0  0  0  0  0  0  0  0
    2.2690   -3.1747   35.9826 C   0  0  0  0  0  0  0  0  0  0  0  0
    2.6362   -2.3729   37.0679 C   0  0  0  0  0  0  0  0  0  0  0  0
    1.9860   -2.5307   38.2957 C   0  0  0  0  0  0  0  0  0  0  0  0
    0.9862   -3.4910   38.4308 C   0  0  0  0  0  0  0  0  0  0  0  0
    0.3527   -3.6222   39.6046 F   0  0  0  0  0  0  0  0  0  0  0  0
    0.6242   -4.2857   37.3527 C   0  0  0  0  0  0  0  0  0  0  0  0
   -0.3771   -5.1693   37.4918 F   0  0  0  0  0  0  0  0  0  0  0  0
    1.2482   -4.1104   36.1145 C   0  0  0  0  0  0  0  0  0  0  0  0
    0.8246   -4.8593   35.0317 N   0  0  0  0  0  0  0  0  0  0  0  0
    0.6535   -6.3705   34.8747 C   0  0  0  0  0  0  0  0  0  0  0  0
    0.9133   -7.2380   35.6031 O   0  0  0  0  0  0  0  0  0  0  0  0
   -0.0437   -6.6970   33.6144 C   0  0  0  0  0  0  0  0  0  0  0  0
    0.4453   -6.2620   32.3797 C   0  0  0  0  0  0  0  0  0  0  0  0
   -0.1865   -6.7097   31.2343 C   0  0  0  0  0  0  0  0  0  0  0  0
   -1.2435   -7.5404   31.2499 N   0  0  0  0  0  0  0  0  0  0  0  0
   -1.6772   -7.9392   32.4703 C   0  0  0  0  0  0  0  0  0  0  0  0
   -3.0735   -9.1729   32.4333 Br  0  0  0  0  0  0  0  0  0  0  0  0
   -1.1555   -7.5242   33.6804 C   0  0  0  0  0  0  0  0  0  0  0  0
   -1.9037   -7.9433   35.1817 Cl  0  0  0  0  0  0  0  0  0  0  0  0
  1  2  1  0
  2  3  2  0
  2  4  1  0
  4  5  2  0
  5  6  1  0
  6  7  2  0
  7  8  1  0
  7  9  1  0
  9 10  1  0
  9 11  2  0
 11 12  1  0
 12 13  1  0
 13 14  2  0
 13 15  1  0
 15 16  2  0
 16 17  1  0
 17 18  2  0
 18 19  1  0
 19 20  1  0
 19 21  2  0
 21 22  1  0
 11  4  1  0
 21 15  1  0
M  END
>  <ref_mols>  (680) 
7gov-a

>  <gnina_score>  (680) 
5.346

>  <smina_score_min>  (680) 
-4.669

>  <ref_pdb>  (680) 
7gov-a

>  <inspiration_score>  (680) 
None

>  <inchikey>  (680) 
CGLPKSWGMKNRBU-UHFFFAOYSA-N

>  <tags>  (680) 
BulkDock Fragalysis export,openbind_d68ev3c_c2_elabs_scored,openbind_d68ev3c_c2_elabs_scored_4.5plus,openbind_d68ev3c_c2_elabs,openbind_d68ev3c_c2_elabs_scored_5plus,syndirella_product,openbind_d68ev3c_c2_elabs_scored_top80percent,syndirella_placed

>  <smiles>  (680) 
CC(=O)c1ccc(F)c(F)c1NC(=O)c1ccnc(Br)c1Cl

>  <subsites>  (680) 
None

>  <rmsd(smina/fragmenstein)>  (680) 
0.781

>  <alias>  (680) 
None

>  <energy_score>  (680) 
-4.849171

>  <HIPPO Pose ID>  (680) 
66586

>  <distance_score>  (680) 
0.733204

>  <HIPPO Compound ID>  (680) 
105166

>  <gnina_score_min>  (680) 
5.268

>  <name>  (680) 
P66586

>  <exports>  (680) 
['/opt/xchem-fragalysis-2/maxwin/BulkDock/OUTPUTS/openbind_d68ev3c_c2_elabs_1LOTQJ3.sdf', '/opt/xchem-fragalysis-2/maxwin/BulkDock/OUTPUTS/openbind_d68ev3c_c2_elabs_1LSYEHW.sdf', '/opt/xchem-fragalysis-2/maxwin/BulkDock/OUTPUTS/openbind_d68ev3c_c2_elabs_1LSYI5W.sdf']

$$$$
P66587
     RDKit          3D

 22 23  0  0  0  0  0  0  0  0999 V2000
    2.3794   -1.1001   32.7338 C   0  0  0  0  0  0  0  0  0  0  0  0
    2.1581   -1.5224   34.0806 O   0  0  0  0  0  0  0  0  0  0  0  0
    1.3717   -2.6222   34.1952 C   0  0  0  0  0  0  0  0  0  0  0  0
    0.8626   -3.2280   33.2612 O   0  0  0  0  0  0  0  0  0  0  0  0
    1.1935   -3.0053   35.6286 C   0  0  0  0  0  0  0  0  0  0  0  0
    1.7174   -2.2095   36.6636 C   0  0  0  0  0  0  0  0  0  0  0  0
    1.5085   -2.5574   38.0000 C   0  0  0  0  0  0  0  0  0  0  0  0
    0.7867   -3.7024   38.3039 C   0  0  0  0  0  0  0  0  0  0  0  0
    0.5166   -3.9906   39.5836 F   0  0  0  0  0  0  0  0  0  0  0  0
    0.3139   -4.5359   37.2996 C   0  0  0  0  0  0  0  0  0  0  0  0
    0.5181   -4.1962   35.9599 C   0  0  0  0  0  0  0  0  0  0  0  0
    0.0278   -5.0456   34.9707 N   0  0  0  0  0  0  0  0  0  0  0  0
   -0.2193   -6.5683   34.9895 C   0  0  0  0  0  0  0  0  0  0  0  0
   -0.1242   -7.3383   35.8594 O   0  0  0  0  0  0  0  0  0  0  0  0
   -0.7079   -7.0739   33.6732 C   0  0  0  0  0  0  0  0  0  0  0  0
   -0.1386   -6.6104   32.4838 C   0  0  0  0  0  0  0  0  0  0  0  0
   -0.6579   -7.0821   31.2947 C   0  0  0  0  0  0  0  0  0  0  0  0
   -0.2086   -6.3790   29.8015 Cl  0  0  0  0  0  0  0  0  0  0  0  0
   -1.6329   -8.0119   31.1965 N   0  0  0  0  0  0  0  0  0  0  0  0
   -2.1182   -8.4832   32.3636 C   0  0  0  0  0  0  0  0  0  0  0  0
   -1.7280   -8.0281   33.6099 C   0  0  0  0  0  0  0  0  0  0  0  0
   -2.7659   -8.6327   35.0626 Br  0  0  0  0  0  0  0  0  0  0  0  0
  1  2  1  0
  2  3  1  0
  3  4  2  0
  3  5  1  0
  5  6  2  0
  6  7  1  0
  7  8  2  0
  8  9  1  0
  8 10  1  0
 10 11  2  0
 11 12  1  0
 12 13  1  0
 13 14  2  0
 13 15  1  0
 15 16  2  0
 16 17  1  0
 17 18  1  0
 17 19  2  0
 19 20  1  0
 20 21  2  0
 21 22  1  0
 11  5  1  0
 21 15  1  0
M  END
>  <ref_mols>  (681) 
7gov-a

>  <gnina_score>  (681) 
5.252

>  <smina_score_min>  (681) 
-5.67

>  <ref_pdb>  (681) 
7gov-a

>  <inspiration_score>  (681) 
None

>  <inchikey>  (681) 
GPWJSTLWPFJWMQ-UHFFFAOYSA-N

>  <tags>  (681) 
BulkDock Fragalysis export,openbind_d68ev3c_c2_elabs_scored,openbind_d68ev3c_c2_elabs_scored_4.5plus,openbind_d68ev3c_c2_elabs,openbind_d68ev3c_c2_elabs_scored_5plus,syndirella_product,openbind_d68ev3c_c2_elabs_scored_top80percent,syndirella_placed

>  <smiles>  (681) 
COC(=O)c1ccc(F)cc1NC(=O)c1cc(Cl)ncc1Br

>  <subsites>  (681) 
None

>  <rmsd(smina/fragmenstein)>  (681) 
1.427

>  <alias>  (681) 
None

>  <energy_score>  (681) 
-33.300352

>  <HIPPO Pose ID>  (681) 
66587

>  <distance_score>  (681) 
0.819573

>  <HIPPO Compound ID>  (681) 
105175

>  <gnina_score_min>  (681) 
5.182

>  <name>  (681) 
P66587

>  <exports>  (681) 
['/opt/xchem-fragalysis-2/maxwin/BulkDock/OUTPUTS/openbind_d68ev3c_c2_elabs_1LOTQJ3.sdf', '/opt/xchem-fragalysis-2/maxwin/BulkDock/OUTPUTS/openbind_d68ev3c_c2_elabs_1LSYEHW.sdf', '/opt/xchem-fragalysis-2/maxwin/BulkDock/OUTPUTS/openbind_d68ev3c_c2_elabs_1LSYI5W.sdf']

$$$$
P66588
     RDKit          3D

 22 23  0  0  0  0  0  0  0  0999 V2000
    1.6726   -2.8867   33.1704 C   0  0  0  0  0  0  0  0  0  0  0  0
    2.5458   -3.1966   34.3572 C   0  0  0  0  0  0  0  0  0  0  0  0
    3.7703   -3.1802   34.2690 O   0  0  0  0  0  0  0  0  0  0  0  0
    1.8982   -3.4286   35.6707 C   0  0  0  0  0  0  0  0  0  0  0  0
    2.3933   -2.6748   36.7496 C   0  0  0  0  0  0  0  0  0  0  0  0
    1.8597   -2.8352   38.0288 C   0  0  0  0  0  0  0  0  0  0  0  0
    0.8497   -3.7653   38.2320 C   0  0  0  0  0  0  0  0  0  0  0  0
    0.3040   -3.8846   39.4509 F   0  0  0  0  0  0  0  0  0  0  0  0
    0.3904   -4.5520   37.1804 C   0  0  0  0  0  0  0  0  0  0  0  0
   -0.6147   -5.4112   37.4138 F   0  0  0  0  0  0  0  0  0  0  0  0
    0.9060   -4.3964   35.8843 C   0  0  0  0  0  0  0  0  0  0  0  0
    0.4295   -5.2174   34.8586 N   0  0  0  0  0  0  0  0  0  0  0  0
    0.0094   -6.6999   34.8770 C   0  0  0  0  0  0  0  0  0  0  0  0
    0.0668   -7.4897   35.7301 O   0  0  0  0  0  0  0  0  0  0  0  0
   -0.5913   -7.1427   33.5846 C   0  0  0  0  0  0  0  0  0  0  0  0
   -0.0537   -6.7132   32.3680 C   0  0  0  0  0  0  0  0  0  0  0  0
   -0.6647   -7.1412   31.2069 C   0  0  0  0  0  0  0  0  0  0  0  0
   -0.2562   -6.4618   29.6918 Cl  0  0  0  0  0  0  0  0  0  0  0  0
   -1.7011   -8.0016   31.1592 N   0  0  0  0  0  0  0  0  0  0  0  0
   -2.1603   -8.4449   32.3469 C   0  0  0  0  0  0  0  0  0  0  0  0
   -1.6795   -8.0222   33.5713 C   0  0  0  0  0  0  0  0  0  0  0  0
   -2.6814   -8.5739   35.0677 Br  0  0  0  0  0  0  0  0  0  0  0  0
  1  2  1  0
  2  3  2  0
  2  4  1  0
  4  5  2  0
  5  6  1  0
  6  7  2  0
  7  8  1  0
  7  9  1  0
  9 10  1  0
  9 11  2  0
 11 12  1  0
 12 13  1  0
 13 14  2  0
 13 15  1  0
 15 16  2  0
 16 17  1  0
 17 18  1  0
 17 19  2  0
 19 20  1  0
 20 21  2  0
 21 22  1  0
 11  4  1  0
 21 15  1  0
M  END
>  <ref_mols>  (682) 
7gov-a

>  <gnina_score>  (682) 
5.526

>  <smina_score_min>  (682) 
-5.319

>  <ref_pdb>  (682) 
7gov-a

>  <inspiration_score>  (682) 
None

>  <inchikey>  (682) 
FLXZZZCQOLPSNG-UHFFFAOYSA-N

>  <tags>  (682) 
BulkDock Fragalysis export,openbind_d68ev3c_c2_elabs_scored,openbind_d68ev3c_c2_elabs_scored_4.5plus,openbind_d68ev3c_c2_elabs,openbind_d68ev3c_c2_elabs_scored_5plus,syndirella_product,openbind_d68ev3c_c2_elabs_scored_top80percent,syndirella_placed

>  <smiles>  (682) 
CC(=O)c1ccc(F)c(F)c1NC(=O)c1cc(Cl)ncc1Br

>  <subsites>  (682) 
None

>  <rmsd(smina/fragmenstein)>  (682) 
1.03

>  <alias>  (682) 
None

>  <energy_score>  (682) 
-6.138387

>  <HIPPO Pose ID>  (682) 
66588

>  <distance_score>  (682) 
0.483088

>  <HIPPO Compound ID>  (682) 
105179

>  <gnina_score_min>  (682) 
5.273

>  <name>  (682) 
P66588

>  <exports>  (682) 
['/opt/xchem-fragalysis-2/maxwin/BulkDock/OUTPUTS/openbind_d68ev3c_c2_elabs_1LOTQJ3.sdf', '/opt/xchem-fragalysis-2/maxwin/BulkDock/OUTPUTS/openbind_d68ev3c_c2_elabs_1LSYEHW.sdf', '/opt/xchem-fragalysis-2/maxwin/BulkDock/OUTPUTS/openbind_d68ev3c_c2_elabs_1LSYI5W.sdf']

$$$$
P66589
     RDKit          3D

 22 23  0  0  0  0  0  0  0  0999 V2000
    0.2776   -3.7851   39.7171 C   0  0  0  0  0  0  0  0  0  0  0  0
    0.8983   -3.7020   38.3521 C   0  0  0  0  0  0  0  0  0  0  0  0
    0.3953   -4.5240   37.3318 C   0  0  0  0  0  0  0  0  0  0  0  0
    0.9346   -4.4728   36.0442 C   0  0  0  0  0  0  0  0  0  0  0  0
    0.4671   -5.3151   35.0459 N   0  0  0  0  0  0  0  0  0  0  0  0
   -0.3700   -6.6091   35.1362 C   0  0  0  0  0  0  0  0  0  0  0  0
   -0.7318   -7.2105   36.0662 O   0  0  0  0  0  0  0  0  0  0  0  0
   -0.7935   -7.1489   33.7822 C   0  0  0  0  0  0  0  0  0  0  0  0
   -0.1832   -6.7244   32.5918 C   0  0  0  0  0  0  0  0  0  0  0  0
   -0.6902   -7.1727   31.3845 C   0  0  0  0  0  0  0  0  0  0  0  0
   -0.2141   -6.4439   29.9112 Cl  0  0  0  0  0  0  0  0  0  0  0  0
   -1.6769   -8.0776   31.2568 N   0  0  0  0  0  0  0  0  0  0  0  0
   -2.1920   -8.5423   32.4108 C   0  0  0  0  0  0  0  0  0  0  0  0
   -1.8322   -8.0917   33.6734 C   0  0  0  0  0  0  0  0  0  0  0  0
   -2.9520   -8.7326   35.0595 Br  0  0  0  0  0  0  0  0  0  0  0  0
    1.9689   -3.5844   35.7544 C   0  0  0  0  0  0  0  0  0  0  0  0
    2.4938   -3.5543   34.5191 F   0  0  0  0  0  0  0  0  0  0  0  0
    2.5052   -2.7725   36.7423 C   0  0  0  0  0  0  0  0  0  0  0  0
    1.9677   -2.8410   38.0343 C   0  0  0  0  0  0  0  0  0  0  0  0
    2.5709   -1.9900   39.0514 N   0  0  0  0  0  0  0  0  0  0  0  0
    3.8047   -2.0244   39.1648 O   0  0  0  0  0  0  0  0  0  0  0  0
    1.8139   -1.2700   39.7169 O   0  0  0  0  0  0  0  0  0  0  0  0
  1  2  1  0
  2  3  2  0
  3  4  1  0
  4  5  1  0
  5  6  1  0
  6  7  2  0
  6  8  1  0
  8  9  2  0
  9 10  1  0
 10 11  1  0
 10 12  2  0
 12 13  1  0
 13 14  2  0
 14 15  1  0
  4 16  2  0
 16 17  1  0
 16 18  1  0
 18 19  2  0
 19 20  1  0
 20 21  2  0
 20 22  1  0
 19  2  1  0
 14  8  1  0
M  CHG  2  20   1  22  -1
M  END
>  <ref_mols>  (683) 
7gov-a

>  <gnina_score>  (683) 
5.322

>  <smina_score_min>  (683) 
-5.678

>  <ref_pdb>  (683) 
7gov-a

>  <inspiration_score>  (683) 
None

>  <inchikey>  (683) 
DMARYJKRVPGGNH-UHFFFAOYSA-N

>  <tags>  (683) 
BulkDock Fragalysis export,openbind_d68ev3c_c2_elabs_scored,openbind_d68ev3c_c2_elabs_scored_4.5plus,openbind_d68ev3c_c2_elabs,openbind_d68ev3c_c2_elabs_scored_5plus,syndirella_product,openbind_d68ev3c_c2_elabs_scored_top80percent,syndirella_placed

>  <smiles>  (683) 
Cc1cc(NC(=O)c2cc(Cl)ncc2Br)c(F)cc1[N+](=O)[O-]

>  <subsites>  (683) 
None

>  <rmsd(smina/fragmenstein)>  (683) 
1.181

>  <alias>  (683) 
None

>  <energy_score>  (683) 
-27.217915

>  <HIPPO Pose ID>  (683) 
66589

>  <distance_score>  (683) 
0.613826

>  <HIPPO Compound ID>  (683) 
105180

>  <gnina_score_min>  (683) 
5.28

>  <name>  (683) 
P66589

>  <exports>  (683) 
['/opt/xchem-fragalysis-2/maxwin/BulkDock/OUTPUTS/openbind_d68ev3c_c2_elabs_1LOTQJ3.sdf', '/opt/xchem-fragalysis-2/maxwin/BulkDock/OUTPUTS/openbind_d68ev3c_c2_elabs_1LSYEHW.sdf', '/opt/xchem-fragalysis-2/maxwin/BulkDock/OUTPUTS/openbind_d68ev3c_c2_elabs_1LSYI5W.sdf']

$$$$
P66590
     RDKit          3D

 22 23  0  0  0  0  0  0  0  0999 V2000
    2.5245   -3.5178   34.4033 C   0  0  0  0  0  0  0  0  0  0  0  0
    1.8925   -3.5746   35.7662 C   0  0  0  0  0  0  0  0  0  0  0  0
    2.4512   -2.8263   36.8147 C   0  0  0  0  0  0  0  0  0  0  0  0
    1.9346   -2.9480   38.1129 C   0  0  0  0  0  0  0  0  0  0  0  0
    2.5427   -2.1953   39.1906 N   0  0  0  0  0  0  0  0  0  0  0  0
    2.9033   -1.0366   38.9315 O   0  0  0  0  0  0  0  0  0  0  0  0
    2.6931   -2.7513   40.2872 O   0  0  0  0  0  0  0  0  0  0  0  0
    0.8599   -3.7828   38.3787 C   0  0  0  0  0  0  0  0  0  0  0  0
    0.3039   -3.8549   39.5960 F   0  0  0  0  0  0  0  0  0  0  0  0
    0.3152   -4.5464   37.3537 C   0  0  0  0  0  0  0  0  0  0  0  0
    0.8274   -4.4446   36.0553 C   0  0  0  0  0  0  0  0  0  0  0  0
    0.2674   -5.2314   35.0581 N   0  0  0  0  0  0  0  0  0  0  0  0
   -0.3283   -6.6543   35.1197 C   0  0  0  0  0  0  0  0  0  0  0  0
   -0.5115   -7.3569   36.0307 O   0  0  0  0  0  0  0  0  0  0  0  0
   -0.7767   -7.1620   33.7729 C   0  0  0  0  0  0  0  0  0  0  0  0
   -0.1670   -6.7238   32.5899 C   0  0  0  0  0  0  0  0  0  0  0  0
   -0.6820   -7.1580   31.3823 C   0  0  0  0  0  0  0  0  0  0  0  0
   -0.2034   -6.4207   29.9145 Cl  0  0  0  0  0  0  0  0  0  0  0  0
   -1.6765   -8.0559   31.2522 N   0  0  0  0  0  0  0  0  0  0  0  0
   -2.1920   -8.5285   32.4045 C   0  0  0  0  0  0  0  0  0  0  0  0
   -1.8214   -8.0931   33.6674 C   0  0  0  0  0  0  0  0  0  0  0  0
   -2.9292   -8.7125   35.0686 Br  0  0  0  0  0  0  0  0  0  0  0  0
  1  2  1  0
  2  3  2  0
  3  4  1  0
  4  5  1  0
  5  6  2  0
  5  7  1  0
  4  8  2  0
  8  9  1  0
  8 10  1  0
 10 11  2  0
 11 12  1  0
 12 13  1  0
 13 14  2  0
 13 15  1  0
 15 16  2  0
 16 17  1  0
 17 18  1  0
 17 19  2  0
 19 20  1  0
 20 21  2  0
 21 22  1  0
 11  2  1  0
 21 15  1  0
M  CHG  2   5   1   7  -1
M  END
>  <ref_mols>  (684) 
7gov-a

>  <gnina_score>  (684) 
5.265

>  <smina_score_min>  (684) 
-5.79

>  <ref_pdb>  (684) 
7gov-a

>  <inspiration_score>  (684) 
None

>  <inchikey>  (684) 
OJCFOBQCUVKESE-UHFFFAOYSA-N

>  <tags>  (684) 
BulkDock Fragalysis export,openbind_d68ev3c_c2_elabs_scored,openbind_d68ev3c_c2_elabs_scored_4.5plus,openbind_d68ev3c_c2_elabs,openbind_d68ev3c_c2_elabs_scored_5plus,syndirella_product,openbind_d68ev3c_c2_elabs_scored_top80percent,syndirella_placed

>  <smiles>  (684) 
Cc1cc([N+](=O)[O-])c(F)cc1NC(=O)c1cc(Cl)ncc1Br

>  <subsites>  (684) 
None

>  <rmsd(smina/fragmenstein)>  (684) 
1.121

>  <alias>  (684) 
None

>  <energy_score>  (684) 
-15.635137

>  <HIPPO Pose ID>  (684) 
66590

>  <distance_score>  (684) 
0.56071

>  <HIPPO Compound ID>  (684) 
105181

>  <gnina_score_min>  (684) 
5.296

>  <name>  (684) 
P66590

>  <exports>  (684) 
['/opt/xchem-fragalysis-2/maxwin/BulkDock/OUTPUTS/openbind_d68ev3c_c2_elabs_1LOTQJ3.sdf', '/opt/xchem-fragalysis-2/maxwin/BulkDock/OUTPUTS/openbind_d68ev3c_c2_elabs_1LSYEHW.sdf', '/opt/xchem-fragalysis-2/maxwin/BulkDock/OUTPUTS/openbind_d68ev3c_c2_elabs_1LSYI5W.sdf']

$$$$
P66591
     RDKit          3D

 22 23  0  0  0  0  0  0  0  0999 V2000
    4.4889   -3.6694   34.6173 C   0  0  0  0  0  0  0  0  0  0  0  0
    3.0243   -4.0222   34.6306 C   0  0  0  0  0  0  0  0  0  0  0  0
    2.4631   -4.4401   33.6169 O   0  0  0  0  0  0  0  0  0  0  0  0
    2.2455   -3.8413   35.8944 C   0  0  0  0  0  0  0  0  0  0  0  0
    2.7007   -2.9556   36.8811 C   0  0  0  0  0  0  0  0  0  0  0  0
    1.9809   -2.8098   38.0635 C   0  0  0  0  0  0  0  0  0  0  0  0
    2.4383   -1.9737   39.0063 F   0  0  0  0  0  0  0  0  0  0  0  0
    0.8019   -3.5126   38.2663 C   0  0  0  0  0  0  0  0  0  0  0  0
    0.1192   -3.3728   39.4109 F   0  0  0  0  0  0  0  0  0  0  0  0
    0.3177   -4.3668   37.2849 C   0  0  0  0  0  0  0  0  0  0  0  0
    1.0407   -4.5464   36.0993 C   0  0  0  0  0  0  0  0  0  0  0  0
    0.5597   -5.4214   35.1267 N   0  0  0  0  0  0  0  0  0  0  0  0
   -0.7380   -6.2556   35.0822 C   0  0  0  0  0  0  0  0  0  0  0  0
   -1.5698   -6.4009   35.8850 O   0  0  0  0  0  0  0  0  0  0  0  0
   -0.9463   -6.9448   33.7552 C   0  0  0  0  0  0  0  0  0  0  0  0
   -0.4065   -6.4063   32.5786 C   0  0  0  0  0  0  0  0  0  0  0  0
   -0.7049   -7.0139   31.3720 C   0  0  0  0  0  0  0  0  0  0  0  0
   -0.2035   -6.3057   29.8969 Cl  0  0  0  0  0  0  0  0  0  0  0  0
   -1.4932   -8.0992   31.2329 N   0  0  0  0  0  0  0  0  0  0  0  0
   -1.9965   -8.6041   32.3771 C   0  0  0  0  0  0  0  0  0  0  0  0
   -1.7915   -8.0593   33.6365 C   0  0  0  0  0  0  0  0  0  0  0  0
   -2.8450   -8.8236   35.0066 Br  0  0  0  0  0  0  0  0  0  0  0  0
  1  2  1  0
  2  3  2  0
  2  4  1  0
  4  5  2  0
  5  6  1  0
  6  7  1  0
  6  8  2  0
  8  9  1  0
  8 10  1  0
 10 11  2  0
 11 12  1  0
 12 13  1  0
 13 14  2  0
 13 15  1  0
 15 16  2  0
 16 17  1  0
 17 18  1  0
 17 19  2  0
 19 20  1  0
 20 21  2  0
 21 22  1  0
 11  4  1  0
 21 15  1  0
M  END
>  <ref_mols>  (685) 
7gov-a

>  <gnina_score>  (685) 
5.412

>  <smina_score_min>  (685) 
-5.455

>  <ref_pdb>  (685) 
7gov-a

>  <inspiration_score>  (685) 
None

>  <inchikey>  (685) 
OQUOCVJHZUGLHY-UHFFFAOYSA-N

>  <tags>  (685) 
BulkDock Fragalysis export,openbind_d68ev3c_c2_elabs_scored,openbind_d68ev3c_c2_elabs_scored_4.5plus,openbind_d68ev3c_c2_elabs,openbind_d68ev3c_c2_elabs_scored_5plus,syndirella_product,openbind_d68ev3c_c2_elabs_scored_top80percent,syndirella_placed

>  <smiles>  (685) 
CC(=O)c1cc(F)c(F)cc1NC(=O)c1cc(Cl)ncc1Br

>  <subsites>  (685) 
None

>  <rmsd(smina/fragmenstein)>  (685) 
1.586

>  <alias>  (685) 
None

>  <energy_score>  (685) 
-21.758024

>  <HIPPO Pose ID>  (685) 
66591

>  <distance_score>  (685) 
0.813784

>  <HIPPO Compound ID>  (685) 
105183

>  <gnina_score_min>  (685) 
5.261

>  <name>  (685) 
P66591

>  <exports>  (685) 
['/opt/xchem-fragalysis-2/maxwin/BulkDock/OUTPUTS/openbind_d68ev3c_c2_elabs_1LOTQJ3.sdf', '/opt/xchem-fragalysis-2/maxwin/BulkDock/OUTPUTS/openbind_d68ev3c_c2_elabs_1LSYEHW.sdf', '/opt/xchem-fragalysis-2/maxwin/BulkDock/OUTPUTS/openbind_d68ev3c_c2_elabs_1LSYI5W.sdf']

$$$$
P66593
     RDKit          3D

 22 23  0  0  0  0  0  0  0  0999 V2000
    2.9642   -3.3194   33.3462 C   0  0  0  0  0  0  0  0  0  0  0  0
    2.4747   -3.4115   34.4389 C   0  0  0  0  0  0  0  0  0  0  0  0
    1.8886   -3.5197   35.7451 C   0  0  0  0  0  0  0  0  0  0  0  0
    2.3915   -2.7191   36.7778 C   0  0  0  0  0  0  0  0  0  0  0  0
    1.8763   -2.8391   38.0703 C   0  0  0  0  0  0  0  0  0  0  0  0
    2.4994   -1.8325   39.3220 Cl  0  0  0  0  0  0  0  0  0  0  0  0
    0.8608   -3.7516   38.3352 C   0  0  0  0  0  0  0  0  0  0  0  0
    0.3196   -3.8360   39.5608 F   0  0  0  0  0  0  0  0  0  0  0  0
    0.3776   -4.5667   37.3192 C   0  0  0  0  0  0  0  0  0  0  0  0
   -0.6359   -5.4020   37.5941 F   0  0  0  0  0  0  0  0  0  0  0  0
    0.8833   -4.4600   36.0181 C   0  0  0  0  0  0  0  0  0  0  0  0
    0.4009   -5.2712   34.9903 N   0  0  0  0  0  0  0  0  0  0  0  0
   -0.1599   -6.7058   35.0270 C   0  0  0  0  0  0  0  0  0  0  0  0
   -0.2363   -7.4634   35.9074 O   0  0  0  0  0  0  0  0  0  0  0  0
   -0.6927   -7.1533   33.7002 C   0  0  0  0  0  0  0  0  0  0  0  0
   -0.1121   -6.6994   32.5105 C   0  0  0  0  0  0  0  0  0  0  0  0
   -0.6637   -7.1180   31.3154 C   0  0  0  0  0  0  0  0  0  0  0  0
   -0.2032   -6.3909   29.8372 Cl  0  0  0  0  0  0  0  0  0  0  0  0
   -1.6771   -8.0003   31.2061 N   0  0  0  0  0  0  0  0  0  0  0  0
   -2.1736   -8.4725   32.3678 C   0  0  0  0  0  0  0  0  0  0  0  0
   -1.7586   -8.0585   33.6216 C   0  0  0  0  0  0  0  0  0  0  0  0
   -2.8259   -8.6615   35.0569 Br  0  0  0  0  0  0  0  0  0  0  0  0
  1  2  3  0
  2  3  1  0
  3  4  2  0
  4  5  1  0
  5  6  1  0
  5  7  2  0
  7  8  1  0
  7  9  1  0
  9 10  1  0
  9 11  2  0
 11 12  1  0
 12 13  1  0
 13 14  2  0
 13 15  1  0
 15 16  2  0
 16 17  1  0
 17 18  1  0
 17 19  2  0
 19 20  1  0
 20 21  2  0
 21 22  1  0
 11  3  1  0
 21 15  1  0
M  END
>  <ref_mols>  (686) 
7gov-a

>  <gnina_score>  (686) 
5.646

>  <smina_score_min>  (686) 
-5.284

>  <ref_pdb>  (686) 
7gov-a

>  <inspiration_score>  (686) 
None

>  <inchikey>  (686) 
KFMQIYBCGITQOT-UHFFFAOYSA-N

>  <tags>  (686) 
BulkDock Fragalysis export,openbind_d68ev3c_c2_elabs_scored,openbind_d68ev3c_c2_elabs_scored_4.5plus,openbind_d68ev3c_c2_elabs,openbind_d68ev3c_c2_elabs_scored_5plus,syndirella_product,openbind_d68ev3c_c2_elabs_scored_top80percent,syndirella_placed

>  <smiles>  (686) 
C#Cc1cc(Cl)c(F)c(F)c1NC(=O)c1cc(Cl)ncc1Br

>  <subsites>  (686) 
None

>  <rmsd(smina/fragmenstein)>  (686) 
0.585

>  <alias>  (686) 
None

>  <energy_score>  (686) 
-6.898773

>  <HIPPO Pose ID>  (686) 
66593

>  <distance_score>  (686) 
0.521206

>  <HIPPO Compound ID>  (686) 
105185

>  <gnina_score_min>  (686) 
5.504

>  <name>  (686) 
P66593

>  <exports>  (686) 
['/opt/xchem-fragalysis-2/maxwin/BulkDock/OUTPUTS/openbind_d68ev3c_c2_elabs_1LOTQJ3.sdf', '/opt/xchem-fragalysis-2/maxwin/BulkDock/OUTPUTS/openbind_d68ev3c_c2_elabs_1LSYEHW.sdf', '/opt/xchem-fragalysis-2/maxwin/BulkDock/OUTPUTS/openbind_d68ev3c_c2_elabs_1LSYI5W.sdf']

$$$$
P66594
     RDKit          3D

 22 23  0  0  0  0  0  0  0  0999 V2000
    3.0220   -3.3455   33.3654 C   0  0  0  0  0  0  0  0  0  0  0  0
    2.5191   -3.4327   34.4525 C   0  0  0  0  0  0  0  0  0  0  0  0
    1.9177   -3.5343   35.7520 C   0  0  0  0  0  0  0  0  0  0  0  0
    2.4233   -2.7476   36.7935 C   0  0  0  0  0  0  0  0  0  0  0  0
    1.8973   -2.8683   38.0859 C   0  0  0  0  0  0  0  0  0  0  0  0
    2.4348   -2.0903   39.1574 C   0  0  0  0  0  0  0  0  0  0  0  0
    2.8950   -1.4430   40.0048 N   0  0  0  0  0  0  0  0  0  0  0  0
    0.8590   -3.7643   38.3232 C   0  0  0  0  0  0  0  0  0  0  0  0
    0.3131   -3.8660   39.5440 F   0  0  0  0  0  0  0  0  0  0  0  0
    0.3648   -4.5698   37.3029 C   0  0  0  0  0  0  0  0  0  0  0  0
    0.8953   -4.4589   36.0163 C   0  0  0  0  0  0  0  0  0  0  0  0
    0.4140   -5.2821   35.0048 N   0  0  0  0  0  0  0  0  0  0  0  0
   -0.2580   -6.6688   35.0761 C   0  0  0  0  0  0  0  0  0  0  0  0
   -0.4437   -7.3715   35.9863 O   0  0  0  0  0  0  0  0  0  0  0  0
   -0.7403   -7.1630   33.7352 C   0  0  0  0  0  0  0  0  0  0  0  0
   -0.1468   -6.7328   32.5405 C   0  0  0  0  0  0  0  0  0  0  0  0
   -0.6852   -7.1653   31.3429 C   0  0  0  0  0  0  0  0  0  0  0  0
   -0.2215   -6.4443   29.8624 Cl  0  0  0  0  0  0  0  0  0  0  0  0
   -1.6903   -8.0535   31.2319 N   0  0  0  0  0  0  0  0  0  0  0  0
   -2.1938   -8.5160   32.3930 C   0  0  0  0  0  0  0  0  0  0  0  0
   -1.7987   -8.0812   33.6482 C   0  0  0  0  0  0  0  0  0  0  0  0
   -2.8915   -8.6898   35.0657 Br  0  0  0  0  0  0  0  0  0  0  0  0
  1  2  3  0
  2  3  1  0
  3  4  2  0
  4  5  1  0
  5  6  1  0
  6  7  3  0
  5  8  2  0
  8  9  1  0
  8 10  1  0
 10 11  2  0
 11 12  1  0
 12 13  1  0
 13 14  2  0
 13 15  1  0
 15 16  2  0
 16 17  1  0
 17 18  1  0
 17 19  2  0
 19 20  1  0
 20 21  2  0
 21 22  1  0
 11  3  1  0
 21 15  1  0
M  END
>  <ref_mols>  (687) 
7gov-a

>  <gnina_score>  (687) 
5.425

>  <smina_score_min>  (687) 
-5.489

>  <ref_pdb>  (687) 
7gov-a

>  <inspiration_score>  (687) 
None

>  <inchikey>  (687) 
RKHYSYFOLLNOPA-UHFFFAOYSA-N

>  <tags>  (687) 
BulkDock Fragalysis export,openbind_d68ev3c_c2_elabs_scored,openbind_d68ev3c_c2_elabs_scored_4.5plus,openbind_d68ev3c_c2_elabs,openbind_d68ev3c_c2_elabs_scored_5plus,syndirella_product,openbind_d68ev3c_c2_elabs_scored_top80percent,syndirella_placed

>  <smiles>  (687) 
C#Cc1cc(C#N)c(F)cc1NC(=O)c1cc(Cl)ncc1Br

>  <subsites>  (687) 
None

>  <rmsd(smina/fragmenstein)>  (687) 
1.155

>  <alias>  (687) 
None

>  <energy_score>  (687) 
-7.710626

>  <HIPPO Pose ID>  (687) 
66594

>  <distance_score>  (687) 
0.552618

>  <HIPPO Compound ID>  (687) 
105186

>  <gnina_score_min>  (687) 
5.408

>  <name>  (687) 
P66594

>  <exports>  (687) 
['/opt/xchem-fragalysis-2/maxwin/BulkDock/OUTPUTS/openbind_d68ev3c_c2_elabs_1LOTQJ3.sdf', '/opt/xchem-fragalysis-2/maxwin/BulkDock/OUTPUTS/openbind_d68ev3c_c2_elabs_1LSYEHW.sdf', '/opt/xchem-fragalysis-2/maxwin/BulkDock/OUTPUTS/openbind_d68ev3c_c2_elabs_1LSYI5W.sdf']

$$$$
P66595
     RDKit          3D

 22 23  0  0  0  0  0  0  0  0999 V2000
    4.4849   -3.3237   34.7007 C   0  0  0  0  0  0  0  0  0  0  0  0
    3.0072   -3.0462   34.7028 C   0  0  0  0  0  0  0  0  0  0  0  0
    2.4012   -2.6345   33.7184 O   0  0  0  0  0  0  0  0  0  0  0  0
    2.2695   -3.2417   35.9603 C   0  0  0  0  0  0  0  0  0  0  0  0
    2.6455   -2.5014   37.0867 C   0  0  0  0  0  0  0  0  0  0  0  0
    1.9791   -2.7083   38.2944 C   0  0  0  0  0  0  0  0  0  0  0  0
    2.4866   -1.7070   39.8163 Br  0  0  0  0  0  0  0  0  0  0  0  0
    0.9517   -3.6446   38.3734 C   0  0  0  0  0  0  0  0  0  0  0  0
    0.2822   -3.8361   39.5198 F   0  0  0  0  0  0  0  0  0  0  0  0
    0.5953   -4.3959   37.2589 C   0  0  0  0  0  0  0  0  0  0  0  0
    1.2528   -4.1947   36.0410 C   0  0  0  0  0  0  0  0  0  0  0  0
    0.8822   -4.9662   34.9464 N   0  0  0  0  0  0  0  0  0  0  0  0
    0.2632   -6.3698   34.8786 C   0  0  0  0  0  0  0  0  0  0  0  0
    0.0350   -7.1376   35.7270 O   0  0  0  0  0  0  0  0  0  0  0  0
   -0.2128   -6.7729   33.5127 C   0  0  0  0  0  0  0  0  0  0  0  0
   -1.2508   -7.7122   33.5710 C   0  0  0  0  0  0  0  0  0  0  0  0
   -1.8113   -8.1532   32.4022 C   0  0  0  0  0  0  0  0  0  0  0  0
   -3.1254   -9.2081   32.4535 Cl  0  0  0  0  0  0  0  0  0  0  0  0
   -1.4462   -7.7714   31.1715 N   0  0  0  0  0  0  0  0  0  0  0  0
   -0.4226   -6.8910   31.1292 C   0  0  0  0  0  0  0  0  0  0  0  0
    0.2142   -6.3519   32.2502 C   0  0  0  0  0  0  0  0  0  0  0  0
    1.6217   -5.1466   31.8900 Br  0  0  0  0  0  0  0  0  0  0  0  0
  1  2  1  0
  2  3  2  0
  2  4  1  0
  4  5  2  0
  5  6  1  0
  6  7  1  0
  6  8  2  0
  8  9  1  0
  8 10  1  0
 10 11  2  0
 11 12  1  0
 12 13  1  0
 13 14  2  0
 13 15  1  0
 15 16  2  0
 16 17  1  0
 17 18  1  0
 17 19  2  0
 19 20  1  0
 20 21  2  0
 21 22  1  0
 11  4  1  0
 21 15  1  0
M  END
>  <ref_mols>  (688) 
7gov-a

>  <gnina_score>  (688) 
5.258

>  <smina_score_min>  (688) 
-5.6

>  <ref_pdb>  (688) 
7gov-a

>  <inspiration_score>  (688) 
None

>  <inchikey>  (688) 
MXKLIGAFGFGTDH-UHFFFAOYSA-N

>  <tags>  (688) 
BulkDock Fragalysis export,openbind_d68ev3c_c2_elabs_scored,openbind_d68ev3c_c2_elabs_scored_4.5plus,openbind_d68ev3c_c2_elabs,openbind_d68ev3c_c2_elabs_scored_5plus,syndirella_product,openbind_d68ev3c_c2_elabs_scored_top80percent,syndirella_placed

>  <smiles>  (688) 
CC(=O)c1cc(Br)c(F)cc1NC(=O)c1cc(Cl)ncc1Br

>  <subsites>  (688) 
None

>  <rmsd(smina/fragmenstein)>  (688) 
1.392

>  <alias>  (688) 
None

>  <energy_score>  (688) 
-39.25157

>  <HIPPO Pose ID>  (688) 
66595

>  <distance_score>  (688) 
0.658535

>  <HIPPO Compound ID>  (688) 
105188

>  <gnina_score_min>  (688) 
5.132

>  <name>  (688) 
P66595

>  <exports>  (688) 
['/opt/xchem-fragalysis-2/maxwin/BulkDock/OUTPUTS/openbind_d68ev3c_c2_elabs_1LOTQJ3.sdf', '/opt/xchem-fragalysis-2/maxwin/BulkDock/OUTPUTS/openbind_d68ev3c_c2_elabs_1LSYEHW.sdf', '/opt/xchem-fragalysis-2/maxwin/BulkDock/OUTPUTS/openbind_d68ev3c_c2_elabs_1LSYI5W.sdf']

$$$$
P66596
     RDKit          3D

 22 23  0  0  0  0  0  0  0  0999 V2000
    2.7443   -3.6274   34.5246 C   0  0  0  0  0  0  0  0  0  0  0  0
    2.0178   -3.6302   35.8450 C   0  0  0  0  0  0  0  0  0  0  0  0
    0.9298   -4.4926   36.0697 C   0  0  0  0  0  0  0  0  0  0  0  0
    0.4428   -5.3000   35.0478 N   0  0  0  0  0  0  0  0  0  0  0  0
   -0.2616   -6.6731   35.1038 C   0  0  0  0  0  0  0  0  0  0  0  0
   -0.4742   -7.3760   36.0084 O   0  0  0  0  0  0  0  0  0  0  0  0
   -0.7411   -7.1562   33.7554 C   0  0  0  0  0  0  0  0  0  0  0  0
   -0.1465   -6.7190   32.5639 C   0  0  0  0  0  0  0  0  0  0  0  0
   -0.6794   -7.1476   31.3613 C   0  0  0  0  0  0  0  0  0  0  0  0
   -0.2071   -6.4187   29.8873 Cl  0  0  0  0  0  0  0  0  0  0  0  0
   -1.6819   -8.0372   31.2407 N   0  0  0  0  0  0  0  0  0  0  0  0
   -2.1889   -8.5051   32.3978 C   0  0  0  0  0  0  0  0  0  0  0  0
   -1.7990   -8.0755   33.6574 C   0  0  0  0  0  0  0  0  0  0  0  0
   -2.8999   -8.6952   35.0647 Br  0  0  0  0  0  0  0  0  0  0  0  0
    0.3171   -4.5669   37.3261 C   0  0  0  0  0  0  0  0  0  0  0  0
    0.7579   -3.7575   38.3636 C   0  0  0  0  0  0  0  0  0  0  0  0
    0.1457   -3.8161   39.5530 F   0  0  0  0  0  0  0  0  0  0  0  0
    1.8095   -2.8779   38.1830 C   0  0  0  0  0  0  0  0  0  0  0  0
    2.4305   -2.8221   36.9290 C   0  0  0  0  0  0  0  0  0  0  0  0
    3.5269   -1.8713   36.7873 N   0  0  0  0  0  0  0  0  0  0  0  0
    4.3895   -1.8547   37.6773 O   0  0  0  0  0  0  0  0  0  0  0  0
    3.4996   -1.1135   35.8070 O   0  0  0  0  0  0  0  0  0  0  0  0
  1  2  1  0
  2  3  2  0
  3  4  1  0
  4  5  1  0
  5  6  2  0
  5  7  1  0
  7  8  2  0
  8  9  1  0
  9 10  1  0
  9 11  2  0
 11 12  1  0
 12 13  2  0
 13 14  1  0
  3 15  1  0
 15 16  2  0
 16 17  1  0
 16 18  1  0
 18 19  2  0
 19 20  1  0
 20 21  2  0
 20 22  1  0
 19  2  1  0
 13  7  1  0
M  CHG  2  20   1  22  -1
M  END
>  <ref_mols>  (689) 
7gov-a

>  <gnina_score>  (689) 
5.338

>  <smina_score_min>  (689) 
-5.887

>  <ref_pdb>  (689) 
7gov-a

>  <inspiration_score>  (689) 
None

>  <inchikey>  (689) 
RFAQBHFHWYDFTA-UHFFFAOYSA-N

>  <tags>  (689) 
BulkDock Fragalysis export,openbind_d68ev3c_c2_elabs_scored,openbind_d68ev3c_c2_elabs_scored_4.5plus,openbind_d68ev3c_c2_elabs,openbind_d68ev3c_c2_elabs_scored_5plus,syndirella_product,openbind_d68ev3c_c2_elabs_scored_top80percent,syndirella_placed

>  <smiles>  (689) 
Cc1c(NC(=O)c2cc(Cl)ncc2Br)cc(F)cc1[N+](=O)[O-]

>  <subsites>  (689) 
None

>  <rmsd(smina/fragmenstein)>  (689) 
1.067

>  <alias>  (689) 
None

>  <energy_score>  (689) 
-21.437825

>  <HIPPO Pose ID>  (689) 
66596

>  <distance_score>  (689) 
0.535497

>  <HIPPO Compound ID>  (689) 
105194

>  <gnina_score_min>  (689) 
5.322

>  <name>  (689) 
P66596

>  <exports>  (689) 
['/opt/xchem-fragalysis-2/maxwin/BulkDock/OUTPUTS/openbind_d68ev3c_c2_elabs_1LOTQJ3.sdf', '/opt/xchem-fragalysis-2/maxwin/BulkDock/OUTPUTS/openbind_d68ev3c_c2_elabs_1LSYEHW.sdf', '/opt/xchem-fragalysis-2/maxwin/BulkDock/OUTPUTS/openbind_d68ev3c_c2_elabs_1LSYI5W.sdf']

$$$$
P66600
     RDKit          3D

 22 23  0  0  0  0  0  0  0  0999 V2000
    4.4779   -3.6695   34.6289 C   0  0  0  0  0  0  0  0  0  0  0  0
    3.0125   -4.0198   34.6305 C   0  0  0  0  0  0  0  0  0  0  0  0
    2.4607   -4.4354   33.6112 O   0  0  0  0  0  0  0  0  0  0  0  0
    2.2239   -3.8391   35.8886 C   0  0  0  0  0  0  0  0  0  0  0  0
    2.6833   -2.9670   36.8858 C   0  0  0  0  0  0  0  0  0  0  0  0
    1.9606   -2.8256   38.0668 C   0  0  0  0  0  0  0  0  0  0  0  0
    2.4227   -2.0034   39.0195 F   0  0  0  0  0  0  0  0  0  0  0  0
    0.7749   -3.5195   38.2585 C   0  0  0  0  0  0  0  0  0  0  0  0
    0.0908   -3.3853   39.4029 F   0  0  0  0  0  0  0  0  0  0  0  0
    0.2858   -4.3591   37.2666 C   0  0  0  0  0  0  0  0  0  0  0  0
    1.0101   -4.5329   36.0807 C   0  0  0  0  0  0  0  0  0  0  0  0
    0.5235   -5.3946   35.0984 N   0  0  0  0  0  0  0  0  0  0  0  0
   -0.7783   -6.2243   35.0470 C   0  0  0  0  0  0  0  0  0  0  0  0
   -1.6090   -6.3762   35.8503 O   0  0  0  0  0  0  0  0  0  0  0  0
   -0.9719   -6.9281   33.7245 C   0  0  0  0  0  0  0  0  0  0  0  0
   -0.4006   -6.4238   32.5493 C   0  0  0  0  0  0  0  0  0  0  0  0
   -0.5960   -7.1172   31.3720 C   0  0  0  0  0  0  0  0  0  0  0  0
    0.0100   -6.6795   30.2389 O   0  0  0  0  0  0  0  0  0  0  0  0
   -1.3292   -8.2314   31.2369 N   0  0  0  0  0  0  0  0  0  0  0  0
   -1.9126   -8.6727   32.3717 C   0  0  0  0  0  0  0  0  0  0  0  0
   -1.7871   -8.0656   33.6148 C   0  0  0  0  0  0  0  0  0  0  0  0
   -2.8599   -8.8139   34.9804 Br  0  0  0  0  0  0  0  0  0  0  0  0
  1  2  1  0
  2  3  2  0
  2  4  1  0
  4  5  2  0
  5  6  1  0
  6  7  1  0
  6  8  2  0
  8  9  1  0
  8 10  1  0
 10 11  2  0
 11 12  1  0
 12 13  1  0
 13 14  2  0
 13 15  1  0
 15 16  2  0
 16 17  1  0
 17 18  1  0
 17 19  2  0
 19 20  1  0
 20 21  2  0
 21 22  1  0
 11  4  1  0
 21 15  1  0
M  END
>  <ref_mols>  (690) 
7gov-a

>  <gnina_score>  (690) 
5.142

>  <smina_score_min>  (690) 
-6.009

>  <ref_pdb>  (690) 
7gov-a

>  <inspiration_score>  (690) 
None

>  <inchikey>  (690) 
TVVNKRZMOGMZJJ-UHFFFAOYSA-N

>  <tags>  (690) 
BulkDock Fragalysis export,openbind_d68ev3c_c2_elabs_scored,openbind_d68ev3c_c2_elabs_scored_4.5plus,openbind_d68ev3c_c2_elabs,openbind_d68ev3c_c2_elabs_scored_5plus,syndirella_product,openbind_d68ev3c_c2_elabs_scored_top80percent,syndirella_placed

>  <smiles>  (690) 
CC(=O)c1cc(F)c(F)cc1NC(=O)c1cc(O)ncc1Br

>  <subsites>  (690) 
None

>  <rmsd(smina/fragmenstein)>  (690) 
1.171

>  <alias>  (690) 
None

>  <energy_score>  (690) 
-31.606967

>  <HIPPO Pose ID>  (690) 
66600

>  <distance_score>  (690) 
0.821063

>  <HIPPO Compound ID>  (690) 
105207

>  <gnina_score_min>  (690) 
5.078

>  <name>  (690) 
P66600

>  <exports>  (690) 
['/opt/xchem-fragalysis-2/maxwin/BulkDock/OUTPUTS/openbind_d68ev3c_c2_elabs_1LOTQJ3.sdf', '/opt/xchem-fragalysis-2/maxwin/BulkDock/OUTPUTS/openbind_d68ev3c_c2_elabs_1LSYEHW.sdf', '/opt/xchem-fragalysis-2/maxwin/BulkDock/OUTPUTS/openbind_d68ev3c_c2_elabs_1LSYI5W.sdf']

$$$$
P66606
     RDKit          3D

 22 23  0  0  0  0  0  0  0  0999 V2000
    2.8708   -3.4120   33.3555 C   0  0  0  0  0  0  0  0  0  0  0  0
    2.4019   -3.4734   34.4594 C   0  0  0  0  0  0  0  0  0  0  0  0
    1.8388   -3.5463   35.7780 C   0  0  0  0  0  0  0  0  0  0  0  0
    2.4119   -2.7744   36.7963 C   0  0  0  0  0  0  0  0  0  0  0  0
    1.9241   -2.8642   38.1020 C   0  0  0  0  0  0  0  0  0  0  0  0
    2.6355   -1.8942   39.3355 Cl  0  0  0  0  0  0  0  0  0  0  0  0
    0.8684   -3.7205   38.3955 C   0  0  0  0  0  0  0  0  0  0  0  0
    0.3575   -3.7788   39.6353 F   0  0  0  0  0  0  0  0  0  0  0  0
    0.3133   -4.5061   37.3942 C   0  0  0  0  0  0  0  0  0  0  0  0
   -0.7331   -5.2889   37.6989 F   0  0  0  0  0  0  0  0  0  0  0  0
    0.7855   -4.4242   36.0789 C   0  0  0  0  0  0  0  0  0  0  0  0
    0.2106   -5.2040   35.0755 N   0  0  0  0  0  0  0  0  0  0  0  0
   -0.3243   -6.6498   35.1134 C   0  0  0  0  0  0  0  0  0  0  0  0
   -0.4389   -7.3887   36.0062 O   0  0  0  0  0  0  0  0  0  0  0  0
   -0.7737   -7.1384   33.7670 C   0  0  0  0  0  0  0  0  0  0  0  0
   -0.1305   -6.7123   32.6009 C   0  0  0  0  0  0  0  0  0  0  0  0
   -0.5534   -7.2285   31.3939 C   0  0  0  0  0  0  0  0  0  0  0  0
    0.0369   -6.7907   30.2518 O   0  0  0  0  0  0  0  0  0  0  0  0
   -1.5076   -8.1569   31.2387 N   0  0  0  0  0  0  0  0  0  0  0  0
   -2.0979   -8.5714   32.3816 C   0  0  0  0  0  0  0  0  0  0  0  0
   -1.7969   -8.0875   33.6467 C   0  0  0  0  0  0  0  0  0  0  0  0
   -2.9235   -8.6954   35.0373 Br  0  0  0  0  0  0  0  0  0  0  0  0
  1  2  3  0
  2  3  1  0
  3  4  2  0
  4  5  1  0
  5  6  1  0
  5  7  2  0
  7  8  1  0
  7  9  1  0
  9 10  1  0
  9 11  2  0
 11 12  1  0
 12 13  1  0
 13 14  2  0
 13 15  1  0
 15 16  2  0
 16 17  1  0
 17 18  1  0
 17 19  2  0
 19 20  1  0
 20 21  2  0
 21 22  1  0
 11  3  1  0
 21 15  1  0
M  END
>  <ref_mols>  (691) 
7gov-a

>  <gnina_score>  (691) 
5.365

>  <smina_score_min>  (691) 
-5.663

>  <ref_pdb>  (691) 
7gov-a

>  <inspiration_score>  (691) 
None

>  <inchikey>  (691) 
IXYHVUMNBHDYNK-UHFFFAOYSA-N

>  <tags>  (691) 
BulkDock Fragalysis export,openbind_d68ev3c_c2_elabs_scored,openbind_d68ev3c_c2_elabs_scored_4.5plus,openbind_d68ev3c_c2_elabs,openbind_d68ev3c_c2_elabs_scored_5plus,syndirella_product,openbind_d68ev3c_c2_elabs_scored_top80percent,syndirella_placed

>  <smiles>  (691) 
C#Cc1cc(Cl)c(F)c(F)c1NC(=O)c1cc(O)ncc1Br

>  <subsites>  (691) 
None

>  <rmsd(smina/fragmenstein)>  (691) 
0.938

>  <alias>  (691) 
None

>  <energy_score>  (691) 
-13.744941

>  <HIPPO Pose ID>  (691) 
66606

>  <distance_score>  (691) 
0.56491

>  <HIPPO Compound ID>  (691) 
105217

>  <gnina_score_min>  (691) 
5.356

>  <name>  (691) 
P66606

>  <exports>  (691) 
['/opt/xchem-fragalysis-2/maxwin/BulkDock/OUTPUTS/openbind_d68ev3c_c2_elabs_1LOTQJ3.sdf', '/opt/xchem-fragalysis-2/maxwin/BulkDock/OUTPUTS/openbind_d68ev3c_c2_elabs_1LSYEHW.sdf', '/opt/xchem-fragalysis-2/maxwin/BulkDock/OUTPUTS/openbind_d68ev3c_c2_elabs_1LSYI5W.sdf']

$$$$
P66611
     RDKit          3D

 22 23  0  0  0  0  0  0  0  0999 V2000
    2.8855   -3.8394   35.0929 C   0  0  0  0  0  0  0  0  0  0  0  0
    1.9916   -3.5784   36.2782 C   0  0  0  0  0  0  0  0  0  0  0  0
    2.5396   -2.9648   37.4094 C   0  0  0  0  0  0  0  0  0  0  0  0
    1.7532   -2.8115   38.5537 C   0  0  0  0  0  0  0  0  0  0  0  0
    2.3570   -2.2809   39.7571 N   0  0  0  0  0  0  0  0  0  0  0  0
    2.0919   -2.8283   40.8361 O   0  0  0  0  0  0  0  0  0  0  0  0
    3.1277   -1.3181   39.6225 O   0  0  0  0  0  0  0  0  0  0  0  0
    0.4142   -3.1834   38.5605 C   0  0  0  0  0  0  0  0  0  0  0  0
   -0.3437   -3.0514   39.6556 F   0  0  0  0  0  0  0  0  0  0  0  0
   -0.1644   -3.7336   37.4240 C   0  0  0  0  0  0  0  0  0  0  0  0
    0.6414   -3.9775   36.3161 C   0  0  0  0  0  0  0  0  0  0  0  0
    0.1487   -4.8078   35.3338 N   0  0  0  0  0  0  0  0  0  0  0  0
    0.6803   -6.1420   34.7992 C   0  0  0  0  0  0  0  0  0  0  0  0
    1.5760   -6.7928   35.1534 O   0  0  0  0  0  0  0  0  0  0  0  0
   -0.0542   -6.5508   33.5977 C   0  0  0  0  0  0  0  0  0  0  0  0
    0.4082   -6.1271   32.3505 C   0  0  0  0  0  0  0  0  0  0  0  0
   -0.2140   -6.6292   31.2255 C   0  0  0  0  0  0  0  0  0  0  0  0
   -1.2425   -7.4941   31.2793 N   0  0  0  0  0  0  0  0  0  0  0  0
   -1.6335   -7.8944   32.5150 C   0  0  0  0  0  0  0  0  0  0  0  0
   -2.9968   -9.1656   32.5043 Br  0  0  0  0  0  0  0  0  0  0  0  0
   -1.1017   -7.4420   33.7092 C   0  0  0  0  0  0  0  0  0  0  0  0
   -1.7108   -7.9046   35.2511 Cl  0  0  0  0  0  0  0  0  0  0  0  0
  1  2  1  0
  2  3  2  0
  3  4  1  0
  4  5  1  0
  5  6  2  0
  5  7  1  0
  4  8  2  0
  8  9  1  0
  8 10  1  0
 10 11  2  0
 11 12  1  0
 12 13  1  0
 13 14  2  0
 13 15  1  0
 15 16  2  0
 16 17  1  0
 17 18  2  0
 18 19  1  0
 19 20  1  0
 19 21  2  0
 21 22  1  0
 11  2  1  0
 21 15  1  0
M  CHG  2   5   1   7  -1
M  END
>  <ref_mols>  (692) 
7gov-a

>  <gnina_score>  (692) 
5.277

>  <smina_score_min>  (692) 
-4.694

>  <ref_pdb>  (692) 
7gov-a

>  <inspiration_score>  (692) 
None

>  <inchikey>  (692) 
DFEDDGXKLCFYQC-UHFFFAOYSA-N

>  <tags>  (692) 
BulkDock Fragalysis export,openbind_d68ev3c_c2_elabs_scored,openbind_d68ev3c_c2_elabs_scored_4.5plus,openbind_d68ev3c_c2_elabs,openbind_d68ev3c_c2_elabs_scored_5plus,syndirella_product,openbind_d68ev3c_c2_elabs_scored_top80percent,syndirella_placed

>  <smiles>  (692) 
Cc1cc([N+](=O)[O-])c(F)cc1NC(=O)c1ccnc(Br)c1Cl

>  <subsites>  (692) 
None

>  <rmsd(smina/fragmenstein)>  (692) 
1.116

>  <alias>  (692) 
None

>  <energy_score>  (692) 
-13.875776

>  <HIPPO Pose ID>  (692) 
66611

>  <distance_score>  (692) 
0.748966

>  <HIPPO Compound ID>  (692) 
105232

>  <gnina_score_min>  (692) 
5.118

>  <name>  (692) 
P66611

>  <exports>  (692) 
['/opt/xchem-fragalysis-2/maxwin/BulkDock/OUTPUTS/openbind_d68ev3c_c2_elabs_1LOTQJ3.sdf', '/opt/xchem-fragalysis-2/maxwin/BulkDock/OUTPUTS/openbind_d68ev3c_c2_elabs_1LSYEHW.sdf', '/opt/xchem-fragalysis-2/maxwin/BulkDock/OUTPUTS/openbind_d68ev3c_c2_elabs_1LSYI5W.sdf']

$$$$
P66612
     RDKit          3D

 22 23  0  0  0  0  0  0  0  0999 V2000
    2.2747   -2.1636   33.5909 C   0  0  0  0  0  0  0  0  0  0  0  0
    2.9985   -2.9367   34.6674 C   0  0  0  0  0  0  0  0  0  0  0  0
    4.2211   -3.0665   34.6539 O   0  0  0  0  0  0  0  0  0  0  0  0
    2.2282   -3.3160   35.8749 C   0  0  0  0  0  0  0  0  0  0  0  0
    2.7206   -2.7588   37.0685 C   0  0  0  0  0  0  0  0  0  0  0  0
    2.0104   -2.9022   38.2523 C   0  0  0  0  0  0  0  0  0  0  0  0
    2.4847   -2.3526   39.3790 F   0  0  0  0  0  0  0  0  0  0  0  0
    0.8041   -3.5821   38.2606 C   0  0  0  0  0  0  0  0  0  0  0  0
    0.1056   -3.7087   39.3973 F   0  0  0  0  0  0  0  0  0  0  0  0
    0.3068   -4.1458   37.0898 C   0  0  0  0  0  0  0  0  0  0  0  0
    1.0277   -4.0444   35.8859 C   0  0  0  0  0  0  0  0  0  0  0  0
    0.4854   -4.7701   34.8202 N   0  0  0  0  0  0  0  0  0  0  0  0
    1.1219   -5.2221   33.4865 C   0  0  0  0  0  0  0  0  0  0  0  0
    2.1731   -4.9940   33.0349 O   0  0  0  0  0  0  0  0  0  0  0  0
    0.2119   -6.1002   32.6921 C   0  0  0  0  0  0  0  0  0  0  0  0
    0.2896   -5.9515   31.3023 C   0  0  0  0  0  0  0  0  0  0  0  0
   -0.4920   -6.7511   30.4941 C   0  0  0  0  0  0  0  0  0  0  0  0
   -1.3682   -7.6483   30.9723 N   0  0  0  0  0  0  0  0  0  0  0  0
   -1.3912   -7.8060   32.3184 C   0  0  0  0  0  0  0  0  0  0  0  0
   -2.6070   -9.1115   32.8928 Br  0  0  0  0  0  0  0  0  0  0  0  0
   -0.6220   -7.0830   33.2274 C   0  0  0  0  0  0  0  0  0  0  0  0
   -0.6795   -7.4388   34.9231 Cl  0  0  0  0  0  0  0  0  0  0  0  0
  1  2  1  0
  2  3  2  0
  2  4  1  0
  4  5  2  0
  5  6  1  0
  6  7  1  0
  6  8  2  0
  8  9  1  0
  8 10  1  0
 10 11  2  0
 11 12  1  0
 12 13  1  0
 13 14  2  0
 13 15  1  0
 15 16  2  0
 16 17  1  0
 17 18  2  0
 18 19  1  0
 19 20  1  0
 19 21  2  0
 21 22  1  0
 11  4  1  0
 21 15  1  0
M  END
>  <ref_mols>  (693) 
7gov-a

>  <gnina_score>  (693) 
5.312

>  <smina_score_min>  (693) 
-4.872

>  <ref_pdb>  (693) 
7gov-a

>  <inspiration_score>  (693) 
None

>  <inchikey>  (693) 
KVZBTKHBQMLISH-UHFFFAOYSA-N

>  <tags>  (693) 
BulkDock Fragalysis export,openbind_d68ev3c_c2_elabs_scored,openbind_d68ev3c_c2_elabs_scored_4.5plus,openbind_d68ev3c_c2_elabs,openbind_d68ev3c_c2_elabs_scored_5plus,syndirella_product,openbind_d68ev3c_c2_elabs_scored_top80percent,syndirella_placed

>  <smiles>  (693) 
CC(=O)c1cc(F)c(F)cc1NC(=O)c1ccnc(Br)c1Cl

>  <subsites>  (693) 
None

>  <rmsd(smina/fragmenstein)>  (693) 
2.096

>  <alias>  (693) 
None

>  <energy_score>  (693) 
-15.192418

>  <HIPPO Pose ID>  (693) 
66612

>  <distance_score>  (693) 
1.298256

>  <HIPPO Compound ID>  (693) 
105233

>  <gnina_score_min>  (693) 
5.123

>  <name>  (693) 
P66612

>  <exports>  (693) 
['/opt/xchem-fragalysis-2/maxwin/BulkDock/OUTPUTS/openbind_d68ev3c_c2_elabs_1LOTQJ3.sdf', '/opt/xchem-fragalysis-2/maxwin/BulkDock/OUTPUTS/openbind_d68ev3c_c2_elabs_1LSYEHW.sdf', '/opt/xchem-fragalysis-2/maxwin/BulkDock/OUTPUTS/openbind_d68ev3c_c2_elabs_1LSYI5W.sdf']

$$$$
P66613
     RDKit          3D

 22 23  0  0  0  0  0  0  0  0999 V2000
    4.4386   -3.6337   34.6182 C   0  0  0  0  0  0  0  0  0  0  0  0
    2.9670   -3.9567   34.6248 C   0  0  0  0  0  0  0  0  0  0  0  0
    2.3943   -4.3191   33.5965 O   0  0  0  0  0  0  0  0  0  0  0  0
    2.1988   -3.8164   35.9014 C   0  0  0  0  0  0  0  0  0  0  0  0
    2.6744   -2.9755   36.9193 C   0  0  0  0  0  0  0  0  0  0  0  0
    1.9735   -2.8718   38.1224 C   0  0  0  0  0  0  0  0  0  0  0  0
    2.6539   -1.7659   39.4984 Br  0  0  0  0  0  0  0  0  0  0  0  0
    0.7911   -3.5808   38.3054 C   0  0  0  0  0  0  0  0  0  0  0  0
    0.1090   -3.4931   39.4567 F   0  0  0  0  0  0  0  0  0  0  0  0
    0.2916   -4.3927   37.2943 C   0  0  0  0  0  0  0  0  0  0  0  0
    0.9924   -4.5213   36.0907 C   0  0  0  0  0  0  0  0  0  0  0  0
    0.4819   -5.3283   35.0758 N   0  0  0  0  0  0  0  0  0  0  0  0
   -0.7956   -6.1962   35.0305 C   0  0  0  0  0  0  0  0  0  0  0  0
   -1.6585   -6.3109   35.8059 O   0  0  0  0  0  0  0  0  0  0  0  0
   -0.9700   -6.9231   33.7158 C   0  0  0  0  0  0  0  0  0  0  0  0
   -0.4055   -6.4292   32.5323 C   0  0  0  0  0  0  0  0  0  0  0  0
   -0.6016   -7.1347   31.3620 C   0  0  0  0  0  0  0  0  0  0  0  0
   -0.0052   -6.7016   30.2220 O   0  0  0  0  0  0  0  0  0  0  0  0
   -1.3299   -8.2527   31.2396 N   0  0  0  0  0  0  0  0  0  0  0  0
   -1.9067   -8.6858   32.3806 C   0  0  0  0  0  0  0  0  0  0  0  0
   -1.7791   -8.0665   33.6180 C   0  0  0  0  0  0  0  0  0  0  0  0
   -2.8453   -8.8068   34.9927 Br  0  0  0  0  0  0  0  0  0  0  0  0
  1  2  1  0
  2  3  2  0
  2  4  1  0
  4  5  2  0
  5  6  1  0
  6  7  1  0
  6  8  2  0
  8  9  1  0
  8 10  1  0
 10 11  2  0
 11 12  1  0
 12 13  1  0
 13 14  2  0
 13 15  1  0
 15 16  2  0
 16 17  1  0
 17 18  1  0
 17 19  2  0
 19 20  1  0
 20 21  2  0
 21 22  1  0
 11  4  1  0
 21 15  1  0
M  END
>  <ref_mols>  (694) 
7gov-a

>  <gnina_score>  (694) 
5.245

>  <smina_score_min>  (694) 
-6.034

>  <ref_pdb>  (694) 
7gov-a

>  <inspiration_score>  (694) 
None

>  <inchikey>  (694) 
GLPCPTLXROKNFF-UHFFFAOYSA-N

>  <tags>  (694) 
BulkDock Fragalysis export,openbind_d68ev3c_c2_elabs_scored,openbind_d68ev3c_c2_elabs_scored_4.5plus,openbind_d68ev3c_c2_elabs,openbind_d68ev3c_c2_elabs_scored_5plus,syndirella_product,openbind_d68ev3c_c2_elabs_scored_top80percent,syndirella_placed

>  <smiles>  (694) 
CC(=O)c1cc(Br)c(F)cc1NC(=O)c1cc(O)ncc1Br

>  <subsites>  (694) 
None

>  <rmsd(smina/fragmenstein)>  (694) 
1.15

>  <alias>  (694) 
None

>  <energy_score>  (694) 
-37.331312

>  <HIPPO Pose ID>  (694) 
66613

>  <distance_score>  (694) 
0.827769

>  <HIPPO Compound ID>  (694) 
105234

>  <gnina_score_min>  (694) 
5.135

>  <name>  (694) 
P66613

>  <exports>  (694) 
['/opt/xchem-fragalysis-2/maxwin/BulkDock/OUTPUTS/openbind_d68ev3c_c2_elabs_1LOTQJ3.sdf', '/opt/xchem-fragalysis-2/maxwin/BulkDock/OUTPUTS/openbind_d68ev3c_c2_elabs_1LSYEHW.sdf', '/opt/xchem-fragalysis-2/maxwin/BulkDock/OUTPUTS/openbind_d68ev3c_c2_elabs_1LSYI5W.sdf']

$$$$
P66616
     RDKit          3D

 22 23  0  0  0  0  0  0  0  0999 V2000
    3.9480   -3.2895   34.3365 C   0  0  0  0  0  0  0  0  0  0  0  0
    2.4728   -3.5657   34.4618 C   0  0  0  0  0  0  0  0  0  0  0  0
    1.7685   -3.7651   33.4720 O   0  0  0  0  0  0  0  0  0  0  0  0
    1.8590   -3.5778   35.8209 C   0  0  0  0  0  0  0  0  0  0  0  0
    2.3973   -2.7801   36.8436 C   0  0  0  0  0  0  0  0  0  0  0  0
    1.8618   -2.8362   38.1323 C   0  0  0  0  0  0  0  0  0  0  0  0
    0.8011   -3.6939   38.3989 C   0  0  0  0  0  0  0  0  0  0  0  0
    0.2776   -3.7226   39.6323 F   0  0  0  0  0  0  0  0  0  0  0  0
    0.2685   -4.4963   37.3979 C   0  0  0  0  0  0  0  0  0  0  0  0
   -0.7878   -5.2700   37.6895 F   0  0  0  0  0  0  0  0  0  0  0  0
    0.7808   -4.4373   36.0977 C   0  0  0  0  0  0  0  0  0  0  0  0
    0.2250   -5.2177   35.0855 N   0  0  0  0  0  0  0  0  0  0  0  0
   -0.3422   -6.6504   35.1231 C   0  0  0  0  0  0  0  0  0  0  0  0
   -0.5045   -7.3746   36.0208 O   0  0  0  0  0  0  0  0  0  0  0  0
   -0.7825   -7.1440   33.7711 C   0  0  0  0  0  0  0  0  0  0  0  0
   -0.1448   -6.7203   32.5998 C   0  0  0  0  0  0  0  0  0  0  0  0
   -0.5669   -7.2447   31.3945 C   0  0  0  0  0  0  0  0  0  0  0  0
    0.0167   -6.8148   30.2462 O   0  0  0  0  0  0  0  0  0  0  0  0
   -1.5159   -8.1797   31.2447 N   0  0  0  0  0  0  0  0  0  0  0  0
   -2.1064   -8.5862   32.3890 C   0  0  0  0  0  0  0  0  0  0  0  0
   -1.8059   -8.0956   33.6520 C   0  0  0  0  0  0  0  0  0  0  0  0
   -2.9401   -8.7038   35.0386 Br  0  0  0  0  0  0  0  0  0  0  0  0
  1  2  1  0
  2  3  2  0
  2  4  1  0
  4  5  2  0
  5  6  1  0
  6  7  2  0
  7  8  1  0
  7  9  1  0
  9 10  1  0
  9 11  2  0
 11 12  1  0
 12 13  1  0
 13 14  2  0
 13 15  1  0
 15 16  2  0
 16 17  1  0
 17 18  1  0
 17 19  2  0
 19 20  1  0
 20 21  2  0
 21 22  1  0
 11  4  1  0
 21 15  1  0
M  END
>  <ref_mols>  (695) 
7gov-a

>  <gnina_score>  (695) 
5.2

>  <smina_score_min>  (695) 
-5.681

>  <ref_pdb>  (695) 
7gov-a

>  <inspiration_score>  (695) 
None

>  <inchikey>  (695) 
DPHXWKDOUMIYSQ-UHFFFAOYSA-N

>  <tags>  (695) 
BulkDock Fragalysis export,openbind_d68ev3c_c2_elabs_scored,openbind_d68ev3c_c2_elabs_scored_4.5plus,openbind_d68ev3c_c2_elabs,openbind_d68ev3c_c2_elabs_scored_5plus,syndirella_product,openbind_d68ev3c_c2_elabs_scored_top80percent,syndirella_placed

>  <smiles>  (695) 
CC(=O)c1ccc(F)c(F)c1NC(=O)c1cc(O)ncc1Br

>  <subsites>  (695) 
None

>  <rmsd(smina/fragmenstein)>  (695) 
0.497

>  <alias>  (695) 
None

>  <energy_score>  (695) 
-35.129923

>  <HIPPO Pose ID>  (695) 
66616

>  <distance_score>  (695) 
0.562334

>  <HIPPO Compound ID>  (695) 
105242

>  <gnina_score_min>  (695) 
5.101

>  <name>  (695) 
P66616

>  <exports>  (695) 
['/opt/xchem-fragalysis-2/maxwin/BulkDock/OUTPUTS/openbind_d68ev3c_c2_elabs_1LOTQJ3.sdf', '/opt/xchem-fragalysis-2/maxwin/BulkDock/OUTPUTS/openbind_d68ev3c_c2_elabs_1LSYEHW.sdf', '/opt/xchem-fragalysis-2/maxwin/BulkDock/OUTPUTS/openbind_d68ev3c_c2_elabs_1LSYI5W.sdf']

$$$$
P66617
     RDKit          3D

 22 23  0  0  0  0  0  0  0  0999 V2000
    4.5342   -3.7086   34.6557 C   0  0  0  0  0  0  0  0  0  0  0  0
    3.0422   -3.9128   34.5907 C   0  0  0  0  0  0  0  0  0  0  0  0
    2.4912   -4.1809   33.5254 O   0  0  0  0  0  0  0  0  0  0  0  0
    2.2365   -3.7652   35.8385 C   0  0  0  0  0  0  0  0  0  0  0  0
    2.7206   -2.9558   36.8802 C   0  0  0  0  0  0  0  0  0  0  0  0
    2.0129   -2.8571   38.0794 C   0  0  0  0  0  0  0  0  0  0  0  0
    2.7088   -1.7969   39.4829 Br  0  0  0  0  0  0  0  0  0  0  0  0
    0.8144   -3.5411   38.2371 C   0  0  0  0  0  0  0  0  0  0  0  0
    0.1234   -3.4640   39.3842 F   0  0  0  0  0  0  0  0  0  0  0  0
    0.3066   -4.3166   37.2020 C   0  0  0  0  0  0  0  0  0  0  0  0
    1.0101   -4.4386   35.9958 C   0  0  0  0  0  0  0  0  0  0  0  0
    0.4648   -5.2269   34.9793 N   0  0  0  0  0  0  0  0  0  0  0  0
   -0.7218   -6.2184   35.0043 C   0  0  0  0  0  0  0  0  0  0  0  0
   -1.4757   -6.4731   35.8572 O   0  0  0  0  0  0  0  0  0  0  0  0
   -0.9429   -6.9502   33.6989 C   0  0  0  0  0  0  0  0  0  0  0  0
   -0.3596   -6.5201   32.5052 C   0  0  0  0  0  0  0  0  0  0  0  0
    0.4232   -5.4384   32.4485 F   0  0  0  0  0  0  0  0  0  0  0  0
   -0.6264   -7.1851   31.3168 C   0  0  0  0  0  0  0  0  0  0  0  0
   -1.4610   -8.2417   31.2163 N   0  0  0  0  0  0  0  0  0  0  0  0
   -2.0141   -8.6576   32.3741 C   0  0  0  0  0  0  0  0  0  0  0  0
   -1.8098   -8.0562   33.6119 C   0  0  0  0  0  0  0  0  0  0  0  0
   -2.8758   -8.7849   34.9993 Br  0  0  0  0  0  0  0  0  0  0  0  0
  1  2  1  0
  2  3  2  0
  2  4  1  0
  4  5  2  0
  5  6  1  0
  6  7  1  0
  6  8  2  0
  8  9  1  0
  8 10  1  0
 10 11  2  0
 11 12  1  0
 12 13  1  0
 13 14  2  0
 13 15  1  0
 15 16  2  0
 16 17  1  0
 16 18  1  0
 18 19  2  0
 19 20  1  0
 20 21  2  0
 21 22  1  0
 11  4  1  0
 21 15  1  0
M  END
>  <ref_mols>  (696) 
7gov-a

>  <gnina_score>  (696) 
5.382

>  <smina_score_min>  (696) 
-5.655

>  <ref_pdb>  (696) 
7gov-a

>  <inspiration_score>  (696) 
None

>  <inchikey>  (696) 
RLGXHMUSFJKLJO-UHFFFAOYSA-N

>  <tags>  (696) 
BulkDock Fragalysis export,openbind_d68ev3c_c2_elabs_scored,openbind_d68ev3c_c2_elabs_scored_4.5plus,openbind_d68ev3c_c2_elabs,openbind_d68ev3c_c2_elabs_scored_5plus,syndirella_product,openbind_d68ev3c_c2_elabs_scored_top80percent,syndirella_placed

>  <smiles>  (696) 
CC(=O)c1cc(Br)c(F)cc1NC(=O)c1c(F)cncc1Br

>  <subsites>  (696) 
None

>  <rmsd(smina/fragmenstein)>  (696) 
1.25

>  <alias>  (696) 
None

>  <energy_score>  (696) 
-26.414783

>  <HIPPO Pose ID>  (696) 
66617

>  <distance_score>  (696) 
0.771944

>  <HIPPO Compound ID>  (696) 
105246

>  <gnina_score_min>  (696) 
5.334

>  <name>  (696) 
P66617

>  <exports>  (696) 
['/opt/xchem-fragalysis-2/maxwin/BulkDock/OUTPUTS/openbind_d68ev3c_c2_elabs_1LOTQJ3.sdf', '/opt/xchem-fragalysis-2/maxwin/BulkDock/OUTPUTS/openbind_d68ev3c_c2_elabs_1LSYEHW.sdf', '/opt/xchem-fragalysis-2/maxwin/BulkDock/OUTPUTS/openbind_d68ev3c_c2_elabs_1LSYI5W.sdf']

$$$$
P66618
     RDKit          3D

 22 23  0  0  0  0  0  0  0  0999 V2000
    2.9302   -3.8219   34.4379 C   0  0  0  0  0  0  0  0  0  0  0  0
    2.2087   -3.7439   35.7577 C   0  0  0  0  0  0  0  0  0  0  0  0
    1.0259   -4.4782   35.9831 C   0  0  0  0  0  0  0  0  0  0  0  0
    0.4904   -5.3017   34.9886 N   0  0  0  0  0  0  0  0  0  0  0  0
   -0.7136   -6.2696   35.0279 C   0  0  0  0  0  0  0  0  0  0  0  0
   -1.4918   -6.4728   35.8717 O   0  0  0  0  0  0  0  0  0  0  0  0
   -0.9299   -7.0080   33.7257 C   0  0  0  0  0  0  0  0  0  0  0  0
   -0.3081   -6.6005   32.5401 C   0  0  0  0  0  0  0  0  0  0  0  0
    0.5548   -5.5751   32.5043 F   0  0  0  0  0  0  0  0  0  0  0  0
   -0.5990   -7.2430   31.3455 C   0  0  0  0  0  0  0  0  0  0  0  0
   -1.4776   -8.2617   31.2352 N   0  0  0  0  0  0  0  0  0  0  0  0
   -2.0520   -8.6662   32.3876 C   0  0  0  0  0  0  0  0  0  0  0  0
   -1.8332   -8.0817   33.6302 C   0  0  0  0  0  0  0  0  0  0  0  0
   -2.9150   -8.7883   35.0153 Br  0  0  0  0  0  0  0  0  0  0  0  0
    0.3477   -4.3748   37.2064 C   0  0  0  0  0  0  0  0  0  0  0  0
    0.8510   -3.5810   38.2265 C   0  0  0  0  0  0  0  0  0  0  0  0
    0.1944   -3.5078   39.3917 F   0  0  0  0  0  0  0  0  0  0  0  0
    2.0244   -2.8723   38.0591 C   0  0  0  0  0  0  0  0  0  0  0  0
    2.6997   -2.9676   36.8344 C   0  0  0  0  0  0  0  0  0  0  0  0
    3.9406   -2.2060   36.7251 N   0  0  0  0  0  0  0  0  0  0  0  0
    4.9491   -2.7789   36.2916 O   0  0  0  0  0  0  0  0  0  0  0  0
    3.9022   -1.0210   37.0889 O   0  0  0  0  0  0  0  0  0  0  0  0
  1  2  1  0
  2  3  2  0
  3  4  1  0
  4  5  1  0
  5  6  2  0
  5  7  1  0
  7  8  2  0
  8  9  1  0
  8 10  1  0
 10 11  2  0
 11 12  1  0
 12 13  2  0
 13 14  1  0
  3 15  1  0
 15 16  2  0
 16 17  1  0
 16 18  1  0
 18 19  2  0
 19 20  1  0
 20 21  2  0
 20 22  1  0
 19  2  1  0
 13  7  1  0
M  CHG  2  20   1  22  -1
M  END
>  <ref_mols>  (697) 
7gov-a

>  <gnina_score>  (697) 
5.265

>  <smina_score_min>  (697) 
-5.699

>  <ref_pdb>  (697) 
7gov-a

>  <inspiration_score>  (697) 
None

>  <inchikey>  (697) 
IHWQJSBGYJIKGD-UHFFFAOYSA-N

>  <tags>  (697) 
BulkDock Fragalysis export,openbind_d68ev3c_c2_elabs_scored,openbind_d68ev3c_c2_elabs_scored_4.5plus,openbind_d68ev3c_c2_elabs,openbind_d68ev3c_c2_elabs_scored_5plus,syndirella_product,openbind_d68ev3c_c2_elabs_scored_top80percent,syndirella_placed

>  <smiles>  (697) 
Cc1c(NC(=O)c2c(F)cncc2Br)cc(F)cc1[N+](=O)[O-]

>  <subsites>  (697) 
None

>  <rmsd(smina/fragmenstein)>  (697) 
1.362

>  <alias>  (697) 
None

>  <energy_score>  (697) 
-31.186693

>  <HIPPO Pose ID>  (697) 
66618

>  <distance_score>  (697) 
0.772434

>  <HIPPO Compound ID>  (697) 
105252

>  <gnina_score_min>  (697) 
5.18

>  <name>  (697) 
P66618

>  <exports>  (697) 
['/opt/xchem-fragalysis-2/maxwin/BulkDock/OUTPUTS/openbind_d68ev3c_c2_elabs_1LOTQJ3.sdf', '/opt/xchem-fragalysis-2/maxwin/BulkDock/OUTPUTS/openbind_d68ev3c_c2_elabs_1LSYEHW.sdf', '/opt/xchem-fragalysis-2/maxwin/BulkDock/OUTPUTS/openbind_d68ev3c_c2_elabs_1LSYI5W.sdf']

$$$$
P66619
     RDKit          3D

 22 23  0  0  0  0  0  0  0  0999 V2000
    3.5526   -4.9402   34.2191 C   0  0  0  0  0  0  0  0  0  0  0  0
    2.8448   -3.6588   34.5706 C   0  0  0  0  0  0  0  0  0  0  0  0
    2.9347   -2.6427   33.8870 O   0  0  0  0  0  0  0  0  0  0  0  0
    2.0551   -3.6192   35.8175 C   0  0  0  0  0  0  0  0  0  0  0  0
    2.4927   -2.7370   36.8172 C   0  0  0  0  0  0  0  0  0  0  0  0
    1.8663   -2.7314   38.0626 C   0  0  0  0  0  0  0  0  0  0  0  0
    0.8075   -3.6005   38.2964 C   0  0  0  0  0  0  0  0  0  0  0  0
    0.1992   -3.5826   39.4909 F   0  0  0  0  0  0  0  0  0  0  0  0
    0.3604   -4.4642   37.3004 C   0  0  0  0  0  0  0  0  0  0  0  0
   -0.7142   -5.2239   37.5577 F   0  0  0  0  0  0  0  0  0  0  0  0
    0.9731   -4.4811   36.0401 C   0  0  0  0  0  0  0  0  0  0  0  0
    0.4892   -5.3045   35.0186 N   0  0  0  0  0  0  0  0  0  0  0  0
   -0.2739   -6.6431   35.0877 C   0  0  0  0  0  0  0  0  0  0  0  0
   -0.5511   -7.3073   36.0036 O   0  0  0  0  0  0  0  0  0  0  0  0
   -0.7450   -7.1357   33.7438 C   0  0  0  0  0  0  0  0  0  0  0  0
   -0.1554   -6.7004   32.5546 C   0  0  0  0  0  0  0  0  0  0  0  0
    0.8038   -5.7641   32.5437 F   0  0  0  0  0  0  0  0  0  0  0  0
   -0.5750   -7.2245   31.3407 C   0  0  0  0  0  0  0  0  0  0  0  0
   -1.5518   -8.1497   31.2191 N   0  0  0  0  0  0  0  0  0  0  0  0
   -2.1149   -8.5622   32.3752 C   0  0  0  0  0  0  0  0  0  0  0  0
   -1.7749   -8.0849   33.6350 C   0  0  0  0  0  0  0  0  0  0  0  0
   -2.8992   -8.7007   35.0294 Br  0  0  0  0  0  0  0  0  0  0  0  0
  1  2  1  0
  2  3  2  0
  2  4  1  0
  4  5  2  0
  5  6  1  0
  6  7  2  0
  7  8  1  0
  7  9  1  0
  9 10  1  0
  9 11  2  0
 11 12  1  0
 12 13  1  0
 13 14  2  0
 13 15  1  0
 15 16  2  0
 16 17  1  0
 16 18  1  0
 18 19  2  0
 19 20  1  0
 20 21  2  0
 21 22  1  0
 11  4  1  0
 21 15  1  0
M  END
>  <ref_mols>  (698) 
7gov-a

>  <gnina_score>  (698) 
5.402

>  <smina_score_min>  (698) 
-5.188

>  <ref_pdb>  (698) 
7gov-a

>  <inspiration_score>  (698) 
None

>  <inchikey>  (698) 
MRBHMUAPQYOFEO-UHFFFAOYSA-N

>  <tags>  (698) 
BulkDock Fragalysis export,openbind_d68ev3c_c2_elabs_scored,openbind_d68ev3c_c2_elabs_scored_4.5plus,openbind_d68ev3c_c2_elabs,openbind_d68ev3c_c2_elabs_scored_5plus,syndirella_product,openbind_d68ev3c_c2_elabs_scored_top80percent,syndirella_placed

>  <smiles>  (698) 
CC(=O)c1ccc(F)c(F)c1NC(=O)c1c(F)cncc1Br

>  <subsites>  (698) 
None

>  <rmsd(smina/fragmenstein)>  (698) 
1.267

>  <alias>  (698) 
None

>  <energy_score>  (698) 
-24.818102

>  <HIPPO Pose ID>  (698) 
66619

>  <distance_score>  (698) 
0.555035

>  <HIPPO Compound ID>  (698) 
105253

>  <gnina_score_min>  (698) 
5.285

>  <name>  (698) 
P66619

>  <exports>  (698) 
['/opt/xchem-fragalysis-2/maxwin/BulkDock/OUTPUTS/openbind_d68ev3c_c2_elabs_1LOTQJ3.sdf', '/opt/xchem-fragalysis-2/maxwin/BulkDock/OUTPUTS/openbind_d68ev3c_c2_elabs_1LSYEHW.sdf', '/opt/xchem-fragalysis-2/maxwin/BulkDock/OUTPUTS/openbind_d68ev3c_c2_elabs_1LSYI5W.sdf']

$$$$
P66621
     RDKit          3D

 22 23  0  0  0  0  0  0  0  0999 V2000
    3.4667   -3.8803   33.4742 C   0  0  0  0  0  0  0  0  0  0  0  0
    2.8776   -3.8218   34.5190 C   0  0  0  0  0  0  0  0  0  0  0  0
    2.1746   -3.7557   35.7679 C   0  0  0  0  0  0  0  0  0  0  0  0
    2.7114   -2.9697   36.7956 C   0  0  0  0  0  0  0  0  0  0  0  0
    2.0756   -2.9056   38.0413 C   0  0  0  0  0  0  0  0  0  0  0  0
    2.6612   -2.1580   39.1090 C   0  0  0  0  0  0  0  0  0  0  0  0
    3.1689   -1.5449   39.9548 N   0  0  0  0  0  0  0  0  0  0  0  0
    0.8855   -3.5974   38.2383 C   0  0  0  0  0  0  0  0  0  0  0  0
    0.2509   -3.5416   39.4188 F   0  0  0  0  0  0  0  0  0  0  0  0
    0.3332   -4.3679   37.2207 C   0  0  0  0  0  0  0  0  0  0  0  0
    0.9849   -4.4689   35.9871 C   0  0  0  0  0  0  0  0  0  0  0  0
    0.4433   -5.2755   34.9856 N   0  0  0  0  0  0  0  0  0  0  0  0
   -0.7413   -6.2630   35.0254 C   0  0  0  0  0  0  0  0  0  0  0  0
   -1.4976   -6.5002   35.8793 O   0  0  0  0  0  0  0  0  0  0  0  0
   -0.9541   -6.9970   33.7200 C   0  0  0  0  0  0  0  0  0  0  0  0
   -0.3332   -6.5856   32.5353 C   0  0  0  0  0  0  0  0  0  0  0  0
    0.5156   -5.5489   32.4981 F   0  0  0  0  0  0  0  0  0  0  0  0
   -0.6114   -7.2356   31.3418 C   0  0  0  0  0  0  0  0  0  0  0  0
   -1.4778   -8.2645   31.2311 N   0  0  0  0  0  0  0  0  0  0  0  0
   -2.0520   -8.6721   32.3826 C   0  0  0  0  0  0  0  0  0  0  0  0
   -1.8446   -8.0817   33.6243 C   0  0  0  0  0  0  0  0  0  0  0  0
   -2.9260   -8.7960   35.0067 Br  0  0  0  0  0  0  0  0  0  0  0  0
  1  2  3  0
  2  3  1  0
  3  4  2  0
  4  5  1  0
  5  6  1  0
  6  7  3  0
  5  8  2  0
  8  9  1  0
  8 10  1  0
 10 11  2  0
 11 12  1  0
 12 13  1  0
 13 14  2  0
 13 15  1  0
 15 16  2  0
 16 17  1  0
 16 18  1  0
 18 19  2  0
 19 20  1  0
 20 21  2  0
 21 22  1  0
 11  3  1  0
 21 15  1  0
M  END
>  <ref_mols>  (699) 
7gov-a

>  <gnina_score>  (699) 
5.343

>  <smina_score_min>  (699) 
-5.369

>  <ref_pdb>  (699) 
7gov-a

>  <inspiration_score>  (699) 
None

>  <inchikey>  (699) 
LTWFSIPXIDTVOJ-UHFFFAOYSA-N

>  <tags>  (699) 
BulkDock Fragalysis export,openbind_d68ev3c_c2_elabs_scored,openbind_d68ev3c_c2_elabs_scored_4.5plus,openbind_d68ev3c_c2_elabs,openbind_d68ev3c_c2_elabs_scored_5plus,syndirella_product,openbind_d68ev3c_c2_elabs_scored_top80percent,syndirella_placed

>  <smiles>  (699) 
C#Cc1cc(C#N)c(F)cc1NC(=O)c1c(F)cncc1Br

>  <subsites>  (699) 
None

>  <rmsd(smina/fragmenstein)>  (699) 
1.327

>  <alias>  (699) 
None

>  <energy_score>  (699) 
-28.918252

>  <HIPPO Pose ID>  (699) 
66621

>  <distance_score>  (699) 
0.773658

>  <HIPPO Compound ID>  (699) 
105256

>  <gnina_score_min>  (699) 
5.254

>  <name>  (699) 
P66621

>  <exports>  (699) 
['/opt/xchem-fragalysis-2/maxwin/BulkDock/OUTPUTS/openbind_d68ev3c_c2_elabs_1LOTQJ3.sdf', '/opt/xchem-fragalysis-2/maxwin/BulkDock/OUTPUTS/openbind_d68ev3c_c2_elabs_1LSYEHW.sdf', '/opt/xchem-fragalysis-2/maxwin/BulkDock/OUTPUTS/openbind_d68ev3c_c2_elabs_1LSYI5W.sdf']

$$$$
P66622
     RDKit          3D

 22 23  0  0  0  0  0  0  0  0999 V2000
    3.1724   -3.6131   33.4157 C   0  0  0  0  0  0  0  0  0  0  0  0
    2.6433   -3.6198   34.4937 C   0  0  0  0  0  0  0  0  0  0  0  0
    2.0142   -3.6286   35.7840 C   0  0  0  0  0  0  0  0  0  0  0  0
    2.5683   -2.8332   36.7961 C   0  0  0  0  0  0  0  0  0  0  0  0
    2.0146   -2.8415   38.0771 C   0  0  0  0  0  0  0  0  0  0  0  0
    2.7149   -1.8566   39.3049 Cl  0  0  0  0  0  0  0  0  0  0  0  0
    0.9032   -3.6296   38.3489 C   0  0  0  0  0  0  0  0  0  0  0  0
    0.3341   -3.6162   39.5647 F   0  0  0  0  0  0  0  0  0  0  0  0
    0.3543   -4.4253   37.3511 C   0  0  0  0  0  0  0  0  0  0  0  0
   -0.7535   -5.1210   37.6436 F   0  0  0  0  0  0  0  0  0  0  0  0
    0.9039   -4.4443   36.0612 C   0  0  0  0  0  0  0  0  0  0  0  0
    0.3523   -5.2442   35.0538 N   0  0  0  0  0  0  0  0  0  0  0  0
   -0.4607   -6.5526   35.1454 C   0  0  0  0  0  0  0  0  0  0  0  0
   -0.8635   -7.1272   36.0752 O   0  0  0  0  0  0  0  0  0  0  0  0
   -0.8373   -7.1218   33.7953 C   0  0  0  0  0  0  0  0  0  0  0  0
   -0.2152   -6.7023   32.6150 C   0  0  0  0  0  0  0  0  0  0  0  0
    0.7245   -5.7466   32.6080 F   0  0  0  0  0  0  0  0  0  0  0  0
   -0.5812   -7.2592   31.3973 C   0  0  0  0  0  0  0  0  0  0  0  0
   -1.5330   -8.2064   31.2587 N   0  0  0  0  0  0  0  0  0  0  0  0
   -2.1180   -8.6157   32.4045 C   0  0  0  0  0  0  0  0  0  0  0  0
   -1.8320   -8.1081   33.6679 C   0  0  0  0  0  0  0  0  0  0  0  0
   -2.9820   -8.7507   35.0318 Br  0  0  0  0  0  0  0  0  0  0  0  0
  1  2  3  0
  2  3  1  0
  3  4  2  0
  4  5  1  0
  5  6  1  0
  5  7  2  0
  7  8  1  0
  7  9  1  0
  9 10  1  0
  9 11  2  0
 11 12  1  0
 12 13  1  0
 13 14  2  0
 13 15  1  0
 15 16  2  0
 16 17  1  0
 16 18  1  0
 18 19  2  0
 19 20  1  0
 20 21  2  0
 21 22  1  0
 11  3  1  0
 21 15  1  0
M  END
>  <ref_mols>  (700) 
7gov-a

>  <gnina_score>  (700) 
5.577

>  <smina_score_min>  (700) 
-5.289

>  <ref_pdb>  (700) 
7gov-a

>  <inspiration_score>  (700) 
None

>  <inchikey>  (700) 
MKTXVFLSNCZSII-UHFFFAOYSA-N

>  <tags>  (700) 
BulkDock Fragalysis export,openbind_d68ev3c_c2_elabs_scored,openbind_d68ev3c_c2_elabs_scored_4.5plus,openbind_d68ev3c_c2_elabs,openbind_d68ev3c_c2_elabs_scored_5plus,syndirella_product,openbind_d68ev3c_c2_elabs_scored_top80percent,syndirella_placed

>  <smiles>  (700) 
C#Cc1cc(Cl)c(F)c(F)c1NC(=O)c1c(F)cncc1Br

>  <subsites>  (700) 
None

>  <rmsd(smina/fragmenstein)>  (700) 
0.824

>  <alias>  (700) 
None

>  <energy_score>  (700) 
-20.539183

>  <HIPPO Pose ID>  (700) 
66622

>  <distance_score>  (700) 
0.629805

>  <HIPPO Compound ID>  (700) 
105257

>  <gnina_score_min>  (700) 
5.49

>  <name>  (700) 
P66622

>  <exports>  (700) 
['/opt/xchem-fragalysis-2/maxwin/BulkDock/OUTPUTS/openbind_d68ev3c_c2_elabs_1LOTQJ3.sdf', '/opt/xchem-fragalysis-2/maxwin/BulkDock/OUTPUTS/openbind_d68ev3c_c2_elabs_1LSYEHW.sdf', '/opt/xchem-fragalysis-2/maxwin/BulkDock/OUTPUTS/openbind_d68ev3c_c2_elabs_1LSYI5W.sdf']

$$$$
P66623
     RDKit          3D

 22 23  0  0  0  0  0  0  0  0999 V2000
    1.1711   -2.0586   32.1272 C   0  0  0  0  0  0  0  0  0  0  0  0
    0.9960   -2.6371   33.4229 O   0  0  0  0  0  0  0  0  0  0  0  0
    1.6925   -2.0020   34.4045 C   0  0  0  0  0  0  0  0  0  0  0  0
    2.4145   -1.0310   34.2327 O   0  0  0  0  0  0  0  0  0  0  0  0
    1.4269   -2.5950   35.7466 C   0  0  0  0  0  0  0  0  0  0  0  0
    1.8023   -1.8221   36.8603 C   0  0  0  0  0  0  0  0  0  0  0  0
    1.5557   -2.2695   38.1601 C   0  0  0  0  0  0  0  0  0  0  0  0
    0.9455   -3.4979   38.3521 C   0  0  0  0  0  0  0  0  0  0  0  0
    0.6213   -3.8902   39.5909 F   0  0  0  0  0  0  0  0  0  0  0  0
    0.6353   -4.3099   37.2720 C   0  0  0  0  0  0  0  0  0  0  0  0
    0.8821   -3.8706   35.9656 C   0  0  0  0  0  0  0  0  0  0  0  0
    0.5359   -4.7215   34.9230 N   0  0  0  0  0  0  0  0  0  0  0  0
    0.4188   -6.2571   34.8813 C   0  0  0  0  0  0  0  0  0  0  0  0
    0.6684   -7.0564   35.6926 O   0  0  0  0  0  0  0  0  0  0  0  0
   -0.2043   -6.7179   33.6190 C   0  0  0  0  0  0  0  0  0  0  0  0
    0.3095   -6.3266   32.3792 C   0  0  0  0  0  0  0  0  0  0  0  0
   -0.2740   -6.8443   31.2344 C   0  0  0  0  0  0  0  0  0  0  0  0
   -1.3124   -7.7016   31.2496 N   0  0  0  0  0  0  0  0  0  0  0  0
   -1.7582   -8.0656   32.4740 C   0  0  0  0  0  0  0  0  0  0  0  0
   -3.0365   -9.1807   32.3803 Cl  0  0  0  0  0  0  0  0  0  0  0  0
   -1.2790   -7.5987   33.6826 C   0  0  0  0  0  0  0  0  0  0  0  0
   -2.0578   -8.0261   35.1611 Cl  0  0  0  0  0  0  0  0  0  0  0  0
  1  2  1  0
  2  3  1  0
  3  4  2  0
  3  5  1  0
  5  6  2  0
  6  7  1  0
  7  8  2  0
  8  9  1  0
  8 10  1  0
 10 11  2  0
 11 12  1  0
 12 13  1  0
 13 14  2  0
 13 15  1  0
 15 16  2  0
 16 17  1  0
 17 18  2  0
 18 19  1  0
 19 20  1  0
 19 21  2  0
 21 22  1  0
 11  5  1  0
 21 15  1  0
M  END
>  <ref_mols>  (701) 
7gov-a

>  <gnina_score>  (701) 
5.158

>  <smina_score_min>  (701) 
-5.285

>  <ref_pdb>  (701) 
7gov-a

>  <inspiration_score>  (701) 
None

>  <inchikey>  (701) 
CVHYHBGUBRBAPL-UHFFFAOYSA-N

>  <tags>  (701) 
BulkDock Fragalysis export,openbind_d68ev3c_c2_elabs_scored,openbind_d68ev3c_c2_elabs_scored_4.5plus,openbind_d68ev3c_c2_elabs,openbind_d68ev3c_c2_elabs_scored_5plus,syndirella_product,openbind_d68ev3c_c2_elabs_scored_top80percent,syndirella_placed

>  <smiles>  (701) 
COC(=O)c1ccc(F)cc1NC(=O)c1ccnc(Cl)c1Cl

>  <subsites>  (701) 
None

>  <rmsd(smina/fragmenstein)>  (701) 
1.488

>  <alias>  (701) 
None

>  <energy_score>  (701) 
-24.284398

>  <HIPPO Pose ID>  (701) 
66623

>  <distance_score>  (701) 
0.971945

>  <HIPPO Compound ID>  (701) 
105259

>  <gnina_score_min>  (701) 
5.156

>  <name>  (701) 
P66623

>  <exports>  (701) 
['/opt/xchem-fragalysis-2/maxwin/BulkDock/OUTPUTS/openbind_d68ev3c_c2_elabs_1LOTQJ3.sdf', '/opt/xchem-fragalysis-2/maxwin/BulkDock/OUTPUTS/openbind_d68ev3c_c2_elabs_1LSYEHW.sdf', '/opt/xchem-fragalysis-2/maxwin/BulkDock/OUTPUTS/openbind_d68ev3c_c2_elabs_1LSYI5W.sdf']

$$$$
P66624
     RDKit          3D

 22 23  0  0  0  0  0  0  0  0999 V2000
    2.9245   -3.8800   34.4593 C   0  0  0  0  0  0  0  0  0  0  0  0
    2.1797   -3.7826   35.7616 C   0  0  0  0  0  0  0  0  0  0  0  0
    2.7158   -3.0011   36.7981 C   0  0  0  0  0  0  0  0  0  0  0  0
    2.0688   -2.9486   38.0400 C   0  0  0  0  0  0  0  0  0  0  0  0
    2.6715   -2.1959   39.1192 N   0  0  0  0  0  0  0  0  0  0  0  0
    3.1848   -1.1050   38.8254 O   0  0  0  0  0  0  0  0  0  0  0  0
    2.6711   -2.6916   40.2545 O   0  0  0  0  0  0  0  0  0  0  0  0
    0.8746   -3.6181   38.2516 C   0  0  0  0  0  0  0  0  0  0  0  0
    0.2161   -3.5399   39.4166 F   0  0  0  0  0  0  0  0  0  0  0  0
    0.3255   -4.3789   37.2262 C   0  0  0  0  0  0  0  0  0  0  0  0
    0.9832   -4.4852   35.9926 C   0  0  0  0  0  0  0  0  0  0  0  0
    0.4415   -5.2908   34.9935 N   0  0  0  0  0  0  0  0  0  0  0  0
   -0.7493   -6.2714   35.0324 C   0  0  0  0  0  0  0  0  0  0  0  0
   -1.5103   -6.5010   35.8842 O   0  0  0  0  0  0  0  0  0  0  0  0
   -0.9599   -7.0058   33.7270 C   0  0  0  0  0  0  0  0  0  0  0  0
   -0.3331   -6.5964   32.5443 C   0  0  0  0  0  0  0  0  0  0  0  0
    0.5245   -5.5659   32.5117 F   0  0  0  0  0  0  0  0  0  0  0  0
   -0.6114   -7.2437   31.3495 C   0  0  0  0  0  0  0  0  0  0  0  0
   -1.4817   -8.2689   31.2364 N   0  0  0  0  0  0  0  0  0  0  0  0
   -2.0600   -8.6757   32.3863 C   0  0  0  0  0  0  0  0  0  0  0  0
   -1.8534   -8.0874   33.6289 C   0  0  0  0  0  0  0  0  0  0  0  0
   -2.9374   -8.7998   35.0100 Br  0  0  0  0  0  0  0  0  0  0  0  0
  1  2  1  0
  2  3  2  0
  3  4  1  0
  4  5  1  0
  5  6  2  0
  5  7  1  0
  4  8  2  0
  8  9  1  0
  8 10  1  0
 10 11  2  0
 11 12  1  0
 12 13  1  0
 13 14  2  0
 13 15  1  0
 15 16  2  0
 16 17  1  0
 16 18  1  0
 18 19  2  0
 19 20  1  0
 20 21  2  0
 21 22  1  0
 11  2  1  0
 21 15  1  0
M  CHG  2   5   1   7  -1
M  END
>  <ref_mols>  (702) 
7gov-a

>  <gnina_score>  (702) 
5.185

>  <smina_score_min>  (702) 
-5.404

>  <ref_pdb>  (702) 
7gov-a

>  <inspiration_score>  (702) 
None

>  <inchikey>  (702) 
HGZMVQXLZKUNKG-UHFFFAOYSA-N

>  <tags>  (702) 
BulkDock Fragalysis export,openbind_d68ev3c_c2_elabs_scored,openbind_d68ev3c_c2_elabs_scored_4.5plus,openbind_d68ev3c_c2_elabs,openbind_d68ev3c_c2_elabs_scored_5plus,syndirella_product,openbind_d68ev3c_c2_elabs_scored_top80percent,syndirella_placed

>  <smiles>  (702) 
Cc1cc([N+](=O)[O-])c(F)cc1NC(=O)c1c(F)cncc1Br

>  <subsites>  (702) 
None

>  <rmsd(smina/fragmenstein)>  (702) 
1.377

>  <alias>  (702) 
None

>  <energy_score>  (702) 
-40.990404

>  <HIPPO Pose ID>  (702) 
66624

>  <distance_score>  (702) 
0.774003

>  <HIPPO Compound ID>  (702) 
105267

>  <gnina_score_min>  (702) 
5.181

>  <name>  (702) 
P66624

>  <exports>  (702) 
['/opt/xchem-fragalysis-2/maxwin/BulkDock/OUTPUTS/openbind_d68ev3c_c2_elabs_1LOTQJ3.sdf', '/opt/xchem-fragalysis-2/maxwin/BulkDock/OUTPUTS/openbind_d68ev3c_c2_elabs_1LSYEHW.sdf', '/opt/xchem-fragalysis-2/maxwin/BulkDock/OUTPUTS/openbind_d68ev3c_c2_elabs_1LSYI5W.sdf']

$$$$
P66625
     RDKit          3D

 22 23  0  0  0  0  0  0  0  0999 V2000
    3.6837   -5.1846   34.3189 C   0  0  0  0  0  0  0  0  0  0  0  0
    3.0630   -3.8542   34.6453 C   0  0  0  0  0  0  0  0  0  0  0  0
    3.2704   -2.8493   33.9704 O   0  0  0  0  0  0  0  0  0  0  0  0
    2.2240   -3.7505   35.8553 C   0  0  0  0  0  0  0  0  0  0  0  0
    2.6585   -2.8511   36.8385 C   0  0  0  0  0  0  0  0  0  0  0  0
    1.9559   -2.7524   38.0321 C   0  0  0  0  0  0  0  0  0  0  0  0
    2.3879   -1.9110   38.9819 F   0  0  0  0  0  0  0  0  0  0  0  0
    0.8172   -3.5174   38.2408 C   0  0  0  0  0  0  0  0  0  0  0  0
    0.1431   -3.4256   39.3957 F   0  0  0  0  0  0  0  0  0  0  0  0
    0.3580   -4.3825   37.2525 C   0  0  0  0  0  0  0  0  0  0  0  0
    1.0593   -4.5118   36.0458 C   0  0  0  0  0  0  0  0  0  0  0  0
    0.5612   -5.3697   35.0609 N   0  0  0  0  0  0  0  0  0  0  0  0
   -0.6510   -6.3275   35.0842 C   0  0  0  0  0  0  0  0  0  0  0  0
   -1.3757   -6.6067   35.9530 O   0  0  0  0  0  0  0  0  0  0  0  0
   -0.9079   -7.0108   33.7573 C   0  0  0  0  0  0  0  0  0  0  0  0
   -0.2834   -6.5884   32.5788 C   0  0  0  0  0  0  0  0  0  0  0  0
    0.6007   -5.5806   32.5669 F   0  0  0  0  0  0  0  0  0  0  0  0
   -0.5855   -7.2021   31.3708 C   0  0  0  0  0  0  0  0  0  0  0  0
   -1.4776   -8.2073   31.2406 N   0  0  0  0  0  0  0  0  0  0  0  0
   -2.0582   -8.6245   32.3851 C   0  0  0  0  0  0  0  0  0  0  0  0
   -1.8306   -8.0671   33.6390 C   0  0  0  0  0  0  0  0  0  0  0  0
   -2.9286   -8.7862   35.0065 Br  0  0  0  0  0  0  0  0  0  0  0  0
  1  2  1  0
  2  3  2  0
  2  4  1  0
  4  5  2  0
  5  6  1  0
  6  7  1  0
  6  8  2  0
  8  9  1  0
  8 10  1  0
 10 11  2  0
 11 12  1  0
 12 13  1  0
 13 14  2  0
 13 15  1  0
 15 16  2  0
 16 17  1  0
 16 18  1  0
 18 19  2  0
 19 20  1  0
 20 21  2  0
 21 22  1  0
 11  4  1  0
 21 15  1  0
M  END
>  <ref_mols>  (703) 
7gov-a

>  <gnina_score>  (703) 
5.315

>  <smina_score_min>  (703) 
-5.447

>  <ref_pdb>  (703) 
7gov-a

>  <inspiration_score>  (703) 
None

>  <inchikey>  (703) 
GCERVCNQUUIFBW-UHFFFAOYSA-N

>  <tags>  (703) 
BulkDock Fragalysis export,openbind_d68ev3c_c2_elabs_scored,openbind_d68ev3c_c2_elabs_scored_4.5plus,openbind_d68ev3c_c2_elabs,openbind_d68ev3c_c2_elabs_scored_5plus,syndirella_product,openbind_d68ev3c_c2_elabs_scored_top80percent,syndirella_placed

>  <smiles>  (703) 
CC(=O)c1cc(F)c(F)cc1NC(=O)c1c(F)cncc1Br

>  <subsites>  (703) 
None

>  <rmsd(smina/fragmenstein)>  (703) 
2.084

>  <alias>  (703) 
None

>  <energy_score>  (703) 
-34.284111

>  <HIPPO Pose ID>  (703) 
66625

>  <distance_score>  (703) 
0.757023

>  <HIPPO Compound ID>  (703) 
105269

>  <gnina_score_min>  (703) 
5.277

>  <name>  (703) 
P66625

>  <exports>  (703) 
['/opt/xchem-fragalysis-2/maxwin/BulkDock/OUTPUTS/openbind_d68ev3c_c2_elabs_1LOTQJ3.sdf', '/opt/xchem-fragalysis-2/maxwin/BulkDock/OUTPUTS/openbind_d68ev3c_c2_elabs_1LSYEHW.sdf', '/opt/xchem-fragalysis-2/maxwin/BulkDock/OUTPUTS/openbind_d68ev3c_c2_elabs_1LSYI5W.sdf']

$$$$
P66626
     RDKit          3D

 22 24  0  0  0  0  0  0  0  0999 V2000
    4.4295   -2.2178   37.2540 O   0  0  0  0  0  0  0  0  0  0  0  0
    3.6221   -2.8688   36.6198 C   0  0  0  0  0  0  0  0  0  0  0  0
    3.8015   -3.4345   35.3735 N   0  0  0  0  0  0  0  0  0  0  0  0
    2.6963   -4.2914   34.9996 C   0  0  0  0  0  0  0  0  0  0  0  0
    1.6796   -3.9964   36.0532 C   0  0  0  0  0  0  0  0  0  0  0  0
    0.3490   -4.3702   36.1595 C   0  0  0  0  0  0  0  0  0  0  0  0
   -0.2245   -5.1821   35.2004 N   0  0  0  0  0  0  0  0  0  0  0  0
    0.1697   -6.5855   34.7155 C   0  0  0  0  0  0  0  0  0  0  0  0
    0.9935   -7.3131   35.0997 O   0  0  0  0  0  0  0  0  0  0  0  0
   -0.5734   -6.9916   33.5167 C   0  0  0  0  0  0  0  0  0  0  0  0
   -0.0767   -6.5770   32.2867 C   0  0  0  0  0  0  0  0  0  0  0  0
    0.9068   -5.6715   32.1955 F   0  0  0  0  0  0  0  0  0  0  0  0
   -0.6242   -7.1205   31.1401 C   0  0  0  0  0  0  0  0  0  0  0  0
   -1.6345   -8.0260   31.1483 N   0  0  0  0  0  0  0  0  0  0  0  0
   -2.0902   -8.4079   32.3649 C   0  0  0  0  0  0  0  0  0  0  0  0
   -1.6062   -7.9144   33.5631 C   0  0  0  0  0  0  0  0  0  0  0  0
   -2.4587   -8.4443   35.1402 Br  0  0  0  0  0  0  0  0  0  0  0  0
   -0.3777   -3.9650   37.2740 C   0  0  0  0  0  0  0  0  0  0  0  0
    0.2638   -3.2400   38.2897 C   0  0  0  0  0  0  0  0  0  0  0  0
   -0.4128   -2.9683   39.4124 F   0  0  0  0  0  0  0  0  0  0  0  0
    1.5825   -2.8150   38.1788 C   0  0  0  0  0  0  0  0  0  0  0  0
    2.2536   -3.1892   37.0357 C   0  0  0  0  0  0  0  0  0  0  0  0
  1  2  2  0
  2  3  1  0
  3  4  1  0
  4  5  1  0
  5  6  2  0
  6  7  1  0
  7  8  1  0
  8  9  2  0
  8 10  1  0
 10 11  2  0
 11 12  1  0
 11 13  1  0
 13 14  2  0
 14 15  1  0
 15 16  2  0
 16 17  1  0
  6 18  1  0
 18 19  2  0
 19 20  1  0
 19 21  1  0
 21 22  2  0
 22  2  1  0
 22  5  1  0
 16 10  1  0
M  END
>  <ref_mols>  (704) 
7gov-a

>  <gnina_score>  (704) 
5.137

>  <smina_score_min>  (704) 
-6.081

>  <ref_pdb>  (704) 
7gov-a

>  <inspiration_score>  (704) 
None

>  <inchikey>  (704) 
BTULBLMIHQMNAM-UHFFFAOYSA-N

>  <tags>  (704) 
BulkDock Fragalysis export,openbind_d68ev3c_c2_elabs_scored,openbind_d68ev3c_c2_elabs_scored_4.5plus,openbind_d68ev3c_c2_elabs,openbind_d68ev3c_c2_elabs_scored_5plus,syndirella_product,openbind_d68ev3c_c2_elabs_scored_top80percent,syndirella_placed

>  <smiles>  (704) 
O=C1NCc2c(NC(=O)c3c(F)cncc3Br)cc(F)cc21

>  <subsites>  (704) 
None

>  <rmsd(smina/fragmenstein)>  (704) 
0.996

>  <alias>  (704) 
None

>  <energy_score>  (704) 
-19.687654

>  <HIPPO Pose ID>  (704) 
66626

>  <distance_score>  (704) 
0.467338

>  <HIPPO Compound ID>  (704) 
105270

>  <gnina_score_min>  (704) 
5.187

>  <name>  (704) 
P66626

>  <exports>  (704) 
['/opt/xchem-fragalysis-2/maxwin/BulkDock/OUTPUTS/openbind_d68ev3c_c2_elabs_1LOTQJ3.sdf', '/opt/xchem-fragalysis-2/maxwin/BulkDock/OUTPUTS/openbind_d68ev3c_c2_elabs_1LSYEHW.sdf', '/opt/xchem-fragalysis-2/maxwin/BulkDock/OUTPUTS/openbind_d68ev3c_c2_elabs_1LSYI5W.sdf']

$$$$
P66627
     RDKit          3D

 22 24  0  0  0  0  0  0  0  0999 V2000
   -1.5236   -6.5930   35.7980 O   0  0  0  0  0  0  0  0  0  0  0  0
   -0.7052   -6.3521   35.0008 C   0  0  0  0  0  0  0  0  0  0  0  0
    0.5381   -5.4450   35.0878 N   0  0  0  0  0  0  0  0  0  0  0  0
    0.9704   -4.5993   36.1038 C   0  0  0  0  0  0  0  0  0  0  0  0
    0.2290   -4.4412   37.2810 C   0  0  0  0  0  0  0  0  0  0  0  0
    0.6775   -3.5838   38.2965 C   0  0  0  0  0  0  0  0  0  0  0  0
   -0.0419   -3.4779   39.4220 F   0  0  0  0  0  0  0  0  0  0  0  0
    1.8463   -2.8488   38.1680 C   0  0  0  0  0  0  0  0  0  0  0  0
    2.5482   -3.0133   36.9922 C   0  0  0  0  0  0  0  0  0  0  0  0
    2.1389   -3.8714   35.9655 C   0  0  0  0  0  0  0  0  0  0  0  0
    3.1502   -3.8462   34.8694 C   0  0  0  0  0  0  0  0  0  0  0  0
    4.0982   -2.8584   35.3256 N   0  0  0  0  0  0  0  0  0  0  0  0
    3.8173   -2.3988   36.5933 C   0  0  0  0  0  0  0  0  0  0  0  0
    4.4859   -1.6340   37.2590 O   0  0  0  0  0  0  0  0  0  0  0  0
   -0.8677   -7.0220   33.6671 C   0  0  0  0  0  0  0  0  0  0  0  0
   -1.5554   -8.2475   33.7327 C   0  0  0  0  0  0  0  0  0  0  0  0
   -1.8997   -8.8867   32.5647 C   0  0  0  0  0  0  0  0  0  0  0  0
   -1.5793   -8.4228   31.3480 N   0  0  0  0  0  0  0  0  0  0  0  0
   -0.8694   -7.2696   31.2999 C   0  0  0  0  0  0  0  0  0  0  0  0
   -0.5445   -6.8235   29.6673 Cl  0  0  0  0  0  0  0  0  0  0  0  0
   -0.5169   -6.5041   32.4106 C   0  0  0  0  0  0  0  0  0  0  0  0
    0.2657   -4.7917   32.1458 Br  0  0  0  0  0  0  0  0  0  0  0  0
  1  2  2  0
  2  3  1  0
  3  4  1  0
  4  5  2  0
  5  6  1  0
  6  7  1  0
  6  8  2  0
  8  9  1  0
  9 10  2  0
 10 11  1  0
 11 12  1  0
 12 13  1  0
 13 14  2  0
  2 15  1  0
 15 16  2  0
 16 17  1  0
 17 18  2  0
 18 19  1  0
 19 20  1  0
 19 21  2  0
 21 22  1  0
 10  4  1  0
 21 15  1  0
 13  9  1  0
M  END
>  <ref_mols>  (705) 
7gov-a

>  <gnina_score>  (705) 
5.048

>  <smina_score_min>  (705) 
-6.214

>  <ref_pdb>  (705) 
7gov-a

>  <inspiration_score>  (705) 
None

>  <inchikey>  (705) 
JVGXOOPGUUXMTC-UHFFFAOYSA-N

>  <tags>  (705) 
BulkDock Fragalysis export,openbind_d68ev3c_c2_elabs_scored,openbind_d68ev3c_c2_elabs_scored_4.5plus,openbind_d68ev3c_c2_elabs,openbind_d68ev3c_c2_elabs_scored_5plus,syndirella_product,openbind_d68ev3c_c2_elabs_scored_top80percent,syndirella_placed

>  <smiles>  (705) 
O=C(Nc1cc(F)cc2c1CNC2=O)c1ccnc(Cl)c1Br

>  <subsites>  (705) 
None

>  <rmsd(smina/fragmenstein)>  (705) 
1.153

>  <alias>  (705) 
None

>  <energy_score>  (705) 
-12.515181

>  <HIPPO Pose ID>  (705) 
66627

>  <distance_score>  (705) 
0.754917

>  <HIPPO Compound ID>  (705) 
105272

>  <gnina_score_min>  (705) 
5.013

>  <name>  (705) 
P66627

>  <exports>  (705) 
['/opt/xchem-fragalysis-2/maxwin/BulkDock/OUTPUTS/openbind_d68ev3c_c2_elabs_1LOTQJ3.sdf', '/opt/xchem-fragalysis-2/maxwin/BulkDock/OUTPUTS/openbind_d68ev3c_c2_elabs_1LSYEHW.sdf', '/opt/xchem-fragalysis-2/maxwin/BulkDock/OUTPUTS/openbind_d68ev3c_c2_elabs_1LSYI5W.sdf']

$$$$
P66628
     RDKit          3D

 22 23  0  0  0  0  0  0  0  0999 V2000
    0.0780   -3.6210   39.6175 C   0  0  0  0  0  0  0  0  0  0  0  0
    0.8222   -3.6614   38.3128 C   0  0  0  0  0  0  0  0  0  0  0  0
    0.2957   -4.4269   37.2587 C   0  0  0  0  0  0  0  0  0  0  0  0
    0.9720   -4.5210   36.0396 C   0  0  0  0  0  0  0  0  0  0  0  0
    0.4777   -5.2924   34.9945 N   0  0  0  0  0  0  0  0  0  0  0  0
   -0.7007   -6.2824   34.9518 C   0  0  0  0  0  0  0  0  0  0  0  0
   -1.4931   -6.5515   35.7662 O   0  0  0  0  0  0  0  0  0  0  0  0
   -0.8591   -6.9747   33.6259 C   0  0  0  0  0  0  0  0  0  0  0  0
   -1.5332   -8.2076   33.7173 C   0  0  0  0  0  0  0  0  0  0  0  0
   -1.8786   -8.8737   32.5651 C   0  0  0  0  0  0  0  0  0  0  0  0
   -1.5716   -8.4301   31.3382 N   0  0  0  0  0  0  0  0  0  0  0  0
   -0.8692   -7.2731   31.2634 C   0  0  0  0  0  0  0  0  0  0  0  0
   -0.5636   -6.8576   29.6181 Cl  0  0  0  0  0  0  0  0  0  0  0  0
   -0.5170   -6.4811   32.3563 C   0  0  0  0  0  0  0  0  0  0  0  0
    0.2521   -4.7698   32.0431 Br  0  0  0  0  0  0  0  0  0  0  0  0
    2.1573   -3.8098   35.8456 C   0  0  0  0  0  0  0  0  0  0  0  0
    2.7923   -3.8854   34.6652 F   0  0  0  0  0  0  0  0  0  0  0  0
    2.6933   -3.0245   36.8546 C   0  0  0  0  0  0  0  0  0  0  0  0
    2.0287   -2.9677   38.0855 C   0  0  0  0  0  0  0  0  0  0  0  0
    2.6484   -2.1746   39.1397 N   0  0  0  0  0  0  0  0  0  0  0  0
    1.9388   -1.3418   39.7204 O   0  0  0  0  0  0  0  0  0  0  0  0
    3.8504   -2.3714   39.3721 O   0  0  0  0  0  0  0  0  0  0  0  0
  1  2  1  0
  2  3  2  0
  3  4  1  0
  4  5  1  0
  5  6  1  0
  6  7  2  0
  6  8  1  0
  8  9  2  0
  9 10  1  0
 10 11  2  0
 11 12  1  0
 12 13  1  0
 12 14  2  0
 14 15  1  0
  4 16  2  0
 16 17  1  0
 16 18  1  0
 18 19  2  0
 19 20  1  0
 20 21  2  0
 20 22  1  0
 19  2  1  0
 14  8  1  0
M  CHG  2  20   1  22  -1
M  END
>  <ref_mols>  (706) 
7gov-a

>  <gnina_score>  (706) 
5.139

>  <smina_score_min>  (706) 
-5.998

>  <ref_pdb>  (706) 
7gov-a

>  <inspiration_score>  (706) 
None

>  <inchikey>  (706) 
UKEVDQFYVMWRGR-UHFFFAOYSA-N

>  <tags>  (706) 
BulkDock Fragalysis export,openbind_d68ev3c_c2_elabs_scored,openbind_d68ev3c_c2_elabs_scored_4.5plus,openbind_d68ev3c_c2_elabs,openbind_d68ev3c_c2_elabs_scored_5plus,syndirella_product,openbind_d68ev3c_c2_elabs_scored_top80percent,syndirella_placed

>  <smiles>  (706) 
Cc1cc(NC(=O)c2ccnc(Cl)c2Br)c(F)cc1[N+](=O)[O-]

>  <subsites>  (706) 
None

>  <rmsd(smina/fragmenstein)>  (706) 
1.41

>  <alias>  (706) 
None

>  <energy_score>  (706) 
-36.259535

>  <HIPPO Pose ID>  (706) 
66628

>  <distance_score>  (706) 
0.734277

>  <HIPPO Compound ID>  (706) 
105282

>  <gnina_score_min>  (706) 
5.266

>  <name>  (706) 
P66628

>  <exports>  (706) 
['/opt/xchem-fragalysis-2/maxwin/BulkDock/OUTPUTS/openbind_d68ev3c_c2_elabs_1LOTQJ3.sdf', '/opt/xchem-fragalysis-2/maxwin/BulkDock/OUTPUTS/openbind_d68ev3c_c2_elabs_1LSYEHW.sdf', '/opt/xchem-fragalysis-2/maxwin/BulkDock/OUTPUTS/openbind_d68ev3c_c2_elabs_1LSYI5W.sdf']

$$$$
P66629
     RDKit          3D

 22 23  0  0  0  0  0  0  0  0999 V2000
    3.0849   -4.1028   34.7539 C   0  0  0  0  0  0  0  0  0  0  0  0
    2.2096   -3.9235   35.9688 C   0  0  0  0  0  0  0  0  0  0  0  0
    1.0011   -4.6370   36.1140 C   0  0  0  0  0  0  0  0  0  0  0  0
    0.5552   -5.4857   35.0965 N   0  0  0  0  0  0  0  0  0  0  0  0
   -0.7215   -6.3457   34.9964 C   0  0  0  0  0  0  0  0  0  0  0  0
   -1.5655   -6.5418   35.7795 O   0  0  0  0  0  0  0  0  0  0  0  0
   -0.8845   -7.0181   33.6670 C   0  0  0  0  0  0  0  0  0  0  0  0
   -1.5619   -8.2479   33.7359 C   0  0  0  0  0  0  0  0  0  0  0  0
   -1.8974   -8.8915   32.5679 C   0  0  0  0  0  0  0  0  0  0  0  0
   -1.5768   -8.4277   31.3507 N   0  0  0  0  0  0  0  0  0  0  0  0
   -0.8768   -7.2682   31.3016 C   0  0  0  0  0  0  0  0  0  0  0  0
   -0.5478   -6.8231   29.6700 Cl  0  0  0  0  0  0  0  0  0  0  0  0
   -0.5378   -6.4969   32.4114 C   0  0  0  0  0  0  0  0  0  0  0  0
    0.2109   -4.7687   32.1533 Br  0  0  0  0  0  0  0  0  0  0  0  0
    0.2303   -4.4941   37.2752 C   0  0  0  0  0  0  0  0  0  0  0  0
    0.6452   -3.6465   38.2945 C   0  0  0  0  0  0  0  0  0  0  0  0
   -0.0951   -3.5381   39.4050 F   0  0  0  0  0  0  0  0  0  0  0  0
    1.8057   -2.9062   38.1789 C   0  0  0  0  0  0  0  0  0  0  0  0
    2.5716   -3.0425   37.0161 C   0  0  0  0  0  0  0  0  0  0  0  0
    3.7761   -2.2243   36.9353 N   0  0  0  0  0  0  0  0  0  0  0  0
    4.5381   -2.2264   37.9141 O   0  0  0  0  0  0  0  0  0  0  0  0
    3.9322   -1.5418   35.9126 O   0  0  0  0  0  0  0  0  0  0  0  0
  1  2  1  0
  2  3  2  0
  3  4  1  0
  4  5  1  0
  5  6  2  0
  5  7  1  0
  7  8  2  0
  8  9  1  0
  9 10  2  0
 10 11  1  0
 11 12  1  0
 11 13  2  0
 13 14  1  0
  3 15  1  0
 15 16  2  0
 16 17  1  0
 16 18  1  0
 18 19  2  0
 19 20  1  0
 20 21  2  0
 20 22  1  0
 19  2  1  0
 13  7  1  0
M  CHG  2  20   1  22  -1
M  END
>  <ref_mols>  (707) 
7gov-a

>  <gnina_score>  (707) 
5.174

>  <smina_score_min>  (707) 
-6.085

>  <ref_pdb>  (707) 
7gov-a

>  <inspiration_score>  (707) 
None

>  <inchikey>  (707) 
DYAZNNIINNLDRP-UHFFFAOYSA-N

>  <tags>  (707) 
BulkDock Fragalysis export,openbind_d68ev3c_c2_elabs_scored,openbind_d68ev3c_c2_elabs_scored_4.5plus,openbind_d68ev3c_c2_elabs,openbind_d68ev3c_c2_elabs_scored_5plus,syndirella_product,openbind_d68ev3c_c2_elabs_scored_top80percent,syndirella_placed

>  <smiles>  (707) 
Cc1c(NC(=O)c2ccnc(Cl)c2Br)cc(F)cc1[N+](=O)[O-]

>  <subsites>  (707) 
None

>  <rmsd(smina/fragmenstein)>  (707) 
1.192

>  <alias>  (707) 
None

>  <energy_score>  (707) 
-18.199174

>  <HIPPO Pose ID>  (707) 
66629

>  <distance_score>  (707) 
0.76331

>  <HIPPO Compound ID>  (707) 
105283

>  <gnina_score_min>  (707) 
5.162

>  <name>  (707) 
P66629

>  <exports>  (707) 
['/opt/xchem-fragalysis-2/maxwin/BulkDock/OUTPUTS/openbind_d68ev3c_c2_elabs_1LOTQJ3.sdf', '/opt/xchem-fragalysis-2/maxwin/BulkDock/OUTPUTS/openbind_d68ev3c_c2_elabs_1LSYEHW.sdf', '/opt/xchem-fragalysis-2/maxwin/BulkDock/OUTPUTS/openbind_d68ev3c_c2_elabs_1LSYI5W.sdf']

$$$$
P66630
     RDKit          3D

 22 23  0  0  0  0  0  0  0  0999 V2000
    3.7130   -5.1762   34.4688 C   0  0  0  0  0  0  0  0  0  0  0  0
    2.9880   -3.8872   34.7461 C   0  0  0  0  0  0  0  0  0  0  0  0
    3.1225   -2.8908   34.0415 O   0  0  0  0  0  0  0  0  0  0  0  0
    2.1339   -3.8087   35.9499 C   0  0  0  0  0  0  0  0  0  0  0  0
    2.5259   -2.8655   36.9148 C   0  0  0  0  0  0  0  0  0  0  0  0
    1.8262   -2.7633   38.1126 C   0  0  0  0  0  0  0  0  0  0  0  0
    0.7412   -3.5995   38.3329 C   0  0  0  0  0  0  0  0  0  0  0  0
    0.0856   -3.5207   39.4997 F   0  0  0  0  0  0  0  0  0  0  0  0
    0.3275   -4.5141   37.3648 C   0  0  0  0  0  0  0  0  0  0  0  0
   -0.7175   -5.2933   37.6685 F   0  0  0  0  0  0  0  0  0  0  0  0
    1.0039   -4.6271   36.1416 C   0  0  0  0  0  0  0  0  0  0  0  0
    0.5680   -5.4747   35.1041 N   0  0  0  0  0  0  0  0  0  0  0  0
   -0.6849   -6.3712   35.0006 C   0  0  0  0  0  0  0  0  0  0  0  0
   -1.5132   -6.6082   35.7889 O   0  0  0  0  0  0  0  0  0  0  0  0
   -0.8546   -7.0256   33.6615 C   0  0  0  0  0  0  0  0  0  0  0  0
   -1.5439   -8.2511   33.7201 C   0  0  0  0  0  0  0  0  0  0  0  0
   -1.8918   -8.8824   32.5492 C   0  0  0  0  0  0  0  0  0  0  0  0
   -1.5715   -8.4115   31.3353 N   0  0  0  0  0  0  0  0  0  0  0  0
   -0.8612   -7.2575   31.2937 C   0  0  0  0  0  0  0  0  0  0  0  0
   -0.5350   -6.8027   29.6639 Cl  0  0  0  0  0  0  0  0  0  0  0  0
   -0.5084   -6.4985   32.4087 C   0  0  0  0  0  0  0  0  0  0  0  0
    0.2616   -4.7792   32.1589 Br  0  0  0  0  0  0  0  0  0  0  0  0
  1  2  1  0
  2  3  2  0
  2  4  1  0
  4  5  2  0
  5  6  1  0
  6  7  2  0
  7  8  1  0
  7  9  1  0
  9 10  1  0
  9 11  2  0
 11 12  1  0
 12 13  1  0
 13 14  2  0
 13 15  1  0
 15 16  2  0
 16 17  1  0
 17 18  2  0
 18 19  1  0
 19 20  1  0
 19 21  2  0
 21 22  1  0
 11  4  1  0
 21 15  1  0
M  END
>  <ref_mols>  (708) 
7gov-a

>  <gnina_score>  (708) 
5.295

>  <smina_score_min>  (708) 
-5.785

>  <ref_pdb>  (708) 
7gov-a

>  <inspiration_score>  (708) 
None

>  <inchikey>  (708) 
WUNWMUZWYUYSRV-UHFFFAOYSA-N

>  <tags>  (708) 
BulkDock Fragalysis export,openbind_d68ev3c_c2_elabs_scored,openbind_d68ev3c_c2_elabs_scored_4.5plus,openbind_d68ev3c_c2_elabs,openbind_d68ev3c_c2_elabs_scored_5plus,syndirella_product,openbind_d68ev3c_c2_elabs_scored_top80percent,syndirella_placed

>  <smiles>  (708) 
CC(=O)c1ccc(F)c(F)c1NC(=O)c1ccnc(Cl)c1Br

>  <subsites>  (708) 
None

>  <rmsd(smina/fragmenstein)>  (708) 
0.281

>  <alias>  (708) 
None

>  <energy_score>  (708) 
-18.803676

>  <HIPPO Pose ID>  (708) 
66630

>  <distance_score>  (708) 
0.754281

>  <HIPPO Compound ID>  (708) 
105284

>  <gnina_score_min>  (708) 
5.242

>  <name>  (708) 
P66630

>  <exports>  (708) 
['/opt/xchem-fragalysis-2/maxwin/BulkDock/OUTPUTS/openbind_d68ev3c_c2_elabs_1LOTQJ3.sdf', '/opt/xchem-fragalysis-2/maxwin/BulkDock/OUTPUTS/openbind_d68ev3c_c2_elabs_1LSYEHW.sdf', '/opt/xchem-fragalysis-2/maxwin/BulkDock/OUTPUTS/openbind_d68ev3c_c2_elabs_1LSYI5W.sdf']

$$$$
P66631
     RDKit          3D

 22 23  0  0  0  0  0  0  0  0999 V2000
   -1.5241   -6.5571   35.8026 O   0  0  0  0  0  0  0  0  0  0  0  0
   -0.6811   -6.3508   35.0200 C   0  0  0  0  0  0  0  0  0  0  0  0
    0.5743   -5.4557   35.1132 N   0  0  0  0  0  0  0  0  0  0  0  0
    0.9936   -4.5801   36.1210 C   0  0  0  0  0  0  0  0  0  0  0  0
    0.2497   -4.4871   37.3035 C   0  0  0  0  0  0  0  0  0  0  0  0
    0.6464   -3.6181   38.3129 C   0  0  0  0  0  0  0  0  0  0  0  0
   -0.0638   -3.5547   39.4469 F   0  0  0  0  0  0  0  0  0  0  0  0
    1.7648   -2.8142   38.1648 C   0  0  0  0  0  0  0  0  0  0  0  0
    2.5050   -2.8889   36.9872 C   0  0  0  0  0  0  0  0  0  0  0  0
    2.1409   -3.7813   35.9565 C   0  0  0  0  0  0  0  0  0  0  0  0
    2.9851   -3.8066   34.7094 C   0  0  0  0  0  0  0  0  0  0  0  0
    2.5630   -2.8859   33.7955 F   0  0  0  0  0  0  0  0  0  0  0  0
    4.3004   -3.5219   34.9274 F   0  0  0  0  0  0  0  0  0  0  0  0
    2.9670   -5.0009   34.0543 F   0  0  0  0  0  0  0  0  0  0  0  0
   -0.8450   -7.0270   33.6929 C   0  0  0  0  0  0  0  0  0  0  0  0
   -1.5452   -8.2455   33.7490 C   0  0  0  0  0  0  0  0  0  0  0  0
   -1.8945   -8.8711   32.5736 C   0  0  0  0  0  0  0  0  0  0  0  0
   -1.5710   -8.3984   31.3597 N   0  0  0  0  0  0  0  0  0  0  0  0
   -0.8482   -7.2506   31.3259 C   0  0  0  0  0  0  0  0  0  0  0  0
   -0.5172   -6.7731   29.7042 Cl  0  0  0  0  0  0  0  0  0  0  0  0
   -0.4887   -6.5013   32.4442 C   0  0  0  0  0  0  0  0  0  0  0  0
    0.2361   -4.9470   32.2380 Cl  0  0  0  0  0  0  0  0  0  0  0  0
  1  2  2  0
  2  3  1  0
  3  4  1  0
  4  5  2  0
  5  6  1  0
  6  7  1  0
  6  8  2  0
  8  9  1  0
  9 10  2  0
 10 11  1  0
 11 12  1  0
 11 13  1  0
 11 14  1  0
  2 15  1  0
 15 16  2  0
 16 17  1  0
 17 18  2  0
 18 19  1  0
 19 20  1  0
 19 21  2  0
 21 22  1  0
 10  4  1  0
 21 15  1  0
M  END
>  <ref_mols>  (709) 
7gov-a

>  <gnina_score>  (709) 
5.129

>  <smina_score_min>  (709) 
-6.106

>  <ref_pdb>  (709) 
7gov-a

>  <inspiration_score>  (709) 
None

>  <inchikey>  (709) 
DGRGEZXEJVQFQU-UHFFFAOYSA-N

>  <tags>  (709) 
BulkDock Fragalysis export,openbind_d68ev3c_c2_elabs_scored,openbind_d68ev3c_c2_elabs_scored_4.5plus,openbind_d68ev3c_c2_elabs,openbind_d68ev3c_c2_elabs_scored_5plus,syndirella_product,openbind_d68ev3c_c2_elabs_scored_top80percent,syndirella_placed

>  <smiles>  (709) 
O=C(Nc1cc(F)ccc1C(F)(F)F)c1ccnc(Cl)c1Cl

>  <subsites>  (709) 
None

>  <rmsd(smina/fragmenstein)>  (709) 
1.135

>  <alias>  (709) 
None

>  <energy_score>  (709) 
-8.375374

>  <HIPPO Pose ID>  (709) 
66631

>  <distance_score>  (709) 
0.754928

>  <HIPPO Compound ID>  (709) 
105285

>  <gnina_score_min>  (709) 
5.148

>  <name>  (709) 
P66631

>  <exports>  (709) 
['/opt/xchem-fragalysis-2/maxwin/BulkDock/OUTPUTS/openbind_d68ev3c_c2_elabs_1LOTQJ3.sdf', '/opt/xchem-fragalysis-2/maxwin/BulkDock/OUTPUTS/openbind_d68ev3c_c2_elabs_1LSYEHW.sdf', '/opt/xchem-fragalysis-2/maxwin/BulkDock/OUTPUTS/openbind_d68ev3c_c2_elabs_1LSYI5W.sdf']

$$$$
P66632
     RDKit          3D

 22 23  0  0  0  0  0  0  0  0999 V2000
    4.2504   -2.5864   34.3956 C   0  0  0  0  0  0  0  0  0  0  0  0
    2.8119   -3.0286   34.4600 C   0  0  0  0  0  0  0  0  0  0  0  0
    2.1587   -3.2420   33.4378 O   0  0  0  0  0  0  0  0  0  0  0  0
    2.1765   -3.1742   35.8001 C   0  0  0  0  0  0  0  0  0  0  0  0
    2.5861   -2.3934   36.8855 C   0  0  0  0  0  0  0  0  0  0  0  0
    2.0071   -2.5985   38.1376 C   0  0  0  0  0  0  0  0  0  0  0  0
    2.3898   -1.8253   39.1639 F   0  0  0  0  0  0  0  0  0  0  0  0
    1.0377   -3.5761   38.3241 C   0  0  0  0  0  0  0  0  0  0  0  0
    0.4583   -3.7393   39.5217 F   0  0  0  0  0  0  0  0  0  0  0  0
    0.6467   -4.3772   37.2626 C   0  0  0  0  0  0  0  0  0  0  0  0
    1.2075   -4.1639   35.9990 C   0  0  0  0  0  0  0  0  0  0  0  0
    0.7861   -4.9556   34.9482 N   0  0  0  0  0  0  0  0  0  0  0  0
    0.4110   -6.4388   34.9084 C   0  0  0  0  0  0  0  0  0  0  0  0
    0.4688   -7.2533   35.7360 O   0  0  0  0  0  0  0  0  0  0  0  0
   -0.2100   -6.8242   33.6122 C   0  0  0  0  0  0  0  0  0  0  0  0
    0.3185   -6.4008   32.3881 C   0  0  0  0  0  0  0  0  0  0  0  0
   -0.2658   -6.8624   31.2187 C   0  0  0  0  0  0  0  0  0  0  0  0
   -1.3140   -7.7068   31.1905 N   0  0  0  0  0  0  0  0  0  0  0  0
   -1.7779   -8.0996   32.3953 C   0  0  0  0  0  0  0  0  0  0  0  0
   -3.0550   -9.2096   32.2667 Cl  0  0  0  0  0  0  0  0  0  0  0  0
   -1.3101   -7.6777   33.6219 C   0  0  0  0  0  0  0  0  0  0  0  0
   -2.2424   -8.1892   35.1886 Br  0  0  0  0  0  0  0  0  0  0  0  0
  1  2  1  0
  2  3  2  0
  2  4  1  0
  4  5  2  0
  5  6  1  0
  6  7  1  0
  6  8  2  0
  8  9  1  0
  8 10  1  0
 10 11  2  0
 11 12  1  0
 12 13  1  0
 13 14  2  0
 13 15  1  0
 15 16  2  0
 16 17  1  0
 17 18  2  0
 18 19  1  0
 19 20  1  0
 19 21  2  0
 21 22  1  0
 11  4  1  0
 21 15  1  0
M  END
>  <ref_mols>  (710) 
7gov-a

>  <gnina_score>  (710) 
5.289

>  <smina_score_min>  (710) 
-4.823

>  <ref_pdb>  (710) 
7gov-a

>  <inspiration_score>  (710) 
None

>  <inchikey>  (710) 
ZRNZWZNVKBWHFD-UHFFFAOYSA-N

>  <tags>  (710) 
BulkDock Fragalysis export,openbind_d68ev3c_c2_elabs_scored,openbind_d68ev3c_c2_elabs_scored_4.5plus,openbind_d68ev3c_c2_elabs,openbind_d68ev3c_c2_elabs_scored_5plus,syndirella_product,openbind_d68ev3c_c2_elabs_scored_top80percent,syndirella_placed

>  <smiles>  (710) 
CC(=O)c1cc(F)c(F)cc1NC(=O)c1ccnc(Cl)c1Br

>  <subsites>  (710) 
None

>  <rmsd(smina/fragmenstein)>  (710) 
1.584

>  <alias>  (710) 
None

>  <energy_score>  (710) 
-20.651096

>  <HIPPO Pose ID>  (710) 
66632

>  <distance_score>  (710) 
0.661859

>  <HIPPO Compound ID>  (710) 
105286

>  <gnina_score_min>  (710) 
5.234

>  <name>  (710) 
P66632

>  <exports>  (710) 
['/opt/xchem-fragalysis-2/maxwin/BulkDock/OUTPUTS/openbind_d68ev3c_c2_elabs_1LOTQJ3.sdf', '/opt/xchem-fragalysis-2/maxwin/BulkDock/OUTPUTS/openbind_d68ev3c_c2_elabs_1LSYEHW.sdf', '/opt/xchem-fragalysis-2/maxwin/BulkDock/OUTPUTS/openbind_d68ev3c_c2_elabs_1LSYI5W.sdf']

$$$$
P66633
     RDKit          3D

 22 23  0  0  0  0  0  0  0  0999 V2000
    2.8653   -3.0504   34.4455 C   0  0  0  0  0  0  0  0  0  0  0  0
    2.1684   -3.1995   35.7669 C   0  0  0  0  0  0  0  0  0  0  0  0
    2.6281   -2.4955   36.8893 C   0  0  0  0  0  0  0  0  0  0  0  0
    2.0501   -2.7330   38.1464 C   0  0  0  0  0  0  0  0  0  0  0  0
    2.5515   -2.0232   39.3021 N   0  0  0  0  0  0  0  0  0  0  0  0
    3.7830   -1.9269   39.4184 O   0  0  0  0  0  0  0  0  0  0  0  0
    1.7254   -1.5187   40.0743 O   0  0  0  0  0  0  0  0  0  0  0  0
    1.0286   -3.6565   38.3086 C   0  0  0  0  0  0  0  0  0  0  0  0
    0.4563   -3.8825   39.4995 F   0  0  0  0  0  0  0  0  0  0  0  0
    0.5989   -4.3890   37.2125 C   0  0  0  0  0  0  0  0  0  0  0  0
    1.1639   -4.1552   35.9527 C   0  0  0  0  0  0  0  0  0  0  0  0
    0.7388   -4.9381   34.8974 N   0  0  0  0  0  0  0  0  0  0  0  0
    0.4739   -6.4461   34.8194 C   0  0  0  0  0  0  0  0  0  0  0  0
    0.6442   -7.2836   35.6087 O   0  0  0  0  0  0  0  0  0  0  0  0
   -0.1932   -6.8245   33.5498 C   0  0  0  0  0  0  0  0  0  0  0  0
    0.3134   -6.4166   32.3128 C   0  0  0  0  0  0  0  0  0  0  0  0
   -0.3000   -6.8885   31.1635 C   0  0  0  0  0  0  0  0  0  0  0  0
   -1.3570   -7.7224   31.1711 N   0  0  0  0  0  0  0  0  0  0  0  0
   -1.7980   -8.1001   32.3905 C   0  0  0  0  0  0  0  0  0  0  0  0
   -3.0912   -9.1952   32.3012 Cl  0  0  0  0  0  0  0  0  0  0  0  0
   -1.2965   -7.6693   33.5995 C   0  0  0  0  0  0  0  0  0  0  0  0
   -2.1724   -8.1497   35.2038 Br  0  0  0  0  0  0  0  0  0  0  0  0
  1  2  1  0
  2  3  2  0
  3  4  1  0
  4  5  1  0
  5  6  2  0
  5  7  1  0
  4  8  2  0
  8  9  1  0
  8 10  1  0
 10 11  2  0
 11 12  1  0
 12 13  1  0
 13 14  2  0
 13 15  1  0
 15 16  2  0
 16 17  1  0
 17 18  2  0
 18 19  1  0
 19 20  1  0
 19 21  2  0
 21 22  1  0
 11  2  1  0
 21 15  1  0
M  CHG  2   5   1   7  -1
M  END
>  <ref_mols>  (711) 
7gov-a

>  <gnina_score>  (711) 
5.066

>  <smina_score_min>  (711) 
-5.246

>  <ref_pdb>  (711) 
7gov-a

>  <inspiration_score>  (711) 
None

>  <inchikey>  (711) 
FAQSMKHLRMRIQK-UHFFFAOYSA-N

>  <tags>  (711) 
BulkDock Fragalysis export,openbind_d68ev3c_c2_elabs_scored,openbind_d68ev3c_c2_elabs_scored_4.5plus,openbind_d68ev3c_c2_elabs,openbind_d68ev3c_c2_elabs_scored_5plus,syndirella_product,openbind_d68ev3c_c2_elabs_scored_top80percent,syndirella_placed

>  <smiles>  (711) 
Cc1cc([N+](=O)[O-])c(F)cc1NC(=O)c1ccnc(Cl)c1Br

>  <subsites>  (711) 
None

>  <rmsd(smina/fragmenstein)>  (711) 
2.756

>  <alias>  (711) 
None

>  <energy_score>  (711) 
-18.207285

>  <HIPPO Pose ID>  (711) 
66633

>  <distance_score>  (711) 
0.623218

>  <HIPPO Compound ID>  (711) 
105287

>  <gnina_score_min>  (711) 
5.219

>  <name>  (711) 
P66633

>  <exports>  (711) 
['/opt/xchem-fragalysis-2/maxwin/BulkDock/OUTPUTS/openbind_d68ev3c_c2_elabs_1LOTQJ3.sdf', '/opt/xchem-fragalysis-2/maxwin/BulkDock/OUTPUTS/openbind_d68ev3c_c2_elabs_1LSYEHW.sdf', '/opt/xchem-fragalysis-2/maxwin/BulkDock/OUTPUTS/openbind_d68ev3c_c2_elabs_1LSYI5W.sdf']

$$$$
P66634
     RDKit          3D

 22 23  0  0  0  0  0  0  0  0999 V2000
   -1.5951   -6.4183   35.7282 O   0  0  0  0  0  0  0  0  0  0  0  0
   -0.7177   -6.2764   34.9706 C   0  0  0  0  0  0  0  0  0  0  0  0
    0.5841   -5.4507   35.0886 N   0  0  0  0  0  0  0  0  0  0  0  0
    1.0199   -4.5786   36.0934 C   0  0  0  0  0  0  0  0  0  0  0  0
    0.2631   -4.4595   37.2664 C   0  0  0  0  0  0  0  0  0  0  0  0
    0.6658   -3.5942   38.2763 C   0  0  0  0  0  0  0  0  0  0  0  0
   -0.0550   -3.5105   39.4022 F   0  0  0  0  0  0  0  0  0  0  0  0
    1.8023   -2.8151   38.1369 C   0  0  0  0  0  0  0  0  0  0  0  0
    2.5557   -2.9152   36.9694 C   0  0  0  0  0  0  0  0  0  0  0  0
    2.1877   -3.8090   35.9405 C   0  0  0  0  0  0  0  0  0  0  0  0
    3.0519   -3.8602   34.7094 C   0  0  0  0  0  0  0  0  0  0  0  0
    2.7017   -2.8997   33.8051 F   0  0  0  0  0  0  0  0  0  0  0  0
    4.3772   -3.6548   34.9546 F   0  0  0  0  0  0  0  0  0  0  0  0
    2.9789   -5.0384   34.0288 F   0  0  0  0  0  0  0  0  0  0  0  0
   -0.8728   -6.9500   33.6455 C   0  0  0  0  0  0  0  0  0  0  0  0
   -1.5618   -8.1660   33.6658 C   0  0  0  0  0  0  0  0  0  0  0  0
   -1.9570   -8.7409   34.8073 F   0  0  0  0  0  0  0  0  0  0  0  0
   -1.8727   -8.7964   32.4786 C   0  0  0  0  0  0  0  0  0  0  0  0
   -1.5245   -8.3231   31.2647 N   0  0  0  0  0  0  0  0  0  0  0  0
   -0.8229   -7.1646   31.2589 C   0  0  0  0  0  0  0  0  0  0  0  0
   -0.5099   -6.4265   32.3994 C   0  0  0  0  0  0  0  0  0  0  0  0
    0.2442   -4.7166   32.0995 Br  0  0  0  0  0  0  0  0  0  0  0  0
  1  2  2  0
  2  3  1  0
  3  4  1  0
  4  5  2  0
  5  6  1  0
  6  7  1  0
  6  8  2  0
  8  9  1  0
  9 10  2  0
 10 11  1  0
 11 12  1  0
 11 13  1  0
 11 14  1  0
  2 15  1  0
 15 16  2  0
 16 17  1  0
 16 18  1  0
 18 19  2  0
 19 20  1  0
 20 21  2  0
 21 22  1  0
 10  4  1  0
 21 15  1  0
M  END
>  <ref_mols>  (712) 
7gov-a

>  <gnina_score>  (712) 
5.166

>  <smina_score_min>  (712) 
-5.678

>  <ref_pdb>  (712) 
7gov-a

>  <inspiration_score>  (712) 
None

>  <inchikey>  (712) 
CNPAQHXUBLEYNC-UHFFFAOYSA-N

>  <tags>  (712) 
BulkDock Fragalysis export,openbind_d68ev3c_c2_elabs_scored,openbind_d68ev3c_c2_elabs_scored_4.5plus,openbind_d68ev3c_c2_elabs,openbind_d68ev3c_c2_elabs_scored_5plus,syndirella_product,openbind_d68ev3c_c2_elabs_scored_top80percent,syndirella_placed

>  <smiles>  (712) 
O=C(Nc1cc(F)ccc1C(F)(F)F)c1c(F)cncc1Br

>  <subsites>  (712) 
None

>  <rmsd(smina/fragmenstein)>  (712) 
1.009

>  <alias>  (712) 
None

>  <energy_score>  (712) 
-20.654051

>  <HIPPO Pose ID>  (712) 
66634

>  <distance_score>  (712) 
0.784608

>  <HIPPO Compound ID>  (712) 
105290

>  <gnina_score_min>  (712) 
5.062

>  <name>  (712) 
P66634

>  <exports>  (712) 
['/opt/xchem-fragalysis-2/maxwin/BulkDock/OUTPUTS/openbind_d68ev3c_c2_elabs_1LOTQJ3.sdf', '/opt/xchem-fragalysis-2/maxwin/BulkDock/OUTPUTS/openbind_d68ev3c_c2_elabs_1LSYEHW.sdf', '/opt/xchem-fragalysis-2/maxwin/BulkDock/OUTPUTS/openbind_d68ev3c_c2_elabs_1LSYI5W.sdf']

$$$$
P66636
     RDKit          3D

 22 23  0  0  0  0  0  0  0  0999 V2000
    0.2024   -3.4660   39.9508 C   0  0  0  0  0  0  0  0  0  0  0  0
    0.9603   -3.4484   38.6559 C   0  0  0  0  0  0  0  0  0  0  0  0
    0.4626   -4.1960   37.5823 C   0  0  0  0  0  0  0  0  0  0  0  0
    1.1534   -4.2277   36.3723 C   0  0  0  0  0  0  0  0  0  0  0  0
    0.6937   -4.9641   35.2999 N   0  0  0  0  0  0  0  0  0  0  0  0
   -0.4519   -5.9859   35.2068 C   0  0  0  0  0  0  0  0  0  0  0  0
   -1.2400   -6.3127   36.0017 O   0  0  0  0  0  0  0  0  0  0  0  0
   -0.5834   -6.5403   33.8348 C   0  0  0  0  0  0  0  0  0  0  0  0
   -1.2776   -7.7290   33.7055 C   0  0  0  0  0  0  0  0  0  0  0  0
   -1.5534   -8.1380   32.4274 C   0  0  0  0  0  0  0  0  0  0  0  0
   -2.5002   -9.5071   32.1857 Cl  0  0  0  0  0  0  0  0  0  0  0  0
   -1.1926   -7.5168   31.2913 N   0  0  0  0  0  0  0  0  0  0  0  0
   -0.4671   -6.3983   31.4552 C   0  0  0  0  0  0  0  0  0  0  0  0
    0.0964   -5.4298   29.9299 Br  0  0  0  0  0  0  0  0  0  0  0  0
   -0.1703   -5.8557   32.6912 C   0  0  0  0  0  0  0  0  0  0  0  0
    2.3224   -3.4912   36.1972 C   0  0  0  0  0  0  0  0  0  0  0  0
    2.9504   -3.5250   35.0094 F   0  0  0  0  0  0  0  0  0  0  0  0
    2.8435   -2.7421   37.2360 C   0  0  0  0  0  0  0  0  0  0  0  0
    2.1730   -2.7540   38.4671 C   0  0  0  0  0  0  0  0  0  0  0  0
    2.7977   -2.0281   39.5644 N   0  0  0  0  0  0  0  0  0  0  0  0
    2.9693   -2.6320   40.6326 O   0  0  0  0  0  0  0  0  0  0  0  0
    3.1364   -0.8570   39.3431 O   0  0  0  0  0  0  0  0  0  0  0  0
  1  2  1  0
  2  3  2  0
  3  4  1  0
  4  5  1  0
  5  6  1  0
  6  7  2  0
  6  8  1  0
  8  9  2  0
  9 10  1  0
 10 11  1  0
 10 12  2  0
 12 13  1  0
 13 14  1  0
 13 15  2  0
  4 16  2  0
 16 17  1  0
 16 18  1  0
 18 19  2  0
 19 20  1  0
 20 21  2  0
 20 22  1  0
 19  2  1  0
 15  8  1  0
M  CHG  2  20   1  22  -1
M  END
>  <ref_mols>  (713) 
7gov-a

>  <gnina_score>  (713) 
5.042

>  <smina_score_min>  (713) 
-5.156

>  <ref_pdb>  (713) 
7gov-a

>  <inspiration_score>  (713) 
None

>  <inchikey>  (713) 
TVIDGNPQSVRZNG-UHFFFAOYSA-N

>  <tags>  (713) 
BulkDock Fragalysis export,openbind_d68ev3c_c2_elabs_scored,openbind_d68ev3c_c2_elabs_scored_4.5plus,openbind_d68ev3c_c2_elabs,openbind_d68ev3c_c2_elabs_scored_5plus,syndirella_product,openbind_d68ev3c_c2_elabs_scored_top80percent,syndirella_placed

>  <smiles>  (713) 
Cc1cc(NC(=O)c2cc(Cl)nc(Br)c2)c(F)cc1[N+](=O)[O-]

>  <subsites>  (713) 
None

>  <rmsd(smina/fragmenstein)>  (713) 
1.331

>  <alias>  (713) 
None

>  <energy_score>  (713) 
-32.414812

>  <HIPPO Pose ID>  (713) 
66636

>  <distance_score>  (713) 
0.96479

>  <HIPPO Compound ID>  (713) 
105303

>  <gnina_score_min>  (713) 
5.1

>  <name>  (713) 
P66636

>  <exports>  (713) 
['/opt/xchem-fragalysis-2/maxwin/BulkDock/OUTPUTS/openbind_d68ev3c_c2_elabs_1LOTQJ3.sdf', '/opt/xchem-fragalysis-2/maxwin/BulkDock/OUTPUTS/openbind_d68ev3c_c2_elabs_1LSYEHW.sdf', '/opt/xchem-fragalysis-2/maxwin/BulkDock/OUTPUTS/openbind_d68ev3c_c2_elabs_1LSYI5W.sdf']

$$$$
P66638
     RDKit          3D

 22 23  0  0  0  0  0  0  0  0999 V2000
    3.8221   -4.6328   34.5007 C   0  0  0  0  0  0  0  0  0  0  0  0
    3.0976   -3.3742   34.9026 C   0  0  0  0  0  0  0  0  0  0  0  0
    3.1722   -2.3337   34.2555 O   0  0  0  0  0  0  0  0  0  0  0  0
    2.2765   -3.3963   36.1314 C   0  0  0  0  0  0  0  0  0  0  0  0
    2.6308   -2.5318   37.1732 C   0  0  0  0  0  0  0  0  0  0  0  0
    1.9418   -2.5926   38.3853 C   0  0  0  0  0  0  0  0  0  0  0  0
    0.9057   -3.5084   38.5429 C   0  0  0  0  0  0  0  0  0  0  0  0
    0.2343   -3.5467   39.7019 F   0  0  0  0  0  0  0  0  0  0  0  0
    0.5426   -4.3566   37.5049 C   0  0  0  0  0  0  0  0  0  0  0  0
   -0.5125   -5.1670   37.6760 F   0  0  0  0  0  0  0  0  0  0  0  0
    1.2197   -4.3000   36.2835 C   0  0  0  0  0  0  0  0  0  0  0  0
    0.8176   -5.0762   35.2033 N   0  0  0  0  0  0  0  0  0  0  0  0
    0.1497   -6.4596   35.1614 C   0  0  0  0  0  0  0  0  0  0  0  0
   -0.1005   -7.2036   36.0219 O   0  0  0  0  0  0  0  0  0  0  0  0
   -0.2949   -6.8468   33.7921 C   0  0  0  0  0  0  0  0  0  0  0  0
   -1.2755   -7.8265   33.7344 C   0  0  0  0  0  0  0  0  0  0  0  0
   -1.7834   -8.1335   32.5001 C   0  0  0  0  0  0  0  0  0  0  0  0
   -3.0569   -9.2323   32.3868 Cl  0  0  0  0  0  0  0  0  0  0  0  0
   -1.4274   -7.5708   31.3338 N   0  0  0  0  0  0  0  0  0  0  0  0
   -0.4453   -6.6551   31.4197 C   0  0  0  0  0  0  0  0  0  0  0  0
    0.0372   -5.6946   29.8636 Br  0  0  0  0  0  0  0  0  0  0  0  0
    0.1604   -6.2764   32.6061 C   0  0  0  0  0  0  0  0  0  0  0  0
  1  2  1  0
  2  3  2  0
  2  4  1  0
  4  5  2  0
  5  6  1  0
  6  7  2  0
  7  8  1  0
  7  9  1  0
  9 10  1  0
  9 11  2  0
 11 12  1  0
 12 13  1  0
 13 14  2  0
 13 15  1  0
 15 16  2  0
 16 17  1  0
 17 18  1  0
 17 19  2  0
 19 20  1  0
 20 21  1  0
 20 22  2  0
 11  4  1  0
 22 15  1  0
M  END
>  <ref_mols>  (714) 
7gov-a

>  <gnina_score>  (714) 
5.287

>  <smina_score_min>  (714) 
-5.422

>  <ref_pdb>  (714) 
7gov-a

>  <inspiration_score>  (714) 
None

>  <inchikey>  (714) 
SXJQLKVWLXCMMJ-UHFFFAOYSA-N

>  <tags>  (714) 
BulkDock Fragalysis export,openbind_d68ev3c_c2_elabs_scored,openbind_d68ev3c_c2_elabs_scored_4.5plus,openbind_d68ev3c_c2_elabs,openbind_d68ev3c_c2_elabs_scored_5plus,syndirella_product,openbind_d68ev3c_c2_elabs_scored_top80percent,syndirella_placed

>  <smiles>  (714) 
CC(=O)c1ccc(F)c(F)c1NC(=O)c1cc(Cl)nc(Br)c1

>  <subsites>  (714) 
None

>  <rmsd(smina/fragmenstein)>  (714) 
0.623

>  <alias>  (714) 
None

>  <energy_score>  (714) 
-9.02815

>  <HIPPO Pose ID>  (714) 
66638

>  <distance_score>  (714) 
0.69989

>  <HIPPO Compound ID>  (714) 
105305

>  <gnina_score_min>  (714) 
5.311

>  <name>  (714) 
P66638

>  <exports>  (714) 
['/opt/xchem-fragalysis-2/maxwin/BulkDock/OUTPUTS/openbind_d68ev3c_c2_elabs_1LOTQJ3.sdf', '/opt/xchem-fragalysis-2/maxwin/BulkDock/OUTPUTS/openbind_d68ev3c_c2_elabs_1LSYEHW.sdf', '/opt/xchem-fragalysis-2/maxwin/BulkDock/OUTPUTS/openbind_d68ev3c_c2_elabs_1LSYI5W.sdf']

$$$$
P66639
     RDKit          3D

 22 23  0  0  0  0  0  0  0  0999 V2000
   -1.0541   -6.2216   36.0485 O   0  0  0  0  0  0  0  0  0  0  0  0
   -0.2412   -5.9212   35.2689 C   0  0  0  0  0  0  0  0  0  0  0  0
    0.9604   -4.9734   35.3981 N   0  0  0  0  0  0  0  0  0  0  0  0
    1.3505   -4.1509   36.4431 C   0  0  0  0  0  0  0  0  0  0  0  0
    0.5761   -4.1122   37.6054 C   0  0  0  0  0  0  0  0  0  0  0  0
    0.9547   -3.2936   38.6541 C   0  0  0  0  0  0  0  0  0  0  0  0
    0.2177   -3.2800   39.7715 F   0  0  0  0  0  0  0  0  0  0  0  0
    2.0808   -2.4900   38.5584 C   0  0  0  0  0  0  0  0  0  0  0  0
    2.8448   -2.5120   37.3905 C   0  0  0  0  0  0  0  0  0  0  0  0
    2.4955   -3.3518   36.3172 C   0  0  0  0  0  0  0  0  0  0  0  0
    3.3439   -3.3299   35.0728 C   0  0  0  0  0  0  0  0  0  0  0  0
    3.1109   -2.2094   34.3280 F   0  0  0  0  0  0  0  0  0  0  0  0
    4.6829   -3.3272   35.3213 F   0  0  0  0  0  0  0  0  0  0  0  0
    3.1222   -4.3715   34.2166 F   0  0  0  0  0  0  0  0  0  0  0  0
   -0.3867   -6.4357   33.8833 C   0  0  0  0  0  0  0  0  0  0  0  0
    0.0581   -5.7672   32.7431 C   0  0  0  0  0  0  0  0  0  0  0  0
   -0.3038   -6.2824   31.5142 C   0  0  0  0  0  0  0  0  0  0  0  0
    0.1474   -5.4692   30.0761 Cl  0  0  0  0  0  0  0  0  0  0  0  0
   -1.1018   -7.3459   31.3419 N   0  0  0  0  0  0  0  0  0  0  0  0
   -1.4893   -7.9549   32.4734 C   0  0  0  0  0  0  0  0  0  0  0  0
   -2.6965   -9.3439   32.3260 Br  0  0  0  0  0  0  0  0  0  0  0  0
   -1.1533   -7.5766   33.7480 C   0  0  0  0  0  0  0  0  0  0  0  0
  1  2  2  0
  2  3  1  0
  3  4  1  0
  4  5  2  0
  5  6  1  0
  6  7  1  0
  6  8  2  0
  8  9  1  0
  9 10  2  0
 10 11  1  0
 11 12  1  0
 11 13  1  0
 11 14  1  0
  2 15  1  0
 15 16  2  0
 16 17  1  0
 17 18  1  0
 17 19  2  0
 19 20  1  0
 20 21  1  0
 20 22  2  0
 10  4  1  0
 22 15  1  0
M  END
>  <ref_mols>  (715) 
7gov-a

>  <gnina_score>  (715) 
5.015

>  <smina_score_min>  (715) 
-4.718

>  <ref_pdb>  (715) 
7gov-a

>  <inspiration_score>  (715) 
None

>  <inchikey>  (715) 
GKUOICDCJBGMCQ-UHFFFAOYSA-N

>  <tags>  (715) 
BulkDock Fragalysis export,openbind_d68ev3c_c2_elabs_scored,openbind_d68ev3c_c2_elabs_scored_4.5plus,openbind_d68ev3c_c2_elabs,openbind_d68ev3c_c2_elabs_scored_5plus,syndirella_product,openbind_d68ev3c_c2_elabs_scored_top80percent,syndirella_placed

>  <smiles>  (715) 
O=C(Nc1cc(F)ccc1C(F)(F)F)c1cc(Cl)nc(Br)c1

>  <subsites>  (715) 
None

>  <rmsd(smina/fragmenstein)>  (715) 
1.199

>  <alias>  (715) 
None

>  <energy_score>  (715) 
-15.982513

>  <HIPPO Pose ID>  (715) 
66639

>  <distance_score>  (715) 
1.073131

>  <HIPPO Compound ID>  (715) 
105309

>  <gnina_score_min>  (715) 
5.092

>  <name>  (715) 
P66639

>  <exports>  (715) 
['/opt/xchem-fragalysis-2/maxwin/BulkDock/OUTPUTS/openbind_d68ev3c_c2_elabs_1LOTQJ3.sdf', '/opt/xchem-fragalysis-2/maxwin/BulkDock/OUTPUTS/openbind_d68ev3c_c2_elabs_1LSYEHW.sdf', '/opt/xchem-fragalysis-2/maxwin/BulkDock/OUTPUTS/openbind_d68ev3c_c2_elabs_1LSYI5W.sdf']

$$$$
P66640
     RDKit          3D

 22 23  0  0  0  0  0  0  0  0999 V2000
    3.1174   -3.4963   34.9528 C   0  0  0  0  0  0  0  0  0  0  0  0
    2.3244   -3.4800   36.2326 C   0  0  0  0  0  0  0  0  0  0  0  0
    2.7968   -2.7424   37.3255 C   0  0  0  0  0  0  0  0  0  0  0  0
    2.0984   -2.7832   38.5389 C   0  0  0  0  0  0  0  0  0  0  0  0
    2.6319   -2.0789   39.6828 N   0  0  0  0  0  0  0  0  0  0  0  0
    3.0441   -0.9254   39.4898 O   0  0  0  0  0  0  0  0  0  0  0  0
    2.6840   -2.6801   40.7646 O   0  0  0  0  0  0  0  0  0  0  0  0
    0.9178   -3.4983   38.6695 C   0  0  0  0  0  0  0  0  0  0  0  0
    0.2141   -3.5010   39.8091 F   0  0  0  0  0  0  0  0  0  0  0  0
    0.4295   -4.2164   37.5897 C   0  0  0  0  0  0  0  0  0  0  0  0
    1.1424   -4.2278   36.3882 C   0  0  0  0  0  0  0  0  0  0  0  0
    0.6740   -4.9664   35.3153 N   0  0  0  0  0  0  0  0  0  0  0  0
   -0.4789   -5.9825   35.2277 C   0  0  0  0  0  0  0  0  0  0  0  0
   -1.2667   -6.3027   36.0256 O   0  0  0  0  0  0  0  0  0  0  0  0
   -0.6115   -6.5358   33.8546 C   0  0  0  0  0  0  0  0  0  0  0  0
   -1.2964   -7.7288   33.7208 C   0  0  0  0  0  0  0  0  0  0  0  0
   -1.5592   -8.1391   32.4397 C   0  0  0  0  0  0  0  0  0  0  0  0
   -2.4926   -9.5147   32.1864 Cl  0  0  0  0  0  0  0  0  0  0  0  0
   -1.1921   -7.5163   31.3061 N   0  0  0  0  0  0  0  0  0  0  0  0
   -0.4785   -6.3920   31.4748 C   0  0  0  0  0  0  0  0  0  0  0  0
    0.1008   -5.4254   29.9543 Br  0  0  0  0  0  0  0  0  0  0  0  0
   -0.1987   -5.8463   32.7131 C   0  0  0  0  0  0  0  0  0  0  0  0
  1  2  1  0
  2  3  2  0
  3  4  1  0
  4  5  1  0
  5  6  2  0
  5  7  1  0
  4  8  2  0
  8  9  1  0
  8 10  1  0
 10 11  2  0
 11 12  1  0
 12 13  1  0
 13 14  2  0
 13 15  1  0
 15 16  2  0
 16 17  1  0
 17 18  1  0
 17 19  2  0
 19 20  1  0
 20 21  1  0
 20 22  2  0
 11  2  1  0
 22 15  1  0
M  CHG  2   5   1   7  -1
M  END
>  <ref_mols>  (716) 
7gov-a

>  <gnina_score>  (716) 
5.033

>  <smina_score_min>  (716) 
-5.169

>  <ref_pdb>  (716) 
7gov-a

>  <inspiration_score>  (716) 
None

>  <inchikey>  (716) 
FIBKHUIWMWYBCV-UHFFFAOYSA-N

>  <tags>  (716) 
BulkDock Fragalysis export,openbind_d68ev3c_c2_elabs_scored,openbind_d68ev3c_c2_elabs_scored_4.5plus,openbind_d68ev3c_c2_elabs,openbind_d68ev3c_c2_elabs_scored_5plus,syndirella_product,openbind_d68ev3c_c2_elabs_scored_top80percent,syndirella_placed

>  <smiles>  (716) 
Cc1cc([N+](=O)[O-])c(F)cc1NC(=O)c1cc(Cl)nc(Br)c1

>  <subsites>  (716) 
None

>  <rmsd(smina/fragmenstein)>  (716) 
1.315

>  <alias>  (716) 
None

>  <energy_score>  (716) 
-26.265949

>  <HIPPO Pose ID>  (716) 
66640

>  <distance_score>  (716) 
0.971513

>  <HIPPO Compound ID>  (716) 
105316

>  <gnina_score_min>  (716) 
5.064

>  <name>  (716) 
P66640

>  <exports>  (716) 
['/opt/xchem-fragalysis-2/maxwin/BulkDock/OUTPUTS/openbind_d68ev3c_c2_elabs_1LOTQJ3.sdf', '/opt/xchem-fragalysis-2/maxwin/BulkDock/OUTPUTS/openbind_d68ev3c_c2_elabs_1LSYEHW.sdf', '/opt/xchem-fragalysis-2/maxwin/BulkDock/OUTPUTS/openbind_d68ev3c_c2_elabs_1LSYI5W.sdf']

$$$$
P66641
     RDKit          3D

 22 23  0  0  0  0  0  0  0  0999 V2000
    4.6102   -3.1526   35.0403 C   0  0  0  0  0  0  0  0  0  0  0  0
    3.1660   -3.5817   35.0136 C   0  0  0  0  0  0  0  0  0  0  0  0
    2.6391   -3.9677   33.9690 O   0  0  0  0  0  0  0  0  0  0  0  0
    2.3662   -3.5086   36.2798 C   0  0  0  0  0  0  0  0  0  0  0  0
    2.7683   -2.6747   37.3274 C   0  0  0  0  0  0  0  0  0  0  0  0
    2.0239   -2.6449   38.5037 C   0  0  0  0  0  0  0  0  0  0  0  0
    2.4266   -1.8522   39.5071 F   0  0  0  0  0  0  0  0  0  0  0  0
    0.8759   -3.4147   38.6425 C   0  0  0  0  0  0  0  0  0  0  0  0
    0.1655   -3.3748   39.7768 F   0  0  0  0  0  0  0  0  0  0  0  0
    0.4484   -4.2292   37.6076 C   0  0  0  0  0  0  0  0  0  0  0  0
    1.1980   -4.2849   36.4316 C   0  0  0  0  0  0  0  0  0  0  0  0
    0.7894   -5.0957   35.3864 N   0  0  0  0  0  0  0  0  0  0  0  0
   -0.3945   -6.0708   35.2822 C   0  0  0  0  0  0  0  0  0  0  0  0
   -1.1707   -6.4060   36.0850 O   0  0  0  0  0  0  0  0  0  0  0  0
   -0.5636   -6.5791   33.8948 C   0  0  0  0  0  0  0  0  0  0  0  0
   -1.2850   -7.7491   33.7447 C   0  0  0  0  0  0  0  0  0  0  0  0
   -1.5722   -8.1297   32.4600 C   0  0  0  0  0  0  0  0  0  0  0  0
   -2.5402   -9.4808   32.1980 Cl  0  0  0  0  0  0  0  0  0  0  0  0
   -1.2034   -7.4958   31.3340 N   0  0  0  0  0  0  0  0  0  0  0  0
   -0.4560   -6.3934   31.5164 C   0  0  0  0  0  0  0  0  0  0  0  0
    0.1187   -5.4113   30.0032 Br  0  0  0  0  0  0  0  0  0  0  0  0
   -0.1420   -5.8814   32.7616 C   0  0  0  0  0  0  0  0  0  0  0  0
  1  2  1  0
  2  3  2  0
  2  4  1  0
  4  5  2  0
  5  6  1  0
  6  7  1  0
  6  8  2  0
  8  9  1  0
  8 10  1  0
 10 11  2  0
 11 12  1  0
 12 13  1  0
 13 14  2  0
 13 15  1  0
 15 16  2  0
 16 17  1  0
 17 18  1  0
 17 19  2  0
 19 20  1  0
 20 21  1  0
 20 22  2  0
 11  4  1  0
 22 15  1  0
M  END
>  <ref_mols>  (717) 
7gov-a

>  <gnina_score>  (717) 
5.128

>  <smina_score_min>  (717) 
-5.134

>  <ref_pdb>  (717) 
7gov-a

>  <inspiration_score>  (717) 
None

>  <inchikey>  (717) 
HQZCZCKFQNIIPQ-UHFFFAOYSA-N

>  <tags>  (717) 
BulkDock Fragalysis export,openbind_d68ev3c_c2_elabs_scored,openbind_d68ev3c_c2_elabs_scored_4.5plus,openbind_d68ev3c_c2_elabs,openbind_d68ev3c_c2_elabs_scored_5plus,syndirella_product,openbind_d68ev3c_c2_elabs_scored_top80percent,syndirella_placed

>  <smiles>  (717) 
CC(=O)c1cc(F)c(F)cc1NC(=O)c1cc(Cl)nc(Br)c1

>  <subsites>  (717) 
None

>  <rmsd(smina/fragmenstein)>  (717) 
0.723

>  <alias>  (717) 
None

>  <energy_score>  (717) 
-4.772158

>  <HIPPO Pose ID>  (717) 
66641

>  <distance_score>  (717) 
0.962089

>  <HIPPO Compound ID>  (717) 
105318

>  <gnina_score_min>  (717) 
5.042

>  <name>  (717) 
P66641

>  <exports>  (717) 
['/opt/xchem-fragalysis-2/maxwin/BulkDock/OUTPUTS/openbind_d68ev3c_c2_elabs_1LOTQJ3.sdf', '/opt/xchem-fragalysis-2/maxwin/BulkDock/OUTPUTS/openbind_d68ev3c_c2_elabs_1LSYEHW.sdf', '/opt/xchem-fragalysis-2/maxwin/BulkDock/OUTPUTS/openbind_d68ev3c_c2_elabs_1LSYI5W.sdf']

$$$$
P66643
     RDKit          3D

 22 23  0  0  0  0  0  0  0  0999 V2000
    3.3239   -3.1394   33.7554 C   0  0  0  0  0  0  0  0  0  0  0  0
    2.7939   -3.2305   34.8293 C   0  0  0  0  0  0  0  0  0  0  0  0
    2.1620   -3.3350   36.1162 C   0  0  0  0  0  0  0  0  0  0  0  0
    2.6453   -2.5607   37.1741 C   0  0  0  0  0  0  0  0  0  0  0  0
    2.0701   -2.6776   38.4417 C   0  0  0  0  0  0  0  0  0  0  0  0
    2.6764   -1.7092   39.7316 Cl  0  0  0  0  0  0  0  0  0  0  0  0
    1.0118   -3.5552   38.6548 C   0  0  0  0  0  0  0  0  0  0  0  0
    0.4131   -3.6336   39.8528 F   0  0  0  0  0  0  0  0  0  0  0  0
    0.5426   -4.3408   37.6146 C   0  0  0  0  0  0  0  0  0  0  0  0
   -0.5162   -5.1322   37.8406 F   0  0  0  0  0  0  0  0  0  0  0  0
    1.1143   -4.2407   36.3435 C   0  0  0  0  0  0  0  0  0  0  0  0
    0.6440   -4.9975   35.2789 N   0  0  0  0  0  0  0  0  0  0  0  0
   -0.0231   -6.3834   35.2554 C   0  0  0  0  0  0  0  0  0  0  0  0
   -0.3539   -7.0776   36.1310 O   0  0  0  0  0  0  0  0  0  0  0  0
   -0.3699   -6.8261   33.8733 C   0  0  0  0  0  0  0  0  0  0  0  0
   -1.3280   -7.8236   33.7815 C   0  0  0  0  0  0  0  0  0  0  0  0
   -1.7816   -8.1411   32.5287 C   0  0  0  0  0  0  0  0  0  0  0  0
   -3.0423   -9.2478   32.3709 Cl  0  0  0  0  0  0  0  0  0  0  0  0
   -1.3923   -7.5739   31.3751 N   0  0  0  0  0  0  0  0  0  0  0  0
   -0.4206   -6.6516   31.4945 C   0  0  0  0  0  0  0  0  0  0  0  0
    0.0907   -5.6700   29.9600 Br  0  0  0  0  0  0  0  0  0  0  0  0
    0.1376   -6.2675   32.7021 C   0  0  0  0  0  0  0  0  0  0  0  0
  1  2  3  0
  2  3  1  0
  3  4  2  0
  4  5  1  0
  5  6  1  0
  5  7  2  0
  7  8  1  0
  7  9  1  0
  9 10  1  0
  9 11  2  0
 11 12  1  0
 12 13  1  0
 13 14  2  0
 13 15  1  0
 15 16  2  0
 16 17  1  0
 17 18  1  0
 17 19  2  0
 19 20  1  0
 20 21  1  0
 20 22  2  0
 11  3  1  0
 22 15  1  0
M  END
>  <ref_mols>  (718) 
7gov-a

>  <gnina_score>  (718) 
5.413

>  <smina_score_min>  (718) 
-5.099

>  <ref_pdb>  (718) 
7gov-a

>  <inspiration_score>  (718) 
None

>  <inchikey>  (718) 
UXEAXMROTRRGIP-UHFFFAOYSA-N

>  <tags>  (718) 
BulkDock Fragalysis export,openbind_d68ev3c_c2_elabs_scored,openbind_d68ev3c_c2_elabs_scored_4.5plus,openbind_d68ev3c_c2_elabs,openbind_d68ev3c_c2_elabs_scored_5plus,syndirella_product,openbind_d68ev3c_c2_elabs_scored_top80percent,syndirella_placed

>  <smiles>  (718) 
C#Cc1cc(Cl)c(F)c(F)c1NC(=O)c1cc(Cl)nc(Br)c1

>  <subsites>  (718) 
None

>  <rmsd(smina/fragmenstein)>  (718) 
0.854

>  <alias>  (718) 
None

>  <energy_score>  (718) 
-2.472362

>  <HIPPO Pose ID>  (718) 
66643

>  <distance_score>  (718) 
0.758844

>  <HIPPO Compound ID>  (718) 
105320

>  <gnina_score_min>  (718) 
5.34

>  <name>  (718) 
P66643

>  <exports>  (718) 
['/opt/xchem-fragalysis-2/maxwin/BulkDock/OUTPUTS/openbind_d68ev3c_c2_elabs_1LOTQJ3.sdf', '/opt/xchem-fragalysis-2/maxwin/BulkDock/OUTPUTS/openbind_d68ev3c_c2_elabs_1LSYEHW.sdf', '/opt/xchem-fragalysis-2/maxwin/BulkDock/OUTPUTS/openbind_d68ev3c_c2_elabs_1LSYI5W.sdf']

$$$$
P66644
     RDKit          3D

 22 23  0  0  0  0  0  0  0  0999 V2000
    3.6713   -3.4408   33.9535 C   0  0  0  0  0  0  0  0  0  0  0  0
    3.0578   -3.4526   34.9859 C   0  0  0  0  0  0  0  0  0  0  0  0
    2.3267   -3.4652   36.2236 C   0  0  0  0  0  0  0  0  0  0  0  0
    2.8037   -2.7149   37.3008 C   0  0  0  0  0  0  0  0  0  0  0  0
    2.1208   -2.7336   38.5234 C   0  0  0  0  0  0  0  0  0  0  0  0
    2.6384   -2.0142   39.6444 C   0  0  0  0  0  0  0  0  0  0  0  0
    3.0933   -1.4263   40.5365 N   0  0  0  0  0  0  0  0  0  0  0  0
    0.9467   -3.4722   38.6474 C   0  0  0  0  0  0  0  0  0  0  0  0
    0.2667   -3.4881   39.8022 F   0  0  0  0  0  0  0  0  0  0  0  0
    0.4533   -4.2111   37.5825 C   0  0  0  0  0  0  0  0  0  0  0  0
    1.1549   -4.2242   36.3786 C   0  0  0  0  0  0  0  0  0  0  0  0
    0.6849   -4.9655   35.3064 N   0  0  0  0  0  0  0  0  0  0  0  0
   -0.4638   -5.9850   35.2231 C   0  0  0  0  0  0  0  0  0  0  0  0
   -1.2475   -6.3079   36.0237 O   0  0  0  0  0  0  0  0  0  0  0  0
   -0.5995   -6.5393   33.8505 C   0  0  0  0  0  0  0  0  0  0  0  0
   -1.2904   -7.7293   33.7190 C   0  0  0  0  0  0  0  0  0  0  0  0
   -1.5597   -8.1386   32.4391 C   0  0  0  0  0  0  0  0  0  0  0  0
   -2.5020   -9.5092   32.1904 Cl  0  0  0  0  0  0  0  0  0  0  0  0
   -1.1944   -7.5177   31.3039 N   0  0  0  0  0  0  0  0  0  0  0  0
   -0.4745   -6.3968   31.4701 C   0  0  0  0  0  0  0  0  0  0  0  0
    0.0996   -5.4305   29.9473 Br  0  0  0  0  0  0  0  0  0  0  0  0
   -0.1868   -5.8526   32.7072 C   0  0  0  0  0  0  0  0  0  0  0  0
  1  2  3  0
  2  3  1  0
  3  4  2  0
  4  5  1  0
  5  6  1  0
  6  7  3  0
  5  8  2  0
  8  9  1  0
  8 10  1  0
 10 11  2  0
 11 12  1  0
 12 13  1  0
 13 14  2  0
 13 15  1  0
 15 16  2  0
 16 17  1  0
 17 18  1  0
 17 19  2  0
 19 20  1  0
 20 21  1  0
 20 22  2  0
 11  3  1  0
 22 15  1  0
M  END
>  <ref_mols>  (719) 
7gov-a

>  <gnina_score>  (719) 
5.089

>  <smina_score_min>  (719) 
-4.983

>  <ref_pdb>  (719) 
7gov-a

>  <inspiration_score>  (719) 
None

>  <inchikey>  (719) 
XKNQSSNEEIHULQ-UHFFFAOYSA-N

>  <tags>  (719) 
BulkDock Fragalysis export,openbind_d68ev3c_c2_elabs_scored,openbind_d68ev3c_c2_elabs_scored_4.5plus,openbind_d68ev3c_c2_elabs,openbind_d68ev3c_c2_elabs_scored_5plus,syndirella_product,openbind_d68ev3c_c2_elabs_scored_top80percent,syndirella_placed

>  <smiles>  (719) 
C#Cc1cc(C#N)c(F)cc1NC(=O)c1cc(Cl)nc(Br)c1

>  <subsites>  (719) 
None

>  <rmsd(smina/fragmenstein)>  (719) 
1.29

>  <alias>  (719) 
None

>  <energy_score>  (719) 
-15.684971

>  <HIPPO Pose ID>  (719) 
66644

>  <distance_score>  (719) 
0.971063

>  <HIPPO Compound ID>  (719) 
105321

>  <gnina_score_min>  (719) 
5.144

>  <name>  (719) 
P66644

>  <exports>  (719) 
['/opt/xchem-fragalysis-2/maxwin/BulkDock/OUTPUTS/openbind_d68ev3c_c2_elabs_1LOTQJ3.sdf', '/opt/xchem-fragalysis-2/maxwin/BulkDock/OUTPUTS/openbind_d68ev3c_c2_elabs_1LSYEHW.sdf', '/opt/xchem-fragalysis-2/maxwin/BulkDock/OUTPUTS/openbind_d68ev3c_c2_elabs_1LSYI5W.sdf']

$$$$
P66645
     RDKit          3D

 22 23  0  0  0  0  0  0  0  0999 V2000
    4.6099   -3.1676   35.0377 C   0  0  0  0  0  0  0  0  0  0  0  0
    3.1618   -3.5831   35.0105 C   0  0  0  0  0  0  0  0  0  0  0  0
    2.6311   -3.9592   33.9641 O   0  0  0  0  0  0  0  0  0  0  0  0
    2.3633   -3.5098   36.2781 C   0  0  0  0  0  0  0  0  0  0  0  0
    2.7702   -2.6799   37.3292 C   0  0  0  0  0  0  0  0  0  0  0  0
    2.0301   -2.6499   38.5137 C   0  0  0  0  0  0  0  0  0  0  0  0
    2.6144   -1.5513   39.9394 Br  0  0  0  0  0  0  0  0  0  0  0  0
    0.8774   -3.4198   38.6445 C   0  0  0  0  0  0  0  0  0  0  0  0
    0.1562   -3.3968   39.7738 F   0  0  0  0  0  0  0  0  0  0  0  0
    0.4478   -4.2278   37.6043 C   0  0  0  0  0  0  0  0  0  0  0  0
    1.1948   -4.2832   36.4282 C   0  0  0  0  0  0  0  0  0  0  0  0
    0.7847   -5.0924   35.3825 N   0  0  0  0  0  0  0  0  0  0  0  0
   -0.3994   -6.0672   35.2785 C   0  0  0  0  0  0  0  0  0  0  0  0
   -1.1745   -6.4034   36.0820 O   0  0  0  0  0  0  0  0  0  0  0  0
   -0.5680   -6.5760   33.8914 C   0  0  0  0  0  0  0  0  0  0  0  0
   -1.2868   -7.7476   33.7419 C   0  0  0  0  0  0  0  0  0  0  0  0
   -1.5719   -8.1299   32.4573 C   0  0  0  0  0  0  0  0  0  0  0  0
   -2.5357   -9.4840   32.1956 Cl  0  0  0  0  0  0  0  0  0  0  0  0
   -1.2034   -7.4961   31.3310 N   0  0  0  0  0  0  0  0  0  0  0  0
   -0.4582   -6.3922   31.5131 C   0  0  0  0  0  0  0  0  0  0  0  0
    0.1174   -5.4110   29.9997 Br  0  0  0  0  0  0  0  0  0  0  0  0
   -0.1468   -5.8783   32.7581 C   0  0  0  0  0  0  0  0  0  0  0  0
  1  2  1  0
  2  3  2  0
  2  4  1  0
  4  5  2  0
  5  6  1  0
  6  7  1  0
  6  8  2  0
  8  9  1  0
  8 10  1  0
 10 11  2  0
 11 12  1  0
 12 13  1  0
 13 14  2  0
 13 15  1  0
 15 16  2  0
 16 17  1  0
 17 18  1  0
 17 19  2  0
 19 20  1  0
 20 21  1  0
 20 22  2  0
 11  4  1  0
 22 15  1  0
M  END
>  <ref_mols>  (720) 
7gov-a

>  <gnina_score>  (720) 
5.205

>  <smina_score_min>  (720) 
-5.136

>  <ref_pdb>  (720) 
7gov-a

>  <inspiration_score>  (720) 
None

>  <inchikey>  (720) 
AKZVIZATFCGGDX-UHFFFAOYSA-N

>  <tags>  (720) 
BulkDock Fragalysis export,openbind_d68ev3c_c2_elabs_scored,openbind_d68ev3c_c2_elabs_scored_4.5plus,openbind_d68ev3c_c2_elabs,openbind_d68ev3c_c2_elabs_scored_5plus,syndirella_product,openbind_d68ev3c_c2_elabs_scored_top80percent,syndirella_placed

>  <smiles>  (720) 
CC(=O)c1cc(Br)c(F)cc1NC(=O)c1cc(Cl)nc(Br)c1

>  <subsites>  (720) 
None

>  <rmsd(smina/fragmenstein)>  (720) 
0.471

>  <alias>  (720) 
None

>  <energy_score>  (720) 
-1.608366

>  <HIPPO Pose ID>  (720) 
66645

>  <distance_score>  (720) 
0.961543

>  <HIPPO Compound ID>  (720) 
105323

>  <gnina_score_min>  (720) 
5.114

>  <name>  (720) 
P66645

>  <exports>  (720) 
['/opt/xchem-fragalysis-2/maxwin/BulkDock/OUTPUTS/openbind_d68ev3c_c2_elabs_1LOTQJ3.sdf', '/opt/xchem-fragalysis-2/maxwin/BulkDock/OUTPUTS/openbind_d68ev3c_c2_elabs_1LSYEHW.sdf', '/opt/xchem-fragalysis-2/maxwin/BulkDock/OUTPUTS/openbind_d68ev3c_c2_elabs_1LSYI5W.sdf']

$$$$
P66647
     RDKit          3D

 22 23  0  0  0  0  0  0  0  0999 V2000
    0.4757   -3.7733   39.6713 C   0  0  0  0  0  0  0  0  0  0  0  0
    1.0976   -3.5616   38.3210 C   0  0  0  0  0  0  0  0  0  0  0  0
    0.6676   -4.3527   37.2488 C   0  0  0  0  0  0  0  0  0  0  0  0
    1.1936   -4.1642   35.9666 C   0  0  0  0  0  0  0  0  0  0  0  0
    0.7608   -4.9746   34.9360 N   0  0  0  0  0  0  0  0  0  0  0  0
    0.3369   -6.4469   34.9383 C   0  0  0  0  0  0  0  0  0  0  0  0
    0.3567   -7.2358   35.7923 O   0  0  0  0  0  0  0  0  0  0  0  0
   -0.2783   -6.8573   33.6521 C   0  0  0  0  0  0  0  0  0  0  0  0
    0.2685   -6.4724   32.4223 C   0  0  0  0  0  0  0  0  0  0  0  0
   -0.3126   -6.9535   31.2602 C   0  0  0  0  0  0  0  0  0  0  0  0
   -1.3760   -7.7778   31.2478 N   0  0  0  0  0  0  0  0  0  0  0  0
   -1.8562   -8.1339   32.4606 C   0  0  0  0  0  0  0  0  0  0  0  0
   -3.1710   -9.1990   32.3469 Cl  0  0  0  0  0  0  0  0  0  0  0  0
   -1.3903   -7.6942   33.6825 C   0  0  0  0  0  0  0  0  0  0  0  0
   -2.2450   -8.1076   35.1274 Cl  0  0  0  0  0  0  0  0  0  0  0  0
    2.1520   -3.1907   35.7308 C   0  0  0  0  0  0  0  0  0  0  0  0
    2.6752   -3.0599   34.5024 F   0  0  0  0  0  0  0  0  0  0  0  0
    2.6313   -2.4158   36.7751 C   0  0  0  0  0  0  0  0  0  0  0  0
    2.0989   -2.6068   38.0602 C   0  0  0  0  0  0  0  0  0  0  0  0
    2.6377   -1.7790   39.1308 N   0  0  0  0  0  0  0  0  0  0  0  0
    1.8310   -1.1558   39.8341 O   0  0  0  0  0  0  0  0  0  0  0  0
    3.8708   -1.7326   39.2464 O   0  0  0  0  0  0  0  0  0  0  0  0
  1  2  1  0
  2  3  2  0
  3  4  1  0
  4  5  1  0
  5  6  1  0
  6  7  2  0
  6  8  1  0
  8  9  2  0
  9 10  1  0
 10 11  2  0
 11 12  1  0
 12 13  1  0
 12 14  2  0
 14 15  1  0
  4 16  2  0
 16 17  1  0
 16 18  1  0
 18 19  2  0
 19 20  1  0
 20 21  2  0
 20 22  1  0
 19  2  1  0
 14  8  1  0
M  CHG  2  20   1  22  -1
M  END
>  <ref_mols>  (721) 
7gov-a

>  <gnina_score>  (721) 
5.112

>  <smina_score_min>  (721) 
-5.355

>  <ref_pdb>  (721) 
7gov-a

>  <inspiration_score>  (721) 
None

>  <inchikey>  (721) 
QZPQXQMRARDURG-UHFFFAOYSA-N

>  <tags>  (721) 
BulkDock Fragalysis export,openbind_d68ev3c_c2_elabs_scored,openbind_d68ev3c_c2_elabs_scored_4.5plus,openbind_d68ev3c_c2_elabs,openbind_d68ev3c_c2_elabs_scored_5plus,syndirella_product,openbind_d68ev3c_c2_elabs_scored_top80percent,syndirella_placed

>  <smiles>  (721) 
Cc1cc(NC(=O)c2ccnc(Cl)c2Cl)c(F)cc1[N+](=O)[O-]

>  <subsites>  (721) 
None

>  <rmsd(smina/fragmenstein)>  (721) 
1.526

>  <alias>  (721) 
None

>  <energy_score>  (721) 
-24.191646

>  <HIPPO Pose ID>  (721) 
66647

>  <distance_score>  (721) 
0.644987

>  <HIPPO Compound ID>  (721) 
105332

>  <gnina_score_min>  (721) 
5.212

>  <name>  (721) 
P66647

>  <exports>  (721) 
['/opt/xchem-fragalysis-2/maxwin/BulkDock/OUTPUTS/openbind_d68ev3c_c2_elabs_1LOTQJ3.sdf', '/opt/xchem-fragalysis-2/maxwin/BulkDock/OUTPUTS/openbind_d68ev3c_c2_elabs_1LSYEHW.sdf', '/opt/xchem-fragalysis-2/maxwin/BulkDock/OUTPUTS/openbind_d68ev3c_c2_elabs_1LSYI5W.sdf']

$$$$
P66648
     RDKit          3D

 22 23  0  0  0  0  0  0  0  0999 V2000
    2.9905   -3.9338   34.9764 C   0  0  0  0  0  0  0  0  0  0  0  0
    2.0953   -3.6842   36.1652 C   0  0  0  0  0  0  0  0  0  0  0  0
    0.7538   -4.1144   36.1729 C   0  0  0  0  0  0  0  0  0  0  0  0
    0.2702   -4.8969   35.1429 N   0  0  0  0  0  0  0  0  0  0  0  0
    0.5394   -6.3680   34.7974 C   0  0  0  0  0  0  0  0  0  0  0  0
    1.2703   -7.1348   35.2792 O   0  0  0  0  0  0  0  0  0  0  0  0
   -0.2151   -6.7683   33.5992 C   0  0  0  0  0  0  0  0  0  0  0  0
    0.2560   -6.3682   32.3452 C   0  0  0  0  0  0  0  0  0  0  0  0
   -0.3690   -6.8767   31.2217 C   0  0  0  0  0  0  0  0  0  0  0  0
   -1.4138   -7.7240   31.2784 N   0  0  0  0  0  0  0  0  0  0  0  0
   -1.8182   -8.0865   32.5200 C   0  0  0  0  0  0  0  0  0  0  0  0
   -3.1220   -9.1721   32.4641 Cl  0  0  0  0  0  0  0  0  0  0  0  0
   -1.2854   -7.6335   33.7115 C   0  0  0  0  0  0  0  0  0  0  0  0
   -1.9533   -8.0488   35.2364 Cl  0  0  0  0  0  0  0  0  0  0  0  0
   -0.0814   -3.9042   37.2680 C   0  0  0  0  0  0  0  0  0  0  0  0
    0.4313   -3.2813   38.3954 C   0  0  0  0  0  0  0  0  0  0  0  0
   -0.3375   -3.1580   39.4834 F   0  0  0  0  0  0  0  0  0  0  0  0
    1.7286   -2.7964   38.4245 C   0  0  0  0  0  0  0  0  0  0  0  0
    2.5451   -2.9787   37.3016 C   0  0  0  0  0  0  0  0  0  0  0  0
    3.8829   -2.3893   37.3593 N   0  0  0  0  0  0  0  0  0  0  0  0
    4.5098   -2.4804   38.4271 O   0  0  0  0  0  0  0  0  0  0  0  0
    4.2781   -1.7681   36.3615 O   0  0  0  0  0  0  0  0  0  0  0  0
  1  2  1  0
  2  3  2  0
  3  4  1  0
  4  5  1  0
  5  6  2  0
  5  7  1  0
  7  8  2  0
  8  9  1  0
  9 10  2  0
 10 11  1  0
 11 12  1  0
 11 13  2  0
 13 14  1  0
  3 15  1  0
 15 16  2  0
 16 17  1  0
 16 18  1  0
 18 19  2  0
 19 20  1  0
 20 21  2  0
 20 22  1  0
 19  2  1  0
 13  7  1  0
M  CHG  2  20   1  22  -1
M  END
>  <ref_mols>  (722) 
7gov-a

>  <gnina_score>  (722) 
5.219

>  <smina_score_min>  (722) 
-5.478

>  <ref_pdb>  (722) 
7gov-a

>  <inspiration_score>  (722) 
None

>  <inchikey>  (722) 
BADFZAWSGBRWSL-UHFFFAOYSA-N

>  <tags>  (722) 
BulkDock Fragalysis export,openbind_d68ev3c_c2_elabs_scored,openbind_d68ev3c_c2_elabs_scored_4.5plus,openbind_d68ev3c_c2_elabs,openbind_d68ev3c_c2_elabs_scored_5plus,syndirella_product,openbind_d68ev3c_c2_elabs_scored_top80percent,syndirella_placed

>  <smiles>  (722) 
Cc1c(NC(=O)c2ccnc(Cl)c2Cl)cc(F)cc1[N+](=O)[O-]

>  <subsites>  (722) 
None

>  <rmsd(smina/fragmenstein)>  (722) 
1.216

>  <alias>  (722) 
None

>  <energy_score>  (722) 
-6.73071

>  <HIPPO Pose ID>  (722) 
66648

>  <distance_score>  (722) 
0.537895

>  <HIPPO Compound ID>  (722) 
105333

>  <gnina_score_min>  (722) 
5.148

>  <name>  (722) 
P66648

>  <exports>  (722) 
['/opt/xchem-fragalysis-2/maxwin/BulkDock/OUTPUTS/openbind_d68ev3c_c2_elabs_1LOTQJ3.sdf', '/opt/xchem-fragalysis-2/maxwin/BulkDock/OUTPUTS/openbind_d68ev3c_c2_elabs_1LSYEHW.sdf', '/opt/xchem-fragalysis-2/maxwin/BulkDock/OUTPUTS/openbind_d68ev3c_c2_elabs_1LSYI5W.sdf']

$$$$
P66649
     RDKit          3D

 22 23  0  0  0  0  0  0  0  0999 V2000
    3.6827   -5.1471   34.4365 C   0  0  0  0  0  0  0  0  0  0  0  0
    2.9777   -3.8529   34.7405 C   0  0  0  0  0  0  0  0  0  0  0  0
    3.1252   -2.8458   34.0537 O   0  0  0  0  0  0  0  0  0  0  0  0
    2.1292   -3.7821   35.9495 C   0  0  0  0  0  0  0  0  0  0  0  0
    2.5248   -2.8433   36.9175 C   0  0  0  0  0  0  0  0  0  0  0  0
    1.8326   -2.7494   38.1203 C   0  0  0  0  0  0  0  0  0  0  0  0
    0.7502   -3.5884   38.3423 C   0  0  0  0  0  0  0  0  0  0  0  0
    0.0976   -3.5134   39.5111 F   0  0  0  0  0  0  0  0  0  0  0  0
    0.3334   -4.4996   37.3726 C   0  0  0  0  0  0  0  0  0  0  0  0
   -0.7168   -5.2724   37.6742 F   0  0  0  0  0  0  0  0  0  0  0  0
    1.0043   -4.6063   36.1458 C   0  0  0  0  0  0  0  0  0  0  0  0
    0.5702   -5.4545   35.1089 N   0  0  0  0  0  0  0  0  0  0  0  0
   -0.6520   -6.3951   35.0272 C   0  0  0  0  0  0  0  0  0  0  0  0
   -1.4482   -6.6733   35.8348 O   0  0  0  0  0  0  0  0  0  0  0  0
   -0.8394   -7.0392   33.6835 C   0  0  0  0  0  0  0  0  0  0  0  0
   -1.5655   -8.2449   33.7240 C   0  0  0  0  0  0  0  0  0  0  0  0
   -1.9239   -8.8556   32.5439 C   0  0  0  0  0  0  0  0  0  0  0  0
   -1.5870   -8.3792   31.3357 N   0  0  0  0  0  0  0  0  0  0  0  0
   -0.8433   -7.2450   31.3135 C   0  0  0  0  0  0  0  0  0  0  0  0
   -0.5030   -6.7589   29.6961 Cl  0  0  0  0  0  0  0  0  0  0  0  0
   -0.4654   -6.5147   32.4392 C   0  0  0  0  0  0  0  0  0  0  0  0
    0.3259   -4.9917   32.2422 Cl  0  0  0  0  0  0  0  0  0  0  0  0
  1  2  1  0
  2  3  2  0
  2  4  1  0
  4  5  2  0
  5  6  1  0
  6  7  2  0
  7  8  1  0
  7  9  1  0
  9 10  1  0
  9 11  2  0
 11 12  1  0
 12 13  1  0
 13 14  2  0
 13 15  1  0
 15 16  2  0
 16 17  1  0
 17 18  2  0
 18 19  1  0
 19 20  1  0
 19 21  2  0
 21 22  1  0
 11  4  1  0
 21 15  1  0
M  END
>  <ref_mols>  (723) 
7gov-a

>  <gnina_score>  (723) 
5.278

>  <smina_score_min>  (723) 
-5.881

>  <ref_pdb>  (723) 
7gov-a

>  <inspiration_score>  (723) 
None

>  <inchikey>  (723) 
KPGKVOJJKXJZKH-UHFFFAOYSA-N

>  <tags>  (723) 
BulkDock Fragalysis export,openbind_d68ev3c_c2_elabs_scored,openbind_d68ev3c_c2_elabs_scored_4.5plus,openbind_d68ev3c_c2_elabs,openbind_d68ev3c_c2_elabs_scored_5plus,syndirella_product,openbind_d68ev3c_c2_elabs_scored_top80percent,syndirella_placed

>  <smiles>  (723) 
CC(=O)c1ccc(F)c(F)c1NC(=O)c1ccnc(Cl)c1Cl

>  <subsites>  (723) 
None

>  <rmsd(smina/fragmenstein)>  (723) 
0.555

>  <alias>  (723) 
None

>  <energy_score>  (723) 
-15.092186

>  <HIPPO Pose ID>  (723) 
66649

>  <distance_score>  (723) 
0.737764

>  <HIPPO Compound ID>  (723) 
105334

>  <gnina_score_min>  (723) 
5.198

>  <name>  (723) 
P66649

>  <exports>  (723) 
['/opt/xchem-fragalysis-2/maxwin/BulkDock/OUTPUTS/openbind_d68ev3c_c2_elabs_1LOTQJ3.sdf', '/opt/xchem-fragalysis-2/maxwin/BulkDock/OUTPUTS/openbind_d68ev3c_c2_elabs_1LSYEHW.sdf', '/opt/xchem-fragalysis-2/maxwin/BulkDock/OUTPUTS/openbind_d68ev3c_c2_elabs_1LSYI5W.sdf']

$$$$
P66650
     RDKit          3D

 22 23  0  0  0  0  0  0  0  0999 V2000
    4.4798   -3.5087   34.7801 C   0  0  0  0  0  0  0  0  0  0  0  0
    3.0542   -3.9970   34.7407 C   0  0  0  0  0  0  0  0  0  0  0  0
    2.5993   -4.5084   33.7192 O   0  0  0  0  0  0  0  0  0  0  0  0
    2.1925   -3.8409   35.9565 C   0  0  0  0  0  0  0  0  0  0  0  0
    2.5927   -2.9714   36.9850 C   0  0  0  0  0  0  0  0  0  0  0  0
    1.8364   -2.8724   38.1533 C   0  0  0  0  0  0  0  0  0  0  0  0
    2.4217   -1.7311   39.5436 Br  0  0  0  0  0  0  0  0  0  0  0  0
    0.6706   -3.6151   38.2926 C   0  0  0  0  0  0  0  0  0  0  0  0
   -0.0622   -3.5369   39.4130 F   0  0  0  0  0  0  0  0  0  0  0  0
    0.2411   -4.4539   37.2706 C   0  0  0  0  0  0  0  0  0  0  0  0
    0.9953   -4.5771   36.0979 C   0  0  0  0  0  0  0  0  0  0  0  0
    0.5500   -5.4248   35.0801 N   0  0  0  0  0  0  0  0  0  0  0  0
   -0.7194   -6.3004   34.9866 C   0  0  0  0  0  0  0  0  0  0  0  0
   -1.5544   -6.5110   35.7770 O   0  0  0  0  0  0  0  0  0  0  0  0
   -0.8861   -6.9854   33.6696 C   0  0  0  0  0  0  0  0  0  0  0  0
   -1.5086   -8.2433   33.7449 C   0  0  0  0  0  0  0  0  0  0  0  0
   -1.8301   -8.8977   32.5777 C   0  0  0  0  0  0  0  0  0  0  0  0
   -1.5330   -8.4238   31.3573 N   0  0  0  0  0  0  0  0  0  0  0  0
   -0.8842   -7.2327   31.3084 C   0  0  0  0  0  0  0  0  0  0  0  0
   -0.5462   -6.7744   29.6828 Cl  0  0  0  0  0  0  0  0  0  0  0  0
   -0.5950   -6.4396   32.4153 C   0  0  0  0  0  0  0  0  0  0  0  0
   -0.0955   -4.8034   32.1935 Cl  0  0  0  0  0  0  0  0  0  0  0  0
  1  2  1  0
  2  3  2  0
  2  4  1  0
  4  5  2  0
  5  6  1  0
  6  7  1  0
  6  8  2  0
  8  9  1  0
  8 10  1  0
 10 11  2  0
 11 12  1  0
 12 13  1  0
 13 14  2  0
 13 15  1  0
 15 16  2  0
 16 17  1  0
 17 18  2  0
 18 19  1  0
 19 20  1  0
 19 21  2  0
 21 22  1  0
 11  4  1  0
 21 15  1  0
M  END
>  <ref_mols>  (724) 
7gov-a

>  <gnina_score>  (724) 
5.304

>  <smina_score_min>  (724) 
-5.879

>  <ref_pdb>  (724) 
7gov-a

>  <inspiration_score>  (724) 
None

>  <inchikey>  (724) 
YNXHOZKLPDMTPB-UHFFFAOYSA-N

>  <tags>  (724) 
BulkDock Fragalysis export,openbind_d68ev3c_c2_elabs_scored,openbind_d68ev3c_c2_elabs_scored_4.5plus,openbind_d68ev3c_c2_elabs,openbind_d68ev3c_c2_elabs_scored_5plus,syndirella_product,openbind_d68ev3c_c2_elabs_scored_top80percent,syndirella_placed

>  <smiles>  (724) 
CC(=O)c1cc(Br)c(F)cc1NC(=O)c1ccnc(Cl)c1Cl

>  <subsites>  (724) 
None

>  <rmsd(smina/fragmenstein)>  (724) 
0.742

>  <alias>  (724) 
None

>  <energy_score>  (724) 
-27.109847

>  <HIPPO Pose ID>  (724) 
66650

>  <distance_score>  (724) 
0.765477

>  <HIPPO Compound ID>  (724) 
105339

>  <gnina_score_min>  (724) 
5.23

>  <name>  (724) 
P66650

>  <exports>  (724) 
['/opt/xchem-fragalysis-2/maxwin/BulkDock/OUTPUTS/openbind_d68ev3c_c2_elabs_1LOTQJ3.sdf', '/opt/xchem-fragalysis-2/maxwin/BulkDock/OUTPUTS/openbind_d68ev3c_c2_elabs_1LSYEHW.sdf', '/opt/xchem-fragalysis-2/maxwin/BulkDock/OUTPUTS/openbind_d68ev3c_c2_elabs_1LSYI5W.sdf']

$$$$
P66651
     RDKit          3D

 22 23  0  0  0  0  0  0  0  0999 V2000
    2.9435   -3.8838   34.6166 C   0  0  0  0  0  0  0  0  0  0  0  0
    2.1430   -3.8266   35.8892 C   0  0  0  0  0  0  0  0  0  0  0  0
    2.5894   -2.9933   36.9282 C   0  0  0  0  0  0  0  0  0  0  0  0
    1.8976   -2.9674   38.1442 C   0  0  0  0  0  0  0  0  0  0  0  0
    2.4117   -2.1673   39.2343 N   0  0  0  0  0  0  0  0  0  0  0  0
    2.4242   -2.6631   40.3695 O   0  0  0  0  0  0  0  0  0  0  0  0
    2.8416   -1.0391   38.9497 O   0  0  0  0  0  0  0  0  0  0  0  0
    0.7410   -3.7090   38.3236 C   0  0  0  0  0  0  0  0  0  0  0  0
    0.0433   -3.6589   39.4670 F   0  0  0  0  0  0  0  0  0  0  0  0
    0.2727   -4.5155   37.2913 C   0  0  0  0  0  0  0  0  0  0  0  0
    0.9777   -4.5953   36.0836 C   0  0  0  0  0  0  0  0  0  0  0  0
    0.5330   -5.4438   35.0702 N   0  0  0  0  0  0  0  0  0  0  0  0
   -0.7132   -6.3499   34.9966 C   0  0  0  0  0  0  0  0  0  0  0  0
   -1.5241   -6.5889   35.8025 O   0  0  0  0  0  0  0  0  0  0  0  0
   -0.8866   -7.0236   33.6681 C   0  0  0  0  0  0  0  0  0  0  0  0
   -1.5817   -8.2447   33.7296 C   0  0  0  0  0  0  0  0  0  0  0  0
   -1.9191   -8.8819   32.5577 C   0  0  0  0  0  0  0  0  0  0  0  0
   -1.5888   -8.4177   31.3427 N   0  0  0  0  0  0  0  0  0  0  0  0
   -0.8716   -7.2680   31.3029 C   0  0  0  0  0  0  0  0  0  0  0  0
   -0.5325   -6.8039   29.6788 Cl  0  0  0  0  0  0  0  0  0  0  0  0
   -0.5214   -6.5089   32.4169 C   0  0  0  0  0  0  0  0  0  0  0  0
    0.2158   -4.9622   32.1979 Cl  0  0  0  0  0  0  0  0  0  0  0  0
  1  2  1  0
  2  3  2  0
  3  4  1  0
  4  5  1  0
  5  6  2  0
  5  7  1  0
  4  8  2  0
  8  9  1  0
  8 10  1  0
 10 11  2  0
 11 12  1  0
 12 13  1  0
 13 14  2  0
 13 15  1  0
 15 16  2  0
 16 17  1  0
 17 18  2  0
 18 19  1  0
 19 20  1  0
 19 21  2  0
 21 22  1  0
 11  2  1  0
 21 15  1  0
M  CHG  2   5   1   7  -1
M  END
>  <ref_mols>  (725) 
7gov-a

>  <gnina_score>  (725) 
5.131

>  <smina_score_min>  (725) 
-5.903

>  <ref_pdb>  (725) 
7gov-a

>  <inspiration_score>  (725) 
None

>  <inchikey>  (725) 
SQXDKAKLLZZDMR-UHFFFAOYSA-N

>  <tags>  (725) 
BulkDock Fragalysis export,openbind_d68ev3c_c2_elabs_scored,openbind_d68ev3c_c2_elabs_scored_4.5plus,openbind_d68ev3c_c2_elabs,openbind_d68ev3c_c2_elabs_scored_5plus,syndirella_product,openbind_d68ev3c_c2_elabs_scored_top80percent,syndirella_placed

>  <smiles>  (725) 
Cc1cc([N+](=O)[O-])c(F)cc1NC(=O)c1ccnc(Cl)c1Cl

>  <subsites>  (725) 
None

>  <rmsd(smina/fragmenstein)>  (725) 
1.257

>  <alias>  (725) 
None

>  <energy_score>  (725) 
-10.723309

>  <HIPPO Pose ID>  (725) 
66651

>  <distance_score>  (725) 
0.74346

>  <HIPPO Compound ID>  (725) 
105345

>  <gnina_score_min>  (725) 
5.192

>  <name>  (725) 
P66651

>  <exports>  (725) 
['/opt/xchem-fragalysis-2/maxwin/BulkDock/OUTPUTS/openbind_d68ev3c_c2_elabs_1LOTQJ3.sdf', '/opt/xchem-fragalysis-2/maxwin/BulkDock/OUTPUTS/openbind_d68ev3c_c2_elabs_1LSYEHW.sdf', '/opt/xchem-fragalysis-2/maxwin/BulkDock/OUTPUTS/openbind_d68ev3c_c2_elabs_1LSYI5W.sdf']

$$$$
P66652
     RDKit          3D

 22 24  0  0  0  0  0  0  0  0999 V2000
    1.5040   -6.8642   35.0665 O   0  0  0  0  0  0  0  0  0  0  0  0
    0.5583   -6.2552   34.7759 C   0  0  0  0  0  0  0  0  0  0  0  0
   -0.0124   -4.9644   35.3694 N   0  0  0  0  0  0  0  0  0  0  0  0
    0.4887   -4.1293   36.3453 C   0  0  0  0  0  0  0  0  0  0  0  0
   -0.3067   -3.7660   37.4253 C   0  0  0  0  0  0  0  0  0  0  0  0
    0.2713   -3.0719   38.4963 C   0  0  0  0  0  0  0  0  0  0  0  0
   -0.4660   -2.8538   39.5911 F   0  0  0  0  0  0  0  0  0  0  0  0
    1.5900   -2.6331   38.4739 C   0  0  0  0  0  0  0  0  0  0  0  0
    2.3269   -2.9573   37.3572 C   0  0  0  0  0  0  0  0  0  0  0  0
    1.8175   -3.7330   36.3181 C   0  0  0  0  0  0  0  0  0  0  0  0
    2.8960   -3.9736   35.3127 C   0  0  0  0  0  0  0  0  0  0  0  0
    3.9611   -3.1038   35.7671 N   0  0  0  0  0  0  0  0  0  0  0  0
    3.7134   -2.6130   37.0333 C   0  0  0  0  0  0  0  0  0  0  0  0
    4.4877   -2.0108   37.7510 O   0  0  0  0  0  0  0  0  0  0  0  0
   -0.2039   -6.6904   33.5946 C   0  0  0  0  0  0  0  0  0  0  0  0
    0.2655   -6.3134   32.3329 C   0  0  0  0  0  0  0  0  0  0  0  0
   -0.3559   -6.8448   31.2180 C   0  0  0  0  0  0  0  0  0  0  0  0
   -1.3936   -7.6993   31.2891 N   0  0  0  0  0  0  0  0  0  0  0  0
   -1.7902   -8.0495   32.5363 C   0  0  0  0  0  0  0  0  0  0  0  0
   -3.0715   -9.1636   32.4922 Cl  0  0  0  0  0  0  0  0  0  0  0  0
   -1.2603   -7.5709   33.7211 C   0  0  0  0  0  0  0  0  0  0  0  0
   -1.8916   -8.0001   35.2566 Cl  0  0  0  0  0  0  0  0  0  0  0  0
  1  2  2  0
  2  3  1  0
  3  4  1  0
  4  5  2  0
  5  6  1  0
  6  7  1  0
  6  8  2  0
  8  9  1  0
  9 10  2  0
 10 11  1  0
 11 12  1  0
 12 13  1  0
 13 14  2  0
  2 15  1  0
 15 16  2  0
 16 17  1  0
 17 18  2  0
 18 19  1  0
 19 20  1  0
 19 21  2  0
 21 22  1  0
 10  4  1  0
 21 15  1  0
 13  9  1  0
M  END
>  <ref_mols>  (726) 
7gov-a

>  <gnina_score>  (726) 
5.204

>  <smina_score_min>  (726) 
-5.496

>  <ref_pdb>  (726) 
7gov-a

>  <inspiration_score>  (726) 
None

>  <inchikey>  (726) 
ZPSCEXVGYWFNSH-UHFFFAOYSA-N

>  <tags>  (726) 
BulkDock Fragalysis export,openbind_d68ev3c_c2_elabs_scored,openbind_d68ev3c_c2_elabs_scored_4.5plus,openbind_d68ev3c_c2_elabs,openbind_d68ev3c_c2_elabs_scored_5plus,syndirella_product,openbind_d68ev3c_c2_elabs_scored_top80percent,syndirella_placed

>  <smiles>  (726) 
O=C(Nc1cc(F)cc2c1CNC2=O)c1ccnc(Cl)c1Cl

>  <subsites>  (726) 
None

>  <rmsd(smina/fragmenstein)>  (726) 
1.041

>  <alias>  (726) 
None

>  <energy_score>  (726) 
-13.803553

>  <HIPPO Pose ID>  (726) 
66652

>  <distance_score>  (726) 
0.692226

>  <HIPPO Compound ID>  (726) 
105348

>  <gnina_score_min>  (726) 
5.046

>  <name>  (726) 
P66652

>  <exports>  (726) 
['/opt/xchem-fragalysis-2/maxwin/BulkDock/OUTPUTS/openbind_d68ev3c_c2_elabs_1LOTQJ3.sdf', '/opt/xchem-fragalysis-2/maxwin/BulkDock/OUTPUTS/openbind_d68ev3c_c2_elabs_1LSYEHW.sdf', '/opt/xchem-fragalysis-2/maxwin/BulkDock/OUTPUTS/openbind_d68ev3c_c2_elabs_1LSYI5W.sdf']

$$$$
P66653
     RDKit          3D

 22 23  0  0  0  0  0  0  0  0999 V2000
    3.4569   -3.8772   33.6325 C   0  0  0  0  0  0  0  0  0  0  0  0
    2.8371   -3.8430   34.6604 C   0  0  0  0  0  0  0  0  0  0  0  0
    2.1056   -3.8000   35.8963 C   0  0  0  0  0  0  0  0  0  0  0  0
    2.5582   -2.9163   36.8860 C   0  0  0  0  0  0  0  0  0  0  0  0
    1.9066   -2.8516   38.1149 C   0  0  0  0  0  0  0  0  0  0  0  0
    2.4907   -1.7755   39.3261 Cl  0  0  0  0  0  0  0  0  0  0  0  0
    0.8002   -3.6558   38.3542 C   0  0  0  0  0  0  0  0  0  0  0  0
    0.1661   -3.6067   39.5367 F   0  0  0  0  0  0  0  0  0  0  0  0
    0.3397   -4.5291   37.3728 C   0  0  0  0  0  0  0  0  0  0  0  0
   -0.7092   -5.3006   37.6837 F   0  0  0  0  0  0  0  0  0  0  0  0
    0.9797   -4.6189   36.1289 C   0  0  0  0  0  0  0  0  0  0  0  0
    0.5485   -5.4772   35.1017 N   0  0  0  0  0  0  0  0  0  0  0  0
   -0.7013   -6.3779   35.0059 C   0  0  0  0  0  0  0  0  0  0  0  0
   -1.5303   -6.6087   35.7952 O   0  0  0  0  0  0  0  0  0  0  0  0
   -0.8677   -7.0417   33.6739 C   0  0  0  0  0  0  0  0  0  0  0  0
   -1.5647   -8.2623   33.7238 C   0  0  0  0  0  0  0  0  0  0  0  0
   -1.9066   -8.8857   32.5460 C   0  0  0  0  0  0  0  0  0  0  0  0
   -1.5769   -8.4093   31.3352 N   0  0  0  0  0  0  0  0  0  0  0  0
   -0.8588   -7.2592   31.3073 C   0  0  0  0  0  0  0  0  0  0  0  0
   -0.5193   -6.7782   29.6882 Cl  0  0  0  0  0  0  0  0  0  0  0  0
   -0.5072   -6.5116   32.4286 C   0  0  0  0  0  0  0  0  0  0  0  0
    0.2178   -4.9572   32.2273 Cl  0  0  0  0  0  0  0  0  0  0  0  0
  1  2  3  0
  2  3  1  0
  3  4  2  0
  4  5  1  0
  5  6  1  0
  5  7  2  0
  7  8  1  0
  7  9  1  0
  9 10  1  0
  9 11  2  0
 11 12  1  0
 12 13  1  0
 13 14  2  0
 13 15  1  0
 15 16  2  0
 16 17  1  0
 17 18  2  0
 18 19  1  0
 19 20  1  0
 19 21  2  0
 21 22  1  0
 11  3  1  0
 21 15  1  0
M  END
>  <ref_mols>  (727) 
7gov-a

>  <gnina_score>  (727) 
5.541

>  <smina_score_min>  (727) 
-5.683

>  <ref_pdb>  (727) 
7gov-a

>  <inspiration_score>  (727) 
None

>  <inchikey>  (727) 
GQAKDJAZEXDVGZ-UHFFFAOYSA-N

>  <tags>  (727) 
BulkDock Fragalysis export,openbind_d68ev3c_c2_elabs_scored,openbind_d68ev3c_c2_elabs_scored_4.5plus,openbind_d68ev3c_c2_elabs,openbind_d68ev3c_c2_elabs_scored_5plus,syndirella_product,openbind_d68ev3c_c2_elabs_scored_top80percent,syndirella_placed

>  <smiles>  (727) 
C#Cc1cc(Cl)c(F)c(F)c1NC(=O)c1ccnc(Cl)c1Cl

>  <subsites>  (727) 
None

>  <rmsd(smina/fragmenstein)>  (727) 
0.926

>  <alias>  (727) 
None

>  <energy_score>  (727) 
-12.266343

>  <HIPPO Pose ID>  (727) 
66653

>  <distance_score>  (727) 
0.752856

>  <HIPPO Compound ID>  (727) 
105349

>  <gnina_score_min>  (727) 
5.374

>  <name>  (727) 
P66653

>  <exports>  (727) 
['/opt/xchem-fragalysis-2/maxwin/BulkDock/OUTPUTS/openbind_d68ev3c_c2_elabs_1LOTQJ3.sdf', '/opt/xchem-fragalysis-2/maxwin/BulkDock/OUTPUTS/openbind_d68ev3c_c2_elabs_1LSYEHW.sdf', '/opt/xchem-fragalysis-2/maxwin/BulkDock/OUTPUTS/openbind_d68ev3c_c2_elabs_1LSYI5W.sdf']

$$$$
P66654
     RDKit          3D

 22 23  0  0  0  0  0  0  0  0999 V2000
    3.5457   -3.8999   33.6205 C   0  0  0  0  0  0  0  0  0  0  0  0
    2.9128   -3.8534   34.6400 C   0  0  0  0  0  0  0  0  0  0  0  0
    2.1609   -3.7974   35.8615 C   0  0  0  0  0  0  0  0  0  0  0  0
    2.6299   -2.9719   36.8910 C   0  0  0  0  0  0  0  0  0  0  0  0
    1.9492   -2.9139   38.1112 C   0  0  0  0  0  0  0  0  0  0  0  0
    2.4635   -2.1242   39.1852 C   0  0  0  0  0  0  0  0  0  0  0  0
    2.9112   -1.4777   40.0398 N   0  0  0  0  0  0  0  0  0  0  0  0
    0.7812   -3.6511   38.2781 C   0  0  0  0  0  0  0  0  0  0  0  0
    0.1080   -3.6022   39.4372 F   0  0  0  0  0  0  0  0  0  0  0  0
    0.2925   -4.4609   37.2566 C   0  0  0  0  0  0  0  0  0  0  0  0
    0.9918   -4.5569   36.0508 C   0  0  0  0  0  0  0  0  0  0  0  0
    0.5339   -5.3987   35.0364 N   0  0  0  0  0  0  0  0  0  0  0  0
   -0.6854   -6.3401   34.9905 C   0  0  0  0  0  0  0  0  0  0  0  0
   -1.4573   -6.6200   35.8208 O   0  0  0  0  0  0  0  0  0  0  0  0
   -0.8726   -7.0118   33.6606 C   0  0  0  0  0  0  0  0  0  0  0  0
   -1.5677   -8.2335   33.7267 C   0  0  0  0  0  0  0  0  0  0  0  0
   -1.9119   -8.8735   32.5583 C   0  0  0  0  0  0  0  0  0  0  0  0
   -1.5876   -8.4122   31.3409 N   0  0  0  0  0  0  0  0  0  0  0  0
   -0.8705   -7.2623   31.2953 C   0  0  0  0  0  0  0  0  0  0  0  0
   -0.5357   -6.8057   29.6678 Cl  0  0  0  0  0  0  0  0  0  0  0  0
   -0.5156   -6.4993   32.4056 C   0  0  0  0  0  0  0  0  0  0  0  0
    0.2181   -4.9525   32.1741 Cl  0  0  0  0  0  0  0  0  0  0  0  0
  1  2  3  0
  2  3  1  0
  3  4  2  0
  4  5  1  0
  5  6  1  0
  6  7  3  0
  5  8  2  0
  8  9  1  0
  8 10  1  0
 10 11  2  0
 11 12  1  0
 12 13  1  0
 13 14  2  0
 13 15  1  0
 15 16  2  0
 16 17  1  0
 17 18  2  0
 18 19  1  0
 19 20  1  0
 19 21  2  0
 21 22  1  0
 11  3  1  0
 21 15  1  0
M  END
>  <ref_mols>  (728) 
7gov-a

>  <gnina_score>  (728) 
5.264

>  <smina_score_min>  (728) 
-5.709

>  <ref_pdb>  (728) 
7gov-a

>  <inspiration_score>  (728) 
None

>  <inchikey>  (728) 
SFBGVOLPBTXQRR-UHFFFAOYSA-N

>  <tags>  (728) 
BulkDock Fragalysis export,openbind_d68ev3c_c2_elabs_scored,openbind_d68ev3c_c2_elabs_scored_4.5plus,openbind_d68ev3c_c2_elabs,openbind_d68ev3c_c2_elabs_scored_5plus,syndirella_product,openbind_d68ev3c_c2_elabs_scored_top80percent,syndirella_placed

>  <smiles>  (728) 
C#Cc1cc(C#N)c(F)cc1NC(=O)c1ccnc(Cl)c1Cl

>  <subsites>  (728) 
None

>  <rmsd(smina/fragmenstein)>  (728) 
1.223

>  <alias>  (728) 
None

>  <energy_score>  (728) 
-1.017984

>  <HIPPO Pose ID>  (728) 
66654

>  <distance_score>  (728) 
0.727158

>  <HIPPO Compound ID>  (728) 
105350

>  <gnina_score_min>  (728) 
5.241

>  <name>  (728) 
P66654

>  <exports>  (728) 
['/opt/xchem-fragalysis-2/maxwin/BulkDock/OUTPUTS/openbind_d68ev3c_c2_elabs_1LOTQJ3.sdf', '/opt/xchem-fragalysis-2/maxwin/BulkDock/OUTPUTS/openbind_d68ev3c_c2_elabs_1LSYEHW.sdf', '/opt/xchem-fragalysis-2/maxwin/BulkDock/OUTPUTS/openbind_d68ev3c_c2_elabs_1LSYI5W.sdf']

$$$$
P66667
     RDKit          3D

 22 23  0  0  0  0  0  0  0  0999 V2000
   -3.2074   -9.0729   35.0875 C   0  0  0  0  0  0  0  0  0  0  0  0
   -2.0570   -8.0988   34.9735 C   0  0  0  0  0  0  0  0  0  0  0  0
   -1.4400   -7.8750   33.6188 C   0  0  0  0  0  0  0  0  0  0  0  0
   -2.0101   -8.3452   32.4463 C   0  0  0  0  0  0  0  0  0  0  0  0
   -1.5845   -8.0179   31.2052 N   0  0  0  0  0  0  0  0  0  0  0  0
   -0.5137   -7.1940   31.1279 C   0  0  0  0  0  0  0  0  0  0  0  0
    0.1520   -6.6801   32.2259 C   0  0  0  0  0  0  0  0  0  0  0  0
   -0.3089   -7.0433   33.4866 C   0  0  0  0  0  0  0  0  0  0  0  0
    0.3953   -6.6094   34.7323 C   0  0  0  0  0  0  0  0  0  0  0  0
    0.6142   -7.4277   35.5290 O   0  0  0  0  0  0  0  0  0  0  0  0
    0.6208   -5.0973   34.7761 N   0  0  0  0  0  0  0  0  0  0  0  0
    1.0609   -4.2806   35.8083 C   0  0  0  0  0  0  0  0  0  0  0  0
    2.0327   -3.3018   35.5904 C   0  0  0  0  0  0  0  0  0  0  0  0
    2.6564   -3.1780   34.2476 C   0  0  0  0  0  0  0  0  0  0  0  0
    4.1322   -2.8890   34.1708 C   0  0  0  0  0  0  0  0  0  0  0  0
    1.9637   -3.2853   33.2362 O   0  0  0  0  0  0  0  0  0  0  0  0
    2.4705   -2.5058   36.6611 C   0  0  0  0  0  0  0  0  0  0  0  0
    1.9212   -2.6767   37.9365 C   0  0  0  0  0  0  0  0  0  0  0  0
    0.9516   -3.6512   38.1437 C   0  0  0  0  0  0  0  0  0  0  0  0
    0.4033   -3.7861   39.3603 F   0  0  0  0  0  0  0  0  0  0  0  0
    0.5360   -4.4613   37.0953 C   0  0  0  0  0  0  0  0  0  0  0  0
   -0.4246   -5.3735   37.3194 F   0  0  0  0  0  0  0  0  0  0  0  0
  1  2  1  0
  2  3  1  0
  3  4  2  0
  4  5  1  0
  5  6  2  0
  6  7  1  0
  7  8  2  0
  8  9  1  0
  9 10  2  0
  9 11  1  0
 11 12  1  0
 12 13  2  0
 13 14  1  0
 14 15  1  0
 14 16  2  0
 13 17  1  0
 17 18  2  0
 18 19  1  0
 19 20  1  0
 19 21  2  0
 21 22  1  0
  8  3  1  0
 21 12  1  0
M  END
>  <ref_mols>  (729) 
7gov-a

>  <gnina_score>  (729) 
5.077

>  <smina_score_min>  (729) 
-5.482

>  <ref_pdb>  (729) 
7gov-a

>  <inspiration_score>  (729) 
None

>  <inchikey>  (729) 
ZUCRAEGPXYLBDV-UHFFFAOYSA-N

>  <tags>  (729) 
BulkDock Fragalysis export,openbind_d68ev3c_c2_elabs_scored,openbind_d68ev3c_c2_elabs_scored_4.5plus,openbind_d68ev3c_c2_elabs,openbind_d68ev3c_c2_elabs_scored_5plus,syndirella_product,openbind_d68ev3c_c2_elabs_scored_top80percent,syndirella_placed

>  <smiles>  (729) 
CCc1cnccc1C(=O)Nc1c(C(C)=O)ccc(F)c1F

>  <subsites>  (729) 
None

>  <rmsd(smina/fragmenstein)>  (729) 
0.696

>  <alias>  (729) 
None

>  <energy_score>  (729) 
-8.78551

>  <HIPPO Pose ID>  (729) 
66667

>  <distance_score>  (729) 
0.496982

>  <HIPPO Compound ID>  (729) 
105389

>  <gnina_score_min>  (729) 
5.022

>  <name>  (729) 
P66667

>  <exports>  (729) 
['/opt/xchem-fragalysis-2/maxwin/BulkDock/OUTPUTS/openbind_d68ev3c_c2_elabs_1LOTQJ3.sdf', '/opt/xchem-fragalysis-2/maxwin/BulkDock/OUTPUTS/openbind_d68ev3c_c2_elabs_1LSYEHW.sdf', '/opt/xchem-fragalysis-2/maxwin/BulkDock/OUTPUTS/openbind_d68ev3c_c2_elabs_1LSYI5W.sdf']

$$$$
P66668
     RDKit          3D

 22 23  0  0  0  0  0  0  0  0999 V2000
   -3.7060   -8.9137   34.8218 C   0  0  0  0  0  0  0  0  0  0  0  0
   -2.1935   -8.8713   34.7250 C   0  0  0  0  0  0  0  0  0  0  0  0
   -1.6170   -8.1141   33.5580 C   0  0  0  0  0  0  0  0  0  0  0  0
   -2.0599   -8.4913   32.2953 C   0  0  0  0  0  0  0  0  0  0  0  0
   -1.6044   -7.9985   31.1256 N   0  0  0  0  0  0  0  0  0  0  0  0
   -0.5899   -7.1182   31.2083 C   0  0  0  0  0  0  0  0  0  0  0  0
   -0.0536   -6.6734   32.4036 C   0  0  0  0  0  0  0  0  0  0  0  0
   -0.5850   -7.1522   33.6088 C   0  0  0  0  0  0  0  0  0  0  0  0
    0.0027   -6.7029   34.9265 C   0  0  0  0  0  0  0  0  0  0  0  0
   -0.0208   -7.4714   35.7998 O   0  0  0  0  0  0  0  0  0  0  0  0
    0.4908   -5.2447   34.8952 N   0  0  0  0  0  0  0  0  0  0  0  0
    0.9480   -4.4252   35.9170 C   0  0  0  0  0  0  0  0  0  0  0  0
    0.4115   -4.5743   37.1986 C   0  0  0  0  0  0  0  0  0  0  0  0
    0.8551   -3.7560   38.2310 C   0  0  0  0  0  0  0  0  0  0  0  0
    0.2933   -3.8827   39.4426 F   0  0  0  0  0  0  0  0  0  0  0  0
    1.8546   -2.8135   38.0038 C   0  0  0  0  0  0  0  0  0  0  0  0
    2.4768   -1.7152   39.4131 Br  0  0  0  0  0  0  0  0  0  0  0  0
    2.4087   -2.6692   36.7294 C   0  0  0  0  0  0  0  0  0  0  0  0
    1.9489   -3.4731   35.6772 C   0  0  0  0  0  0  0  0  0  0  0  0
    2.5758   -3.3851   34.3293 C   0  0  0  0  0  0  0  0  0  0  0  0
    4.0439   -3.0605   34.2413 C   0  0  0  0  0  0  0  0  0  0  0  0
    1.8915   -3.5565   33.3202 O   0  0  0  0  0  0  0  0  0  0  0  0
  1  2  1  0
  2  3  1  0
  3  4  2  0
  4  5  1  0
  5  6  2  0
  6  7  1  0
  7  8  2  0
  8  9  1  0
  9 10  2  0
  9 11  1  0
 11 12  1  0
 12 13  2  0
 13 14  1  0
 14 15  1  0
 14 16  2  0
 16 17  1  0
 16 18  1  0
 18 19  2  0
 19 20  1  0
 20 21  1  0
 20 22  2  0
  8  3  1  0
 19 12  1  0
M  END
>  <ref_mols>  (730) 
7gov-a

>  <gnina_score>  (730) 
5.039

>  <smina_score_min>  (730) 
-5.699

>  <ref_pdb>  (730) 
7gov-a

>  <inspiration_score>  (730) 
None

>  <inchikey>  (730) 
MBEWWDYTGLLFOH-UHFFFAOYSA-N

>  <tags>  (730) 
BulkDock Fragalysis export,openbind_d68ev3c_c2_elabs_scored,openbind_d68ev3c_c2_elabs_scored_4.5plus,openbind_d68ev3c_c2_elabs,openbind_d68ev3c_c2_elabs_scored_5plus,syndirella_product,openbind_d68ev3c_c2_elabs_scored_top80percent,syndirella_placed

>  <smiles>  (730) 
CCc1cnccc1C(=O)Nc1cc(F)c(Br)cc1C(C)=O

>  <subsites>  (730) 
None

>  <rmsd(smina/fragmenstein)>  (730) 
1.287

>  <alias>  (730) 
None

>  <energy_score>  (730) 
-29.327198

>  <HIPPO Pose ID>  (730) 
66668

>  <distance_score>  (730) 
0.483852

>  <HIPPO Compound ID>  (730) 
105391

>  <gnina_score_min>  (730) 
5.105

>  <name>  (730) 
P66668

>  <exports>  (730) 
['/opt/xchem-fragalysis-2/maxwin/BulkDock/OUTPUTS/openbind_d68ev3c_c2_elabs_1LOTQJ3.sdf', '/opt/xchem-fragalysis-2/maxwin/BulkDock/OUTPUTS/openbind_d68ev3c_c2_elabs_1LSYEHW.sdf', '/opt/xchem-fragalysis-2/maxwin/BulkDock/OUTPUTS/openbind_d68ev3c_c2_elabs_1LSYI5W.sdf']

$$$$
P66669
     RDKit          3D

 22 23  0  0  0  0  0  0  0  0999 V2000
    2.9937   -3.1510   33.2395 C   0  0  0  0  0  0  0  0  0  0  0  0
    2.4995   -3.2840   34.3260 C   0  0  0  0  0  0  0  0  0  0  0  0
    1.9118   -3.4380   35.6251 C   0  0  0  0  0  0  0  0  0  0  0  0
    2.3961   -2.6623   36.6858 C   0  0  0  0  0  0  0  0  0  0  0  0
    1.8886   -2.8397   37.9798 C   0  0  0  0  0  0  0  0  0  0  0  0
    2.3981   -2.0632   39.0659 C   0  0  0  0  0  0  0  0  0  0  0  0
    2.8317   -1.4119   39.9242 N   0  0  0  0  0  0  0  0  0  0  0  0
    0.8938   -3.7868   38.2023 C   0  0  0  0  0  0  0  0  0  0  0  0
    0.3578   -3.9384   39.4229 F   0  0  0  0  0  0  0  0  0  0  0  0
    0.4309   -4.5879   37.1641 C   0  0  0  0  0  0  0  0  0  0  0  0
    0.9366   -4.4120   35.8734 C   0  0  0  0  0  0  0  0  0  0  0  0
    0.4705   -5.2322   34.8538 N   0  0  0  0  0  0  0  0  0  0  0  0
    0.0328   -6.7071   34.8788 C   0  0  0  0  0  0  0  0  0  0  0  0
    0.0661   -7.4889   35.7399 O   0  0  0  0  0  0  0  0  0  0  0  0
   -0.5751   -7.1532   33.5750 C   0  0  0  0  0  0  0  0  0  0  0  0
   -0.0473   -6.6822   32.3661 C   0  0  0  0  0  0  0  0  0  0  0  0
   -0.5969   -7.1275   31.1783 C   0  0  0  0  0  0  0  0  0  0  0  0
   -1.6213   -7.9969   31.1114 N   0  0  0  0  0  0  0  0  0  0  0  0
   -2.0696   -8.4860   32.2859 C   0  0  0  0  0  0  0  0  0  0  0  0
   -1.6124   -8.1077   33.5415 C   0  0  0  0  0  0  0  0  0  0  0  0
   -2.1707   -8.8565   34.7217 C   0  0  0  0  0  0  0  0  0  0  0  0
   -3.6822   -8.9116   34.8330 C   0  0  0  0  0  0  0  0  0  0  0  0
  1  2  3  0
  2  3  1  0
  3  4  2  0
  4  5  1  0
  5  6  1  0
  6  7  3  0
  5  8  2  0
  8  9  1  0
  8 10  1  0
 10 11  2  0
 11 12  1  0
 12 13  1  0
 13 14  2  0
 13 15  1  0
 15 16  2  0
 16 17  1  0
 17 18  2  0
 18 19  1  0
 19 20  2  0
 20 21  1  0
 21 22  1  0
 11  3  1  0
 20 15  1  0
M  END
>  <ref_mols>  (731) 
7gov-a

>  <gnina_score>  (731) 
4.871

>  <smina_score_min>  (731) 
-5.502

>  <ref_pdb>  (731) 
7gov-a

>  <inspiration_score>  (731) 
None

>  <inchikey>  (731) 
BPAYVPNDTJLXSU-UHFFFAOYSA-N

>  <tags>  (731) 
BulkDock Fragalysis export,openbind_d68ev3c_c2_elabs_scored,openbind_d68ev3c_c2_elabs_scored_4.5plus,openbind_d68ev3c_c2_elabs,openbind_d68ev3c_c2_elabs_scored_5plus,syndirella_product,openbind_d68ev3c_c2_elabs_scored_top80percent,syndirella_placed

>  <smiles>  (731) 
C#Cc1cc(C#N)c(F)cc1NC(=O)c1ccncc1CC

>  <subsites>  (731) 
None

>  <rmsd(smina/fragmenstein)>  (731) 
1.368

>  <alias>  (731) 
None

>  <energy_score>  (731) 
-11.534601

>  <HIPPO Pose ID>  (731) 
66669

>  <distance_score>  (731) 
0.490817

>  <HIPPO Compound ID>  (731) 
105392

>  <gnina_score_min>  (731) 
5.008

>  <name>  (731) 
P66669

>  <exports>  (731) 
['/opt/xchem-fragalysis-2/maxwin/BulkDock/OUTPUTS/openbind_d68ev3c_c2_elabs_1LOTQJ3.sdf', '/opt/xchem-fragalysis-2/maxwin/BulkDock/OUTPUTS/openbind_d68ev3c_c2_elabs_1LSYEHW.sdf', '/opt/xchem-fragalysis-2/maxwin/BulkDock/OUTPUTS/openbind_d68ev3c_c2_elabs_1LSYI5W.sdf']

$$$$
P66674
     RDKit          3D

 22 23  0  0  0  0  0  0  0  0999 V2000
    3.3928   -4.4015   33.9091 C   0  0  0  0  0  0  0  0  0  0  0  0
    2.7016   -4.1281   34.8520 C   0  0  0  0  0  0  0  0  0  0  0  0
    1.8794   -3.8353   35.9921 C   0  0  0  0  0  0  0  0  0  0  0  0
    2.4427   -3.1264   37.0581 C   0  0  0  0  0  0  0  0  0  0  0  0
    1.6838   -2.8658   38.1978 C   0  0  0  0  0  0  0  0  0  0  0  0
    2.4124   -2.0560   39.5323 Cl  0  0  0  0  0  0  0  0  0  0  0  0
    0.3511   -3.2651   38.2541 C   0  0  0  0  0  0  0  0  0  0  0  0
   -0.3703   -3.0692   39.3677 F   0  0  0  0  0  0  0  0  0  0  0  0
   -0.2346   -3.9057   37.1695 C   0  0  0  0  0  0  0  0  0  0  0  0
   -1.5147   -4.3034   37.2442 F   0  0  0  0  0  0  0  0  0  0  0  0
    0.5283   -4.2190   36.0479 C   0  0  0  0  0  0  0  0  0  0  0  0
   -0.0045   -5.0695   35.0892 N   0  0  0  0  0  0  0  0  0  0  0  0
    0.4111   -6.4856   34.6725 C   0  0  0  0  0  0  0  0  0  0  0  0
    1.2171   -7.1967   35.1173 O   0  0  0  0  0  0  0  0  0  0  0  0
   -0.3636   -6.9474   33.4962 C   0  0  0  0  0  0  0  0  0  0  0  0
    0.0704   -6.6081   32.2201 C   0  0  0  0  0  0  0  0  0  0  0  0
   -0.5966   -7.1723   31.1509 C   0  0  0  0  0  0  0  0  0  0  0  0
   -1.6466   -8.0164   31.2786 N   0  0  0  0  0  0  0  0  0  0  0  0
   -2.0239   -8.3341   32.5397 C   0  0  0  0  0  0  0  0  0  0  0  0
   -1.4376   -7.8194   33.6865 C   0  0  0  0  0  0  0  0  0  0  0  0
   -1.9041   -8.1015   35.0816 C   0  0  0  0  0  0  0  0  0  0  0  0
   -3.0633   -9.0632   35.2194 C   0  0  0  0  0  0  0  0  0  0  0  0
  1  2  3  0
  2  3  1  0
  3  4  2  0
  4  5  1  0
  5  6  1  0
  5  7  2  0
  7  8  1  0
  7  9  1  0
  9 10  1  0
  9 11  2  0
 11 12  1  0
 12 13  1  0
 13 14  2  0
 13 15  1  0
 15 16  2  0
 16 17  1  0
 17 18  2  0
 18 19  1  0
 19 20  2  0
 20 21  1  0
 21 22  1  0
 11  3  1  0
 20 15  1  0
M  END
>  <ref_mols>  (732) 
7gov-a

>  <gnina_score>  (732) 
5.064

>  <smina_score_min>  (732) 
-5.745

>  <ref_pdb>  (732) 
7gov-a

>  <inspiration_score>  (732) 
None

>  <inchikey>  (732) 
VLSHOWRSRLRNAR-UHFFFAOYSA-N

>  <tags>  (732) 
BulkDock Fragalysis export,openbind_d68ev3c_c2_elabs_scored,openbind_d68ev3c_c2_elabs_scored_4.5plus,openbind_d68ev3c_c2_elabs,openbind_d68ev3c_c2_elabs_scored_5plus,syndirella_product,openbind_d68ev3c_c2_elabs_scored_top80percent,syndirella_placed

>  <smiles>  (732) 
C#Cc1cc(Cl)c(F)c(F)c1NC(=O)c1ccncc1CC

>  <subsites>  (732) 
None

>  <rmsd(smina/fragmenstein)>  (732) 
0.829

>  <alias>  (732) 
None

>  <energy_score>  (732) 
-5.442675

>  <HIPPO Pose ID>  (732) 
66674

>  <distance_score>  (732) 
0.397663

>  <HIPPO Compound ID>  (732) 
105405

>  <gnina_score_min>  (732) 
5.275

>  <name>  (732) 
P66674

>  <exports>  (732) 
['/opt/xchem-fragalysis-2/maxwin/BulkDock/OUTPUTS/openbind_d68ev3c_c2_elabs_1LOTQJ3.sdf', '/opt/xchem-fragalysis-2/maxwin/BulkDock/OUTPUTS/openbind_d68ev3c_c2_elabs_1LSYEHW.sdf', '/opt/xchem-fragalysis-2/maxwin/BulkDock/OUTPUTS/openbind_d68ev3c_c2_elabs_1LSYI5W.sdf']

$$$$
P66697
     RDKit          3D

 22 23  0  0  0  0  0  0  0  0999 V2000
    3.3515   -3.7456   33.5901 C   0  0  0  0  0  0  0  0  0  0  0  0
    2.7671   -3.7364   34.6391 C   0  0  0  0  0  0  0  0  0  0  0  0
    2.0703   -3.7264   35.8960 C   0  0  0  0  0  0  0  0  0  0  0  0
    2.5330   -2.8548   36.8909 C   0  0  0  0  0  0  0  0  0  0  0  0
    1.9092   -2.8244   38.1358 C   0  0  0  0  0  0  0  0  0  0  0  0
    2.5012   -1.7573   39.3513 Cl  0  0  0  0  0  0  0  0  0  0  0  0
    0.8193   -3.6485   38.3849 C   0  0  0  0  0  0  0  0  0  0  0  0
    0.2014   -3.6187   39.5764 F   0  0  0  0  0  0  0  0  0  0  0  0
    0.3533   -4.5151   37.4007 C   0  0  0  0  0  0  0  0  0  0  0  0
   -0.6979   -5.2840   37.7093 F   0  0  0  0  0  0  0  0  0  0  0  0
    0.9710   -4.5758   36.1446 C   0  0  0  0  0  0  0  0  0  0  0  0
    0.5509   -5.4369   35.1172 N   0  0  0  0  0  0  0  0  0  0  0  0
   -0.5944   -6.4729   35.0815 C   0  0  0  0  0  0  0  0  0  0  0  0
   -1.3197   -6.8287   35.9246 O   0  0  0  0  0  0  0  0  0  0  0  0
   -0.8127   -7.0676   33.7283 C   0  0  0  0  0  0  0  0  0  0  0  0
   -1.6869   -8.1560   33.6500 C   0  0  0  0  0  0  0  0  0  0  0  0
   -2.0153   -8.6360   32.4031 C   0  0  0  0  0  0  0  0  0  0  0  0
   -2.9207   -9.6119   32.3094 F   0  0  0  0  0  0  0  0  0  0  0  0
   -1.5241   -8.1545   31.2424 N   0  0  0  0  0  0  0  0  0  0  0  0
   -0.6345   -7.1426   31.3473 C   0  0  0  0  0  0  0  0  0  0  0  0
   -0.2710   -6.5626   32.5498 C   0  0  0  0  0  0  0  0  0  0  0  0
    0.5634   -5.5147   32.5402 F   0  0  0  0  0  0  0  0  0  0  0  0
  1  2  3  0
  2  3  1  0
  3  4  2  0
  4  5  1  0
  5  6  1  0
  5  7  2  0
  7  8  1  0
  7  9  1  0
  9 10  1  0
  9 11  2  0
 11 12  1  0
 12 13  1  0
 13 14  2  0
 13 15  1  0
 15 16  2  0
 16 17  1  0
 17 18  1  0
 17 19  2  0
 19 20  1  0
 20 21  2  0
 21 22  1  0
 11  3  1  0
 21 15  1  0
M  END
>  <ref_mols>  (733) 
7gov-a

>  <gnina_score>  (733) 
5.352

>  <smina_score_min>  (733) 
-5.63

>  <ref_pdb>  (733) 
7gov-a

>  <inspiration_score>  (733) 
None

>  <inchikey>  (733) 
YJRAWEQSJRUVRE-UHFFFAOYSA-N

>  <tags>  (733) 
BulkDock Fragalysis export,openbind_d68ev3c_c2_elabs_scored,openbind_d68ev3c_c2_elabs_scored_4.5plus,openbind_d68ev3c_c2_elabs,openbind_d68ev3c_c2_elabs_scored_5plus,syndirella_product,openbind_d68ev3c_c2_elabs_scored_top80percent,syndirella_placed

>  <smiles>  (733) 
C#Cc1cc(Cl)c(F)c(F)c1NC(=O)c1cc(F)ncc1F

>  <subsites>  (733) 
None

>  <rmsd(smina/fragmenstein)>  (733) 
0.604

>  <alias>  (733) 
None

>  <energy_score>  (733) 
-9.626797

>  <HIPPO Pose ID>  (733) 
66697

>  <distance_score>  (733) 
0.715104

>  <HIPPO Compound ID>  (733) 
105465

>  <gnina_score_min>  (733) 
5.197

>  <name>  (733) 
P66697

>  <exports>  (733) 
['/opt/xchem-fragalysis-2/maxwin/BulkDock/OUTPUTS/openbind_d68ev3c_c2_elabs_1LOTQJ3.sdf', '/opt/xchem-fragalysis-2/maxwin/BulkDock/OUTPUTS/openbind_d68ev3c_c2_elabs_1LSYEHW.sdf', '/opt/xchem-fragalysis-2/maxwin/BulkDock/OUTPUTS/openbind_d68ev3c_c2_elabs_1LSYI5W.sdf']

$$$$
P66706
     RDKit          3D

 22 23  0  0  0  0  0  0  0  0999 V2000
    3.4618   -4.6548   34.1646 C   0  0  0  0  0  0  0  0  0  0  0  0
    2.6896   -4.3228   35.0217 C   0  0  0  0  0  0  0  0  0  0  0  0
    1.8238   -3.9508   36.1029 C   0  0  0  0  0  0  0  0  0  0  0  0
    2.3821   -3.1938   37.1414 C   0  0  0  0  0  0  0  0  0  0  0  0
    1.6139   -2.8555   38.2512 C   0  0  0  0  0  0  0  0  0  0  0  0
    2.3409   -2.0019   39.5584 Cl  0  0  0  0  0  0  0  0  0  0  0  0
    0.2730   -3.2183   38.2998 C   0  0  0  0  0  0  0  0  0  0  0  0
   -0.4608   -2.9586   39.3913 F   0  0  0  0  0  0  0  0  0  0  0  0
   -0.3102   -3.8919   37.2339 C   0  0  0  0  0  0  0  0  0  0  0  0
   -1.6042   -4.2413   37.3019 F   0  0  0  0  0  0  0  0  0  0  0  0
    0.4612   -4.2946   36.1463 C   0  0  0  0  0  0  0  0  0  0  0  0
   -0.1148   -5.1525   35.2146 N   0  0  0  0  0  0  0  0  0  0  0  0
    0.2828   -6.5722   34.7867 C   0  0  0  0  0  0  0  0  0  0  0  0
    1.1089   -7.2814   35.1992 O   0  0  0  0  0  0  0  0  0  0  0  0
   -0.5325   -7.0698   33.6630 C   0  0  0  0  0  0  0  0  0  0  0  0
   -1.4777   -8.0511   33.9667 C   0  0  0  0  0  0  0  0  0  0  0  0
   -2.1326   -8.6555   32.9132 C   0  0  0  0  0  0  0  0  0  0  0  0
   -1.8758   -8.3893   31.6165 N   0  0  0  0  0  0  0  0  0  0  0  0
   -0.9161   -7.4771   31.3644 C   0  0  0  0  0  0  0  0  0  0  0  0
   -0.6192   -7.3658   30.0378 O   0  0  0  0  0  0  0  0  0  0  0  0
   -0.2481   -6.7466   32.3355 C   0  0  0  0  0  0  0  0  0  0  0  0
    0.9497   -5.3806   31.8136 Br  0  0  0  0  0  0  0  0  0  0  0  0
  1  2  3  0
  2  3  1  0
  3  4  2  0
  4  5  1  0
  5  6  1  0
  5  7  2  0
  7  8  1  0
  7  9  1  0
  9 10  1  0
  9 11  2  0
 11 12  1  0
 12 13  1  0
 13 14  2  0
 13 15  1  0
 15 16  2  0
 16 17  1  0
 17 18  2  0
 18 19  1  0
 19 20  1  0
 19 21  2  0
 21 22  1  0
 11  3  1  0
 21 15  1  0
M  END
>  <ref_mols>  (734) 
7gov-a

>  <gnina_score>  (734) 
5.1

>  <smina_score_min>  (734) 
-6.425

>  <ref_pdb>  (734) 
7gov-a

>  <inspiration_score>  (734) 
None

>  <inchikey>  (734) 
UWTWYMJBHQFDBK-UHFFFAOYSA-N

>  <tags>  (734) 
BulkDock Fragalysis export,openbind_d68ev3c_c2_elabs_scored,openbind_d68ev3c_c2_elabs_scored_4.5plus,openbind_d68ev3c_c2_elabs,openbind_d68ev3c_c2_elabs_scored_5plus,syndirella_product,openbind_d68ev3c_c2_elabs_scored_top80percent,syndirella_placed

>  <smiles>  (734) 
C#Cc1cc(Cl)c(F)c(F)c1NC(=O)c1ccnc(O)c1Br

>  <subsites>  (734) 
None

>  <rmsd(smina/fragmenstein)>  (734) 
0.538

>  <alias>  (734) 
None

>  <energy_score>  (734) 
-1.007864

>  <HIPPO Pose ID>  (734) 
66706

>  <distance_score>  (734) 
0.417521

>  <HIPPO Compound ID>  (734) 
105495

>  <gnina_score_min>  (734) 
5.004

>  <name>  (734) 
P66706

>  <exports>  (734) 
['/opt/xchem-fragalysis-2/maxwin/BulkDock/OUTPUTS/openbind_d68ev3c_c2_elabs_1LOTQJ3.sdf', '/opt/xchem-fragalysis-2/maxwin/BulkDock/OUTPUTS/openbind_d68ev3c_c2_elabs_1LSYEHW.sdf', '/opt/xchem-fragalysis-2/maxwin/BulkDock/OUTPUTS/openbind_d68ev3c_c2_elabs_1LSYI5W.sdf']

$$$$
P66714
     RDKit          3D

 22 23  0  0  0  0  0  0  0  0999 V2000
    3.5664   -5.1228   34.2782 C   0  0  0  0  0  0  0  0  0  0  0  0
    2.9586   -3.7984   34.6513 C   0  0  0  0  0  0  0  0  0  0  0  0
    3.1571   -2.7763   34.0004 O   0  0  0  0  0  0  0  0  0  0  0  0
    2.1398   -3.7277   35.8781 C   0  0  0  0  0  0  0  0  0  0  0  0
    2.6056   -2.8756   36.8897 C   0  0  0  0  0  0  0  0  0  0  0  0
    1.9314   -2.8203   38.1071 C   0  0  0  0  0  0  0  0  0  0  0  0
    2.5901   -1.7079   39.4866 Br  0  0  0  0  0  0  0  0  0  0  0  0
    0.7887   -3.5901   38.3014 C   0  0  0  0  0  0  0  0  0  0  0  0
    0.1247   -3.5508   39.4662 F   0  0  0  0  0  0  0  0  0  0  0  0
    0.3043   -4.4118   37.2865 C   0  0  0  0  0  0  0  0  0  0  0  0
    0.9754   -4.4897   36.0611 C   0  0  0  0  0  0  0  0  0  0  0  0
    0.4393   -5.2826   35.0423 N   0  0  0  0  0  0  0  0  0  0  0  0
   -0.6529   -6.3761   35.0902 C   0  0  0  0  0  0  0  0  0  0  0  0
   -1.3289   -6.7314   35.9727 O   0  0  0  0  0  0  0  0  0  0  0  0
   -0.8898   -7.0359   33.7646 C   0  0  0  0  0  0  0  0  0  0  0  0
   -0.3108   -6.6207   32.5673 C   0  0  0  0  0  0  0  0  0  0  0  0
    0.5643   -5.6066   32.5189 F   0  0  0  0  0  0  0  0  0  0  0  0
   -0.6564   -7.2586   31.3836 C   0  0  0  0  0  0  0  0  0  0  0  0
   -1.5533   -8.2711   31.3064 N   0  0  0  0  0  0  0  0  0  0  0  0
   -2.0849   -8.6774   32.4813 C   0  0  0  0  0  0  0  0  0  0  0  0
   -1.7900   -8.1026   33.7043 C   0  0  0  0  0  0  0  0  0  0  0  0
   -2.4339   -8.5687   34.7820 F   0  0  0  0  0  0  0  0  0  0  0  0
  1  2  1  0
  2  3  2  0
  2  4  1  0
  4  5  2  0
  5  6  1  0
  6  7  1  0
  6  8  2  0
  8  9  1  0
  8 10  1  0
 10 11  2  0
 11 12  1  0
 12 13  1  0
 13 14  2  0
 13 15  1  0
 15 16  2  0
 16 17  1  0
 16 18  1  0
 18 19  2  0
 19 20  1  0
 20 21  2  0
 21 22  1  0
 11  4  1  0
 21 15  1  0
M  END
>  <ref_mols>  (735) 
7gov-a

>  <gnina_score>  (735) 
5.108

>  <smina_score_min>  (735) 
-5.841

>  <ref_pdb>  (735) 
7gov-a

>  <inspiration_score>  (735) 
None

>  <inchikey>  (735) 
AXUFCJLBNFEUPI-UHFFFAOYSA-N

>  <tags>  (735) 
BulkDock Fragalysis export,openbind_d68ev3c_c2_elabs_scored,openbind_d68ev3c_c2_elabs_scored_4.5plus,openbind_d68ev3c_c2_elabs,openbind_d68ev3c_c2_elabs_scored_5plus,syndirella_product,openbind_d68ev3c_c2_elabs_scored_top80percent,syndirella_placed

>  <smiles>  (735) 
CC(=O)c1cc(Br)c(F)cc1NC(=O)c1c(F)cncc1F

>  <subsites>  (735) 
None

>  <rmsd(smina/fragmenstein)>  (735) 
1.827

>  <alias>  (735) 
None

>  <energy_score>  (735) 
-20.392718

>  <HIPPO Pose ID>  (735) 
66714

>  <distance_score>  (735) 
0.716863

>  <HIPPO Compound ID>  (735) 
105512

>  <gnina_score_min>  (735) 
5.05

>  <name>  (735) 
P66714

>  <exports>  (735) 
['/opt/xchem-fragalysis-2/maxwin/BulkDock/OUTPUTS/openbind_d68ev3c_c2_elabs_1LOTQJ3.sdf', '/opt/xchem-fragalysis-2/maxwin/BulkDock/OUTPUTS/openbind_d68ev3c_c2_elabs_1LSYEHW.sdf', '/opt/xchem-fragalysis-2/maxwin/BulkDock/OUTPUTS/openbind_d68ev3c_c2_elabs_1LSYI5W.sdf']

$$$$
P66718
     RDKit          3D

 22 23  0  0  0  0  0  0  0  0999 V2000
    3.3617   -3.8555   33.5241 C   0  0  0  0  0  0  0  0  0  0  0  0
    2.7825   -3.8075   34.5749 C   0  0  0  0  0  0  0  0  0  0  0  0
    2.0913   -3.7537   35.8331 C   0  0  0  0  0  0  0  0  0  0  0  0
    2.5967   -2.8968   36.8205 C   0  0  0  0  0  0  0  0  0  0  0  0
    1.9786   -2.8260   38.0673 C   0  0  0  0  0  0  0  0  0  0  0  0
    2.6257   -1.7796   39.2728 Cl  0  0  0  0  0  0  0  0  0  0  0  0
    0.8480   -3.5902   38.3240 C   0  0  0  0  0  0  0  0  0  0  0  0
    0.2301   -3.5168   39.5138 F   0  0  0  0  0  0  0  0  0  0  0  0
    0.3368   -4.4367   37.3455 C   0  0  0  0  0  0  0  0  0  0  0  0
   -0.7712   -5.1236   37.6490 F   0  0  0  0  0  0  0  0  0  0  0  0
    0.9539   -4.5457   36.0912 C   0  0  0  0  0  0  0  0  0  0  0  0
    0.4858   -5.4038   35.0834 N   0  0  0  0  0  0  0  0  0  0  0  0
   -0.6338   -6.4692   35.1117 C   0  0  0  0  0  0  0  0  0  0  0  0
   -1.2891   -6.8535   35.9968 O   0  0  0  0  0  0  0  0  0  0  0  0
   -0.8942   -7.0888   33.7726 C   0  0  0  0  0  0  0  0  0  0  0  0
   -0.3306   -6.6439   32.5784 C   0  0  0  0  0  0  0  0  0  0  0  0
    0.5316   -5.6186   32.5384 F   0  0  0  0  0  0  0  0  0  0  0  0
   -0.6818   -7.2602   31.3853 C   0  0  0  0  0  0  0  0  0  0  0  0
   -1.5755   -8.2734   31.2943 N   0  0  0  0  0  0  0  0  0  0  0  0
   -2.0996   -8.7017   32.4651 C   0  0  0  0  0  0  0  0  0  0  0  0
   -1.7957   -8.1529   33.6973 C   0  0  0  0  0  0  0  0  0  0  0  0
   -2.4303   -8.6443   34.7686 F   0  0  0  0  0  0  0  0  0  0  0  0
  1  2  3  0
  2  3  1  0
  3  4  2  0
  4  5  1  0
  5  6  1  0
  5  7  2  0
  7  8  1  0
  7  9  1  0
  9 10  1  0
  9 11  2  0
 11 12  1  0
 12 13  1  0
 13 14  2  0
 13 15  1  0
 15 16  2  0
 16 17  1  0
 16 18  1  0
 18 19  2  0
 19 20  1  0
 20 21  2  0
 21 22  1  0
 11  3  1  0
 21 15  1  0
M  END
>  <ref_mols>  (736) 
7gov-a

>  <gnina_score>  (736) 
5.326

>  <smina_score_min>  (736) 
-5.661

>  <ref_pdb>  (736) 
7gov-a

>  <inspiration_score>  (736) 
None

>  <inchikey>  (736) 
UTCWEKBFSREZOQ-UHFFFAOYSA-N

>  <tags>  (736) 
BulkDock Fragalysis export,openbind_d68ev3c_c2_elabs_scored,openbind_d68ev3c_c2_elabs_scored_4.5plus,openbind_d68ev3c_c2_elabs,openbind_d68ev3c_c2_elabs_scored_5plus,syndirella_product,openbind_d68ev3c_c2_elabs_scored_top80percent,syndirella_placed

>  <smiles>  (736) 
C#Cc1cc(Cl)c(F)c(F)c1NC(=O)c1c(F)cncc1F

>  <subsites>  (736) 
None

>  <rmsd(smina/fragmenstein)>  (736) 
0.926

>  <alias>  (736) 
None

>  <energy_score>  (736) 
-8.787608

>  <HIPPO Pose ID>  (736) 
66718

>  <distance_score>  (736) 
0.707533

>  <HIPPO Compound ID>  (736) 
105521

>  <gnina_score_min>  (736) 
5.162

>  <name>  (736) 
P66718

>  <exports>  (736) 
['/opt/xchem-fragalysis-2/maxwin/BulkDock/OUTPUTS/openbind_d68ev3c_c2_elabs_1LOTQJ3.sdf', '/opt/xchem-fragalysis-2/maxwin/BulkDock/OUTPUTS/openbind_d68ev3c_c2_elabs_1LSYEHW.sdf', '/opt/xchem-fragalysis-2/maxwin/BulkDock/OUTPUTS/openbind_d68ev3c_c2_elabs_1LSYI5W.sdf']

$$$$
P66727
     RDKit          3D

 22 23  0  0  0  0  0  0  0  0999 V2000
    3.9779   -2.7168   33.9300 C   0  0  0  0  0  0  0  0  0  0  0  0
    3.2308   -2.9944   34.8291 C   0  0  0  0  0  0  0  0  0  0  0  0
    2.3959   -3.2388   35.9632 C   0  0  0  0  0  0  0  0  0  0  0  0
    2.8265   -2.6567   37.1713 C   0  0  0  0  0  0  0  0  0  0  0  0
    2.0842   -2.7920   38.3450 C   0  0  0  0  0  0  0  0  0  0  0  0
    2.6637   -2.0808   39.8022 Cl  0  0  0  0  0  0  0  0  0  0  0  0
    0.8904   -3.4918   38.3247 C   0  0  0  0  0  0  0  0  0  0  0  0
    0.1532   -3.6355   39.4367 F   0  0  0  0  0  0  0  0  0  0  0  0
    0.4553   -4.0580   37.1363 C   0  0  0  0  0  0  0  0  0  0  0  0
   -0.6937   -4.7596   37.1331 F   0  0  0  0  0  0  0  0  0  0  0  0
    1.1976   -3.9561   35.9417 C   0  0  0  0  0  0  0  0  0  0  0  0
    0.6266   -4.6590   34.8747 N   0  0  0  0  0  0  0  0  0  0  0  0
    1.2303   -5.0843   33.5093 C   0  0  0  0  0  0  0  0  0  0  0  0
    2.2707   -4.8466   33.0349 O   0  0  0  0  0  0  0  0  0  0  0  0
    0.3160   -6.0145   32.7985 C   0  0  0  0  0  0  0  0  0  0  0  0
    0.2704   -6.0282   31.4115 C   0  0  0  0  0  0  0  0  0  0  0  0
   -0.5536   -6.9555   30.8039 C   0  0  0  0  0  0  0  0  0  0  0  0
   -1.3451   -7.8147   31.4814 N   0  0  0  0  0  0  0  0  0  0  0  0
   -1.2449   -7.7953   32.8299 C   0  0  0  0  0  0  0  0  0  0  0  0
   -2.2769   -8.8357   33.8182 S   0  0  0  0  0  0  0  0  0  0  0  0
   -3.4726   -9.2403   32.5515 C   0  0  0  0  0  0  0  0  0  0  0  0
   -0.4110   -6.9524   33.5216 C   0  0  0  0  0  0  0  0  0  0  0  0
  1  2  3  0
  2  3  1  0
  3  4  2  0
  4  5  1  0
  5  6  1  0
  5  7  2  0
  7  8  1  0
  7  9  1  0
  9 10  1  0
  9 11  2  0
 11 12  1  0
 12 13  1  0
 13 14  2  0
 13 15  1  0
 15 16  2  0
 16 17  1  0
 17 18  2  0
 18 19  1  0
 19 20  1  0
 20 21  1  0
 19 22  2  0
 11  3  1  0
 22 15  1  0
M  END
>  <ref_mols>  (737) 
7gov-a

>  <gnina_score>  (737) 
5.199

>  <smina_score_min>  (737) 
-4.587

>  <ref_pdb>  (737) 
7gov-a

>  <inspiration_score>  (737) 
None

>  <inchikey>  (737) 
SFRPNZKJMDGWGD-UHFFFAOYSA-N

>  <tags>  (737) 
BulkDock Fragalysis export,openbind_d68ev3c_c2_elabs_scored,openbind_d68ev3c_c2_elabs_scored_4.5plus,openbind_d68ev3c_c2_elabs,openbind_d68ev3c_c2_elabs_scored_5plus,syndirella_product,openbind_d68ev3c_c2_elabs_scored_top80percent,syndirella_placed

>  <smiles>  (737) 
C#Cc1cc(Cl)c(F)c(F)c1NC(=O)c1ccnc(SC)c1

>  <subsites>  (737) 
None

>  <rmsd(smina/fragmenstein)>  (737) 
1.825

>  <alias>  (737) 
None

>  <energy_score>  (737) 
-10.122476

>  <HIPPO Pose ID>  (737) 
66727

>  <distance_score>  (737) 
1.344856

>  <HIPPO Compound ID>  (737) 
105539

>  <gnina_score_min>  (737) 
5.374

>  <name>  (737) 
P66727

>  <exports>  (737) 
['/opt/xchem-fragalysis-2/maxwin/BulkDock/OUTPUTS/openbind_d68ev3c_c2_elabs_1LOTQJ3.sdf', '/opt/xchem-fragalysis-2/maxwin/BulkDock/OUTPUTS/openbind_d68ev3c_c2_elabs_1LSYEHW.sdf', '/opt/xchem-fragalysis-2/maxwin/BulkDock/OUTPUTS/openbind_d68ev3c_c2_elabs_1LSYI5W.sdf']

$$$$
P66731
     RDKit          3D

 22 23  0  0  0  0  0  0  0  0999 V2000
   -3.4513   -9.2406   32.5483 C   0  0  0  0  0  0  0  0  0  0  0  0
   -2.2176   -8.8595   33.7857 S   0  0  0  0  0  0  0  0  0  0  0  0
   -1.2218   -7.7930   32.7877 C   0  0  0  0  0  0  0  0  0  0  0  0
   -0.4218   -6.9129   33.4741 C   0  0  0  0  0  0  0  0  0  0  0  0
    0.2432   -5.9282   32.7526 C   0  0  0  0  0  0  0  0  0  0  0  0
    1.0941   -4.9248   33.4536 C   0  0  0  0  0  0  0  0  0  0  0  0
    2.0404   -4.5096   32.9060 O   0  0  0  0  0  0  0  0  0  0  0  0
    0.5800   -4.6827   34.9022 N   0  0  0  0  0  0  0  0  0  0  0  0
    1.1576   -3.9795   35.9668 C   0  0  0  0  0  0  0  0  0  0  0  0
    0.3000   -3.8965   37.0846 C   0  0  0  0  0  0  0  0  0  0  0  0
    0.7095   -3.3002   38.2677 C   0  0  0  0  0  0  0  0  0  0  0  0
   -0.1166   -3.2860   39.3209 F   0  0  0  0  0  0  0  0  0  0  0  0
    1.9545   -2.7223   38.3669 C   0  0  0  0  0  0  0  0  0  0  0  0
    2.8116   -2.8034   37.2644 C   0  0  0  0  0  0  0  0  0  0  0  0
    4.1105   -2.1591   37.4239 N   0  0  0  0  0  0  0  0  0  0  0  0
    4.7888   -2.4708   38.4157 O   0  0  0  0  0  0  0  0  0  0  0  0
    4.4217   -1.2978   36.5891 O   0  0  0  0  0  0  0  0  0  0  0  0
    2.4653   -3.4756   36.0621 C   0  0  0  0  0  0  0  0  0  0  0  0
    3.5108   -3.7091   35.0097 C   0  0  0  0  0  0  0  0  0  0  0  0
    0.1907   -5.9501   31.3648 C   0  0  0  0  0  0  0  0  0  0  0  0
   -0.5810   -6.9245   30.7605 C   0  0  0  0  0  0  0  0  0  0  0  0
   -1.3290   -7.8189   31.4413 N   0  0  0  0  0  0  0  0  0  0  0  0
  1  2  1  0
  2  3  1  0
  3  4  2  0
  4  5  1  0
  5  6  1  0
  6  7  2  0
  6  8  1  0
  8  9  1  0
  9 10  2  0
 10 11  1  0
 11 12  1  0
 11 13  2  0
 13 14  1  0
 14 15  1  0
 15 16  2  0
 15 17  1  0
 14 18  2  0
 18 19  1  0
  5 20  2  0
 20 21  1  0
 21 22  2  0
 22  3  1  0
 18  9  1  0
M  CHG  2  15   1  17  -1
M  END
>  <ref_mols>  (738) 
7gov-a

>  <gnina_score>  (738) 
4.836

>  <smina_score_min>  (738) 
-4.499

>  <ref_pdb>  (738) 
7gov-a

>  <inspiration_score>  (738) 
None

>  <inchikey>  (738) 
MTWORZATKAGBLZ-UHFFFAOYSA-N

>  <tags>  (738) 
BulkDock Fragalysis export,openbind_d68ev3c_c2_elabs_scored,openbind_d68ev3c_c2_elabs_scored_4.5plus,openbind_d68ev3c_c2_elabs,openbind_d68ev3c_c2_elabs_scored_5plus,syndirella_product,openbind_d68ev3c_c2_elabs_scored_top80percent,syndirella_placed

>  <smiles>  (738) 
CSc1cc(C(=O)Nc2cc(F)cc([N+](=O)[O-])c2C)ccn1

>  <subsites>  (738) 
None

>  <rmsd(smina/fragmenstein)>  (738) 
1.114

>  <alias>  (738) 
None

>  <energy_score>  (738) 
-29.37594

>  <HIPPO Pose ID>  (738) 
66731

>  <distance_score>  (738) 
1.389987

>  <HIPPO Compound ID>  (738) 
105549

>  <gnina_score_min>  (738) 
5.072

>  <name>  (738) 
P66731

>  <exports>  (738) 
['/opt/xchem-fragalysis-2/maxwin/BulkDock/OUTPUTS/openbind_d68ev3c_c2_elabs_1LOTQJ3.sdf', '/opt/xchem-fragalysis-2/maxwin/BulkDock/OUTPUTS/openbind_d68ev3c_c2_elabs_1LSYEHW.sdf', '/opt/xchem-fragalysis-2/maxwin/BulkDock/OUTPUTS/openbind_d68ev3c_c2_elabs_1LSYI5W.sdf']

$$$$
P85462
     RDKit          3D

 26 28  0  0  0  0  0  0  0  0999 V2000
   11.9069   -3.2698   13.1358 C   0  0  0  0  0  0  0  0  0  0  0  0
   12.8771   -2.8517   14.1037 N   0  0  0  0  0  0  0  0  0  0  0  0
   13.5076   -1.5594   13.8592 C   0  0  0  0  0  0  0  0  0  0  0  0
   14.6991   -1.3679   14.8263 C   0  0  0  0  0  0  0  0  0  0  0  0
   14.5799   -2.0967   16.1579 C   0  0  0  0  0  0  0  0  0  0  0  0
   13.4230   -2.8692   16.4146 C   0  0  0  0  0  0  0  0  0  0  0  0
   13.3249   -3.6589   17.5608 C   0  0  0  0  0  0  0  0  0  0  0  0
   14.3525   -3.6613   18.4866 C   0  0  0  0  0  0  0  0  0  0  0  0
   15.4852   -2.8799   18.2645 C   0  0  0  0  0  0  0  0  0  0  0  0
   15.6167   -2.1071   17.1051 C   0  0  0  0  0  0  0  0  0  0  0  0
   16.7845   -1.3751   16.8853 N   0  0  0  0  0  0  0  0  0  0  0  0
   18.1200   -1.3271   17.6971 C   0  0  0  0  0  0  0  0  0  0  0  0
   18.4096   -1.8354   18.7125 O   0  0  0  0  0  0  0  0  0  0  0  0
   19.0748   -0.4187   16.9359 C   0  0  0  0  0  0  0  0  0  0  0  0
   19.3660   -0.9400   15.5705 C   0  0  0  0  0  0  0  0  0  0  0  0
   18.8200   -0.3290   14.5041 N   0  0  0  0  0  0  0  0  0  0  0  0
   19.3458   -0.9824   13.4475 N   0  0  0  0  0  0  0  0  0  0  0  0
   18.9909   -0.5801   12.1059 C   0  0  0  0  0  0  0  0  0  0  0  0
   20.0431    0.3047   11.4971 C   0  0  0  0  0  0  0  0  0  0  0  0
   21.2345   -0.3253   11.3970 F   0  0  0  0  0  0  0  0  0  0  0  0
   19.6750    0.6537   10.2389 F   0  0  0  0  0  0  0  0  0  0  0  0
   20.2291    1.4490   12.1859 F   0  0  0  0  0  0  0  0  0  0  0  0
   20.1037   -2.0592   13.8018 C   0  0  0  0  0  0  0  0  0  0  0  0
   20.1474   -2.0440   15.1714 C   0  0  0  0  0  0  0  0  0  0  0  0
   21.1794   -3.3749   16.3380 I   0  0  0  0  0  0  0  0  0  0  0  0
   12.2948   -2.8681   15.4334 C   0  0  0  0  0  0  0  0  0  0  0  0
  1  2  1  0
  2  3  1  0
  3  4  1  0
  4  5  1  0
  5  6  2  0
  6  7  1  0
  7  8  2  0
  8  9  1  0
  9 10  2  0
 10 11  1  0
 11 12  1  0
 12 13  2  0
 12 14  1  0
 14 15  1  0
 15 16  2  0
 16 17  1  0
 17 18  1  0
 18 19  1  0
 19 20  1  0
 19 21  1  0
 19 22  1  0
 17 23  1  0
 23 24  2  0
 24 25  1  0
  6 26  1  0
 26  2  1  0
 10  5  1  0
 24 15  1  0
M  END
>  <ref_mols>  (739) 
B0693a

>  <gnina_score>  (739) 
5.168

>  <smina_score_min>  (739) 
-3.294

>  <ref_pdb>  (739) 
B0693a

>  <inspiration_score>  (739) 
None

>  <inchikey>  (739) 
JZGNZFDLLAXYFV-UHFFFAOYSA-N

>  <tags>  (739) 
BulkDock Fragalysis export,openbind_d68ev3c_c2_elabs_scored,openbind_d68ev3c_c2_elabs_scored_4.5plus,openbind_d68ev3c_c2_elabs,openbind_d68ev3c_c2_elabs_scored_5plus,syndirella_product,openbind_d68ev3c_c2_elabs_scored_top80percent,syndirella_placed

>  <smiles>  (739) 
CN1CCc2c(cccc2NC(=O)Cc2nn(CC(F)(F)F)cc2I)C1

>  <subsites>  (739) 
None

>  <rmsd(smina/fragmenstein)>  (739) 
1.986

>  <alias>  (739) 
None

>  <energy_score>  (739) 
-48.685408

>  <HIPPO Pose ID>  (739) 
85462

>  <distance_score>  (739) 
1.041995

>  <HIPPO Compound ID>  (739) 
118546

>  <gnina_score_min>  (739) 
5.003

>  <name>  (739) 
P85462

>  <exports>  (739) 
['/opt/xchem-fragalysis-2/maxwin/BulkDock/OUTPUTS/openbind_d68ev3c_c2_elabs_1LOTQJ3.sdf', '/opt/xchem-fragalysis-2/maxwin/BulkDock/OUTPUTS/openbind_d68ev3c_c2_elabs_1LSYEHW.sdf', '/opt/xchem-fragalysis-2/maxwin/BulkDock/OUTPUTS/openbind_d68ev3c_c2_elabs_1LSYI5W.sdf']

$$$$
P85668
     RDKit          3D

 27 29  0  0  0  0  0  0  0  0999 V2000
   20.2042    2.0443   15.4122 C   0  0  0  0  0  0  0  0  0  0  0  0
   19.0125    1.3437   14.7850 C   0  0  0  0  0  0  0  0  0  0  0  0
   19.2150   -0.0912   14.6714 N   0  0  0  0  0  0  0  0  0  0  0  0
   19.5874   -0.5875   13.4759 N   0  0  0  0  0  0  0  0  0  0  0  0
   19.7638   -1.8897   13.7076 C   0  0  0  0  0  0  0  0  0  0  0  0
   19.4542   -2.2359   15.0314 C   0  0  0  0  0  0  0  0  0  0  0  0
   19.5495   -3.7931   15.6872 Cl  0  0  0  0  0  0  0  0  0  0  0  0
   19.0626   -1.0583   15.6392 C   0  0  0  0  0  0  0  0  0  0  0  0
   18.6151   -0.7801   17.0400 C   0  0  0  0  0  0  0  0  0  0  0  0
   17.5338   -1.7508   17.5284 C   0  0  0  0  0  0  0  0  0  0  0  0
   17.6332   -2.3333   18.5399 O   0  0  0  0  0  0  0  0  0  0  0  0
   16.3740   -1.7329   16.4800 N   0  0  0  0  0  0  0  0  0  0  0  0
   15.1128   -2.3320   16.5133 C   0  0  0  0  0  0  0  0  0  0  0  0
   14.7793   -3.1949   17.5598 C   0  0  0  0  0  0  0  0  0  0  0  0
   13.5318   -3.8110   17.5983 C   0  0  0  0  0  0  0  0  0  0  0  0
   12.6044   -3.5639   16.5929 C   0  0  0  0  0  0  0  0  0  0  0  0
   12.9041   -2.6883   15.5431 C   0  0  0  0  0  0  0  0  0  0  0  0
   14.1807   -2.0834   15.4843 C   0  0  0  0  0  0  0  0  0  0  0  0
   14.5020   -1.1590   14.3287 C   0  0  0  0  0  0  0  0  0  0  0  0
   13.4443   -1.1682   13.2132 C   0  0  0  0  0  0  0  0  0  0  0  0
   12.0485   -1.2452   13.6847 N   0  0  0  0  0  0  0  0  0  0  0  0
   11.6550   -0.0273   14.4458 C   0  0  0  0  0  0  0  0  0  0  0  0
   10.2664    0.0820   15.1179 C   0  0  0  0  0  0  0  0  0  0  0  0
    9.2436   -0.0077   14.2490 F   0  0  0  0  0  0  0  0  0  0  0  0
   10.0724   -0.8488   16.0857 F   0  0  0  0  0  0  0  0  0  0  0  0
   10.1494    1.2903   15.7268 F   0  0  0  0  0  0  0  0  0  0  0  0
   11.8856   -2.4949   14.4404 C   0  0  0  0  0  0  0  0  0  0  0  0
  1  2  1  0
  2  3  1  0
  3  4  1  0
  4  5  2  0
  5  6  1  0
  6  7  1  0
  6  8  2  0
  8  9  1  0
  9 10  1  0
 10 11  2  0
 10 12  1  0
 12 13  1  0
 13 14  2  0
 14 15  1  0
 15 16  2  0
 16 17  1  0
 17 18  2  0
 18 19  1  0
 19 20  1  0
 20 21  1  0
 21 22  1  0
 22 23  1  0
 23 24  1  0
 23 25  1  0
 23 26  1  0
 21 27  1  0
  8  3  1  0
 18 13  1  0
 27 17  1  0
M  END
>  <ref_mols>  (740) 
B0693a

>  <gnina_score>  (740) 
5.142

>  <smina_score_min>  (740) 
-4.503

>  <ref_pdb>  (740) 
B0693a

>  <inspiration_score>  (740) 
None

>  <inchikey>  (740) 
AXRBHASRHPWPRK-UHFFFAOYSA-N

>  <tags>  (740) 
BulkDock Fragalysis export,openbind_d68ev3c_c2_elabs_scored,openbind_d68ev3c_c2_elabs_scored_4.5plus,openbind_d68ev3c_c2_elabs,openbind_d68ev3c_c2_elabs_scored_5plus,syndirella_product,openbind_d68ev3c_c2_elabs_scored_top80percent,syndirella_placed

>  <smiles>  (740) 
CCn1ncc(Cl)c1CC(=O)Nc1cccc2c1CCN(CC(F)(F)F)C2

>  <subsites>  (740) 
None

>  <rmsd(smina/fragmenstein)>  (740) 
0.845

>  <alias>  (740) 
None

>  <energy_score>  (740) 
-31.440862

>  <HIPPO Pose ID>  (740) 
85668

>  <distance_score>  (740) 
0.358126

>  <HIPPO Compound ID>  (740) 
118935

>  <gnina_score_min>  (740) 
5.046

>  <name>  (740) 
P85668

>  <exports>  (740) 
['/opt/xchem-fragalysis-2/maxwin/BulkDock/OUTPUTS/openbind_d68ev3c_c2_elabs_1LOTQJ3.sdf', '/opt/xchem-fragalysis-2/maxwin/BulkDock/OUTPUTS/openbind_d68ev3c_c2_elabs_1LSYEHW.sdf', '/opt/xchem-fragalysis-2/maxwin/BulkDock/OUTPUTS/openbind_d68ev3c_c2_elabs_1LSYI5W.sdf']

$$$$
P85687
     RDKit          3D

 27 29  0  0  0  0  0  0  0  0999 V2000
   12.0364   -3.6418   12.9848 C   0  0  0  0  0  0  0  0  0  0  0  0
   13.0858   -2.5542   13.0956 C   0  0  0  0  0  0  0  0  0  0  0  0
   12.5561   -1.3806   13.8018 N   0  0  0  0  0  0  0  0  0  0  0  0
   13.6049   -0.3653   13.9841 C   0  0  0  0  0  0  0  0  0  0  0  0
   14.7764   -0.7923   14.8916 C   0  0  0  0  0  0  0  0  0  0  0  0
   14.4320   -1.8225   15.9540 C   0  0  0  0  0  0  0  0  0  0  0  0
   13.1171   -2.3422   16.0049 C   0  0  0  0  0  0  0  0  0  0  0  0
   12.8141   -3.4003   16.8654 C   0  0  0  0  0  0  0  0  0  0  0  0
   13.7839   -3.8997   17.7245 C   0  0  0  0  0  0  0  0  0  0  0  0
   15.0720   -3.3662   17.7089 C   0  0  0  0  0  0  0  0  0  0  0  0
   15.4104   -2.3437   16.8195 C   0  0  0  0  0  0  0  0  0  0  0  0
   16.7162   -1.8556   16.7671 N   0  0  0  0  0  0  0  0  0  0  0  0
   17.9893   -2.2765   17.5697 C   0  0  0  0  0  0  0  0  0  0  0  0
   18.1486   -3.1465   18.3378 O   0  0  0  0  0  0  0  0  0  0  0  0
   19.0975   -1.3062   17.1790 C   0  0  0  0  0  0  0  0  0  0  0  0
   19.3879   -1.3598   15.7171 C   0  0  0  0  0  0  0  0  0  0  0  0
   18.8974   -0.4025   14.9081 N   0  0  0  0  0  0  0  0  0  0  0  0
   19.4069   -0.7069   13.6956 N   0  0  0  0  0  0  0  0  0  0  0  0
   19.1093    0.1363   12.5605 C   0  0  0  0  0  0  0  0  0  0  0  0
   20.2310    1.0963   12.2752 C   0  0  0  0  0  0  0  0  0  0  0  0
   19.9169    1.8596   11.1987 F   0  0  0  0  0  0  0  0  0  0  0  0
   20.4744    1.9379   13.3001 F   0  0  0  0  0  0  0  0  0  0  0  0
   21.3804    0.4514   11.9764 F   0  0  0  0  0  0  0  0  0  0  0  0
   20.0914   -1.8864   13.6794 C   0  0  0  0  0  0  0  0  0  0  0  0
   20.1087   -2.3205   14.9791 C   0  0  0  0  0  0  0  0  0  0  0  0
   21.0260   -4.0265   15.6464 I   0  0  0  0  0  0  0  0  0  0  0  0
   12.0448   -1.7429   15.1282 C   0  0  0  0  0  0  0  0  0  0  0  0
  1  2  1  0
  2  3  1  0
  3  4  1  0
  4  5  1  0
  5  6  1  0
  6  7  2  0
  7  8  1  0
  8  9  2  0
  9 10  1  0
 10 11  2  0
 11 12  1  0
 12 13  1  0
 13 14  2  0
 13 15  1  0
 15 16  1  0
 16 17  2  0
 17 18  1  0
 18 19  1  0
 19 20  1  0
 20 21  1  0
 20 22  1  0
 20 23  1  0
 18 24  1  0
 24 25  2  0
 25 26  1  0
  7 27  1  0
 27  3  1  0
 11  6  1  0
 25 16  1  0
M  END
>  <ref_mols>  (741) 
B0693a

>  <gnina_score>  (741) 
5.336

>  <smina_score_min>  (741) 
-3.13

>  <ref_pdb>  (741) 
B0693a

>  <inspiration_score>  (741) 
None

>  <inchikey>  (741) 
ZOMNUXIEMCSKIN-UHFFFAOYSA-N

>  <tags>  (741) 
BulkDock Fragalysis export,openbind_d68ev3c_c2_elabs_scored,openbind_d68ev3c_c2_elabs_scored_4.5plus,openbind_d68ev3c_c2_elabs,openbind_d68ev3c_c2_elabs_scored_5plus,syndirella_product,openbind_d68ev3c_c2_elabs_scored_top80percent,syndirella_placed

>  <smiles>  (741) 
CCN1CCc2c(cccc2NC(=O)Cc2nn(CC(F)(F)F)cc2I)C1

>  <subsites>  (741) 
None

>  <rmsd(smina/fragmenstein)>  (741) 
1.77

>  <alias>  (741) 
None

>  <energy_score>  (741) 
-21.833753

>  <HIPPO Pose ID>  (741) 
85687

>  <distance_score>  (741) 
0.726164

>  <HIPPO Compound ID>  (741) 
118981

>  <gnina_score_min>  (741) 
5.252

>  <name>  (741) 
P85687

>  <exports>  (741) 
['/opt/xchem-fragalysis-2/maxwin/BulkDock/OUTPUTS/openbind_d68ev3c_c2_elabs_1LOTQJ3.sdf', '/opt/xchem-fragalysis-2/maxwin/BulkDock/OUTPUTS/openbind_d68ev3c_c2_elabs_1LSYEHW.sdf', '/opt/xchem-fragalysis-2/maxwin/BulkDock/OUTPUTS/openbind_d68ev3c_c2_elabs_1LSYI5W.sdf']

$$$$
P85701
     RDKit          3D

 27 30  0  0  0  0  0  0  0  0999 V2000
   12.1309   -3.9146   12.4399 C   0  0  0  0  0  0  0  0  0  0  0  0
   11.7997   -3.1616   13.6874 C   0  0  0  0  0  0  0  0  0  0  0  0
   12.3279   -1.8024   13.8681 N   0  0  0  0  0  0  0  0  0  0  0  0
   13.7519   -1.5737   13.4934 C   0  0  0  0  0  0  0  0  0  0  0  0
   14.7071   -1.0464   14.6134 C   0  0  0  0  0  0  0  0  0  0  0  0
   14.5228   -1.8924   15.8535 C   0  0  0  0  0  0  0  0  0  0  0  0
   13.1867   -2.2454   16.1102 C   0  0  0  0  0  0  0  0  0  0  0  0
   12.8912   -3.2547   17.0233 C   0  0  0  0  0  0  0  0  0  0  0  0
   13.9014   -3.7934   17.8063 C   0  0  0  0  0  0  0  0  0  0  0  0
   15.2080   -3.3240   17.6688 C   0  0  0  0  0  0  0  0  0  0  0  0
   15.5306   -2.3724   16.6953 C   0  0  0  0  0  0  0  0  0  0  0  0
   16.8350   -1.8988   16.5809 N   0  0  0  0  0  0  0  0  0  0  0  0
   18.0982   -2.1787   17.4621 C   0  0  0  0  0  0  0  0  0  0  0  0
   18.2457   -2.9087   18.3673 O   0  0  0  0  0  0  0  0  0  0  0  0
   19.2156   -1.2390   16.9909 C   0  0  0  0  0  0  0  0  0  0  0  0
   19.4259   -1.3015   15.5193 C   0  0  0  0  0  0  0  0  0  0  0  0
   19.4282   -2.3516   14.6271 C   0  0  0  0  0  0  0  0  0  0  0  0
   19.5599   -1.7670   13.3379 C   0  0  0  0  0  0  0  0  0  0  0  0
   19.4919   -2.4265   12.0282 C   0  0  0  0  0  0  0  0  0  0  0  0
   19.5559   -1.6687   10.8474 C   0  0  0  0  0  0  0  0  0  0  0  0
   19.4248   -2.2762    9.5963 C   0  0  0  0  0  0  0  0  0  0  0  0
   19.2256   -3.6509    9.5094 C   0  0  0  0  0  0  0  0  0  0  0  0
   19.1738   -4.4199   10.6691 C   0  0  0  0  0  0  0  0  0  0  0  0
   19.3140   -3.8138   11.9208 C   0  0  0  0  0  0  0  0  0  0  0  0
   19.6994   -0.4347   13.4525 N   0  0  0  0  0  0  0  0  0  0  0  0
   19.6707   -0.1913   14.7660 N   0  0  0  0  0  0  0  0  0  0  0  0
   12.1345   -1.5262   15.2922 C   0  0  0  0  0  0  0  0  0  0  0  0
  1  2  1  0
  2  3  1  0
  3  4  1  0
  4  5  1  0
  5  6  1  0
  6  7  2  0
  7  8  1  0
  8  9  2  0
  9 10  1  0
 10 11  2  0
 11 12  1  0
 12 13  1  0
 13 14  2  0
 13 15  1  0
 15 16  1  0
 16 17  2  0
 17 18  1  0
 18 19  1  0
 19 20  2  0
 20 21  1  0
 21 22  2  0
 22 23  1  0
 23 24  2  0
 18 25  2  0
 25 26  1  0
  7 27  1  0
 27  3  1  0
 11  6  1  0
 26 16  1  0
 24 19  1  0
M  END
>  <ref_mols>  (742) 
B0693a

>  <gnina_score>  (742) 
5.251

>  <smina_score_min>  (742) 
-3.365

>  <ref_pdb>  (742) 
B0693a

>  <inspiration_score>  (742) 
None

>  <inchikey>  (742) 
XQVKZRFAHKBSDV-UHFFFAOYSA-N

>  <tags>  (742) 
BulkDock Fragalysis export,openbind_d68ev3c_c2_elabs_scored,openbind_d68ev3c_c2_elabs_scored_4.5plus,openbind_d68ev3c_c2_elabs,openbind_d68ev3c_c2_elabs_scored_5plus,syndirella_product,openbind_d68ev3c_c2_elabs_scored_top80percent,syndirella_placed

>  <smiles>  (742) 
CCN1CCc2c(cccc2NC(=O)Cc2cc(-c3ccccc3)n[nH]2)C1

>  <subsites>  (742) 
None

>  <rmsd(smina/fragmenstein)>  (742) 
0.985

>  <alias>  (742) 
None

>  <energy_score>  (742) 
-32.283133

>  <HIPPO Pose ID>  (742) 
85701

>  <distance_score>  (742) 
0.719102

>  <HIPPO Compound ID>  (742) 
119005

>  <gnina_score_min>  (742) 
5.147

>  <name>  (742) 
P85701

>  <exports>  (742) 
['/opt/xchem-fragalysis-2/maxwin/BulkDock/OUTPUTS/openbind_d68ev3c_c2_elabs_1LOTQJ3.sdf', '/opt/xchem-fragalysis-2/maxwin/BulkDock/OUTPUTS/openbind_d68ev3c_c2_elabs_1LSYEHW.sdf', '/opt/xchem-fragalysis-2/maxwin/BulkDock/OUTPUTS/openbind_d68ev3c_c2_elabs_1LSYI5W.sdf']

$$$$
P85834
     RDKit          3D

 27 30  0  0  0  0  0  0  0  0999 V2000
   19.6814   -3.6421   15.6605 C   0  0  0  0  0  0  0  0  0  0  0  0
   19.5447   -2.3091   15.0276 C   0  0  0  0  0  0  0  0  0  0  0  0
   19.8097   -1.9651   13.6810 C   0  0  0  0  0  0  0  0  0  0  0  0
   19.5728   -0.6770   13.4201 N   0  0  0  0  0  0  0  0  0  0  0  0
   19.2004   -0.1765   14.6065 N   0  0  0  0  0  0  0  0  0  0  0  0
   19.1251   -1.1203   15.5874 C   0  0  0  0  0  0  0  0  0  0  0  0
   18.6552   -0.8891   17.0634 C   0  0  0  0  0  0  0  0  0  0  0  0
   17.5208   -1.7898   17.5126 C   0  0  0  0  0  0  0  0  0  0  0  0
   17.6581   -2.4556   18.4611 O   0  0  0  0  0  0  0  0  0  0  0  0
   16.3029   -1.6188   16.5762 N   0  0  0  0  0  0  0  0  0  0  0  0
   15.0729   -2.2811   16.5572 C   0  0  0  0  0  0  0  0  0  0  0  0
   14.7420   -3.1639   17.5884 C   0  0  0  0  0  0  0  0  0  0  0  0
   13.5106   -3.8123   17.5972 C   0  0  0  0  0  0  0  0  0  0  0  0
   12.5937   -3.5740   16.5804 C   0  0  0  0  0  0  0  0  0  0  0  0
   12.8909   -2.6816   15.5439 C   0  0  0  0  0  0  0  0  0  0  0  0
   14.1550   -2.0491   15.5111 C   0  0  0  0  0  0  0  0  0  0  0  0
   14.4756   -1.1100   14.3668 C   0  0  0  0  0  0  0  0  0  0  0  0
   13.4322   -1.1276   13.2369 C   0  0  0  0  0  0  0  0  0  0  0  0
   12.0328   -1.2325   13.6918 N   0  0  0  0  0  0  0  0  0  0  0  0
   11.6082   -0.0261   14.4536 C   0  0  0  0  0  0  0  0  0  0  0  0
   10.2248    0.0497   15.1415 C   0  0  0  0  0  0  0  0  0  0  0  0
   10.0883    1.2547   15.7568 F   0  0  0  0  0  0  0  0  0  0  0  0
   10.0642   -0.8837   16.1130 F   0  0  0  0  0  0  0  0  0  0  0  0
    9.1909   -0.0587   14.2894 F   0  0  0  0  0  0  0  0  0  0  0  0
   11.8809   -2.4919   14.4326 C   0  0  0  0  0  0  0  0  0  0  0  0
   18.7178    0.5127   17.6439 C   0  0  0  0  0  0  0  0  0  0  0  0
   19.7375   -0.5040   18.0567 C   0  0  0  0  0  0  0  0  0  0  0  0
  1  2  1  0
  2  3  1  0
  3  4  2  0
  4  5  1  0
  5  6  1  0
  6  7  1  0
  7  8  1  0
  8  9  2  0
  8 10  1  0
 10 11  1  0
 11 12  2  0
 12 13  1  0
 13 14  2  0
 14 15  1  0
 15 16  2  0
 16 17  1  0
 17 18  1  0
 18 19  1  0
 19 20  1  0
 20 21  1  0
 21 22  1  0
 21 23  1  0
 21 24  1  0
 19 25  1  0
  7 26  1  0
 26 27  1  0
  6  2  2  0
 27  7  1  0
 16 11  1  0
 25 15  1  0
M  END
>  <ref_mols>  (743) 
B0693a

>  <gnina_score>  (743) 
5.214

>  <smina_score_min>  (743) 
-4.679

>  <ref_pdb>  (743) 
B0693a

>  <inspiration_score>  (743) 
None

>  <inchikey>  (743) 
PJPHGYSQJWLLGU-UHFFFAOYSA-N

>  <tags>  (743) 
BulkDock Fragalysis export,openbind_d68ev3c_c2_elabs_scored,openbind_d68ev3c_c2_elabs_scored_4.5plus,openbind_d68ev3c_c2_elabs,openbind_d68ev3c_c2_elabs_scored_5plus,syndirella_product,openbind_d68ev3c_c2_elabs_scored_top80percent,syndirella_placed

>  <smiles>  (743) 
Cc1cn[nH]c1C1(C(=O)Nc2cccc3c2CCN(CC(F)(F)F)C3)CC1

>  <subsites>  (743) 
None

>  <rmsd(smina/fragmenstein)>  (743) 
1.609

>  <alias>  (743) 
None

>  <energy_score>  (743) 
-54.753543

>  <HIPPO Pose ID>  (743) 
85834

>  <distance_score>  (743) 
0.328495

>  <HIPPO Compound ID>  (743) 
119296

>  <gnina_score_min>  (743) 
5.002

>  <name>  (743) 
P85834

>  <exports>  (743) 
['/opt/xchem-fragalysis-2/maxwin/BulkDock/OUTPUTS/openbind_d68ev3c_c2_elabs_1LOTQJ3.sdf', '/opt/xchem-fragalysis-2/maxwin/BulkDock/OUTPUTS/openbind_d68ev3c_c2_elabs_1LSYEHW.sdf', '/opt/xchem-fragalysis-2/maxwin/BulkDock/OUTPUTS/openbind_d68ev3c_c2_elabs_1LSYI5W.sdf']

$$$$
P85861
     RDKit          3D

 28 31  0  0  0  0  0  0  0  0999 V2000
   20.4871   -2.5492   12.1994 C   0  0  0  0  0  0  0  0  0  0  0  0
   20.0850   -1.9004   13.4711 C   0  0  0  0  0  0  0  0  0  0  0  0
   20.2761   -2.2928   14.7791 C   0  0  0  0  0  0  0  0  0  0  0  0
   19.6716   -1.2846   15.5464 C   0  0  0  0  0  0  0  0  0  0  0  0
   19.5894   -1.3003   17.1043 C   0  0  0  0  0  0  0  0  0  0  0  0
   18.5816   -2.2909   17.6078 C   0  0  0  0  0  0  0  0  0  0  0  0
   18.9154   -3.1591   18.3132 O   0  0  0  0  0  0  0  0  0  0  0  0
   17.1894   -1.9462   17.0332 N   0  0  0  0  0  0  0  0  0  0  0  0
   15.9763   -2.6287   17.1265 C   0  0  0  0  0  0  0  0  0  0  0  0
   15.8646   -3.7416   17.9606 C   0  0  0  0  0  0  0  0  0  0  0  0
   14.6575   -4.4207   18.0922 C   0  0  0  0  0  0  0  0  0  0  0  0
   13.5438   -3.9853   17.3987 C   0  0  0  0  0  0  0  0  0  0  0  0
   13.6325   -2.8654   16.5644 C   0  0  0  0  0  0  0  0  0  0  0  0
   14.8560   -2.1919   16.4000 C   0  0  0  0  0  0  0  0  0  0  0  0
   14.8794   -0.9662   15.5256 C   0  0  0  0  0  0  0  0  0  0  0  0
   13.7987   -1.0051   14.4516 C   0  0  0  0  0  0  0  0  0  0  0  0
   12.4516   -1.3529   14.9248 N   0  0  0  0  0  0  0  0  0  0  0  0
   11.6134   -1.8104   13.8037 C   0  0  0  0  0  0  0  0  0  0  0  0
   11.9268   -3.2128   13.2190 C   0  0  0  0  0  0  0  0  0  0  0  0
   11.4662   -3.3816   11.9740 F   0  0  0  0  0  0  0  0  0  0  0  0
   13.2474   -3.4332   13.1415 F   0  0  0  0  0  0  0  0  0  0  0  0
   11.3553   -4.1783   13.9640 F   0  0  0  0  0  0  0  0  0  0  0  0
   12.3592   -2.3414   15.9916 C   0  0  0  0  0  0  0  0  0  0  0  0
   20.8529   -1.0119   17.8904 C   0  0  0  0  0  0  0  0  0  0  0  0
   19.7570    0.0099   17.8520 C   0  0  0  0  0  0  0  0  0  0  0  0
   19.0931   -0.3414   14.7979 N   0  0  0  0  0  0  0  0  0  0  0  0
   19.4111   -0.7066   13.5383 N   0  0  0  0  0  0  0  0  0  0  0  0
   18.9930    0.1239   12.4329 C   0  0  0  0  0  0  0  0  0  0  0  0
  1  2  1  0
  2  3  2  0
  3  4  1  0
  4  5  1  0
  5  6  1  0
  6  7  2  0
  6  8  1  0
  8  9  1  0
  9 10  2  0
 10 11  1  0
 11 12  2  0
 12 13  1  0
 13 14  2  0
 14 15  1  0
 15 16  1  0
 16 17  1  0
 17 18  1  0
 18 19  1  0
 19 20  1  0
 19 21  1  0
 19 22  1  0
 17 23  1  0
  5 24  1  0
 24 25  1  0
  4 26  2  0
 26 27  1  0
 27 28  1  0
 27  2  1  0
 25  5  1  0
 14  9  1  0
 23 13  1  0
M  END
>  <ref_mols>  (744) 
B0693a

>  <gnina_score>  (744) 
4.938

>  <smina_score_min>  (744) 
-2.499

>  <ref_pdb>  (744) 
B0693a

>  <inspiration_score>  (744) 
None

>  <inchikey>  (744) 
RGMVKENWTNAGOD-UHFFFAOYSA-N

>  <tags>  (744) 
BulkDock Fragalysis export,openbind_d68ev3c_c2_elabs_scored,openbind_d68ev3c_c2_elabs_scored_4.5plus,openbind_d68ev3c_c2_elabs,openbind_d68ev3c_c2_elabs_scored_5plus,syndirella_product,openbind_d68ev3c_c2_elabs_scored_top80percent,syndirella_placed

>  <smiles>  (744) 
Cc1cc(C2(C(=O)Nc3cccc4c3CCN(CC(F)(F)F)C4)CC2)nn1C

>  <subsites>  (744) 
None

>  <rmsd(smina/fragmenstein)>  (744) 
1.69

>  <alias>  (744) 
None

>  <energy_score>  (744) 
-51.454645

>  <HIPPO Pose ID>  (744) 
85861

>  <distance_score>  (744) 
1.234718

>  <HIPPO Compound ID>  (744) 
119355

>  <gnina_score_min>  (744) 
5.087

>  <name>  (744) 
P85861

>  <exports>  (744) 
['/opt/xchem-fragalysis-2/maxwin/BulkDock/OUTPUTS/openbind_d68ev3c_c2_elabs_1LOTQJ3.sdf', '/opt/xchem-fragalysis-2/maxwin/BulkDock/OUTPUTS/openbind_d68ev3c_c2_elabs_1LSYEHW.sdf', '/opt/xchem-fragalysis-2/maxwin/BulkDock/OUTPUTS/openbind_d68ev3c_c2_elabs_1LSYI5W.sdf']

$$$$
P85864
     RDKit          3D

 28 30  0  0  0  0  0  0  0  0999 V2000
   20.5611    0.9308   17.3944 C   0  0  0  0  0  0  0  0  0  0  0  0
   19.7034   -0.2139   17.9882 C   0  0  0  0  0  0  0  0  0  0  0  0
   19.0764    0.3329   19.2918 C   0  0  0  0  0  0  0  0  0  0  0  0
   20.6528   -1.3732   18.3463 C   0  0  0  0  0  0  0  0  0  0  0  0
   18.5700   -0.6085   16.9729 C   0  0  2  0  0  0  0  0  0  0  0  0
   17.5424   -1.6580   17.4831 C   0  0  0  0  0  0  0  0  0  0  0  0
   17.6909   -2.2953   18.4550 O   0  0  0  0  0  0  0  0  0  0  0  0
   16.3515   -1.6238   16.4640 N   0  0  0  0  0  0  0  0  0  0  0  0
   15.1151   -2.2734   16.4927 C   0  0  0  0  0  0  0  0  0  0  0  0
   14.8129   -3.1595   17.5296 C   0  0  0  0  0  0  0  0  0  0  0  0
   13.5771   -3.8001   17.5759 C   0  0  0  0  0  0  0  0  0  0  0  0
   12.6323   -3.5589   16.5849 C   0  0  0  0  0  0  0  0  0  0  0  0
   12.9050   -2.6687   15.5395 C   0  0  0  0  0  0  0  0  0  0  0  0
   14.1677   -2.0357   15.4760 C   0  0  0  0  0  0  0  0  0  0  0  0
   14.4618   -1.0929   14.3284 C   0  0  0  0  0  0  0  0  0  0  0  0
   13.4023   -1.1243   13.2164 C   0  0  0  0  0  0  0  0  0  0  0  0
   12.0094   -1.2333   13.6917 N   0  0  0  0  0  0  0  0  0  0  0  0
   11.5929   -0.0238   14.4549 C   0  0  0  0  0  0  0  0  0  0  0  0
   10.2120    0.0536   15.1476 C   0  0  0  0  0  0  0  0  0  0  0  0
    9.1766   -0.0681   14.2972 F   0  0  0  0  0  0  0  0  0  0  0  0
   10.0569   -0.8765   16.1233 F   0  0  0  0  0  0  0  0  0  0  0  0
   10.0734    1.2616   15.7525 F   0  0  0  0  0  0  0  0  0  0  0  0
   11.8746   -2.4870   14.4462 C   0  0  0  0  0  0  0  0  0  0  0  0
   19.0811   -1.0401   15.6174 C   0  0  0  0  0  0  0  0  0  0  0  0
   19.6325   -2.2836   15.2217 C   0  0  0  0  0  0  0  0  0  0  0  0
   19.9346   -2.1329   13.8907 C   0  0  0  0  0  0  0  0  0  0  0  0
   19.5652   -0.8642   13.5616 N   0  0  0  0  0  0  0  0  0  0  0  0
   18.9897   -0.1969   14.5768 N   0  0  0  0  0  0  0  0  0  0  0  0
  1  2  1  0
  2  3  1  0
  2  4  1  0
  5  2  1  1
  5  6  1  0
  6  7  2  0
  6  8  1  0
  8  9  1  0
  9 10  2  0
 10 11  1  0
 11 12  2  0
 12 13  1  0
 13 14  2  0
 14 15  1  0
 15 16  1  0
 16 17  1  0
 17 18  1  0
 18 19  1  0
 19 20  1  0
 19 21  1  0
 19 22  1  0
 17 23  1  0
  5 24  1  0
 24 25  1  0
 25 26  2  0
 26 27  1  0
 27 28  1  0
 14  9  1  0
 28 24  2  0
 23 13  1  0
M  END
>  <ref_mols>  (745) 
B0693a

>  <gnina_score>  (745) 
5.177

>  <smina_score_min>  (745) 
-4.493

>  <ref_pdb>  (745) 
B0693a

>  <inspiration_score>  (745) 
None

>  <inchikey>  (745) 
PYGHKBGHIVIGEX-KRWDZBQOSA-N

>  <tags>  (745) 
BulkDock Fragalysis export,openbind_d68ev3c_c2_elabs_scored,openbind_d68ev3c_c2_elabs_scored_4.5plus,openbind_d68ev3c_c2_elabs,openbind_d68ev3c_c2_elabs_scored_5plus,syndirella_product,openbind_d68ev3c_c2_elabs_scored_top80percent,syndirella_placed

>  <smiles>  (745) 
CC(C)(C)[C@H](C(=O)Nc1cccc2c1CCN(CC(F)(F)F)C2)c1cc[nH]n1

>  <subsites>  (745) 
None

>  <rmsd(smina/fragmenstein)>  (745) 
1.492

>  <alias>  (745) 
None

>  <energy_score>  (745) 
-77.075319

>  <HIPPO Pose ID>  (745) 
85864

>  <distance_score>  (745) 
0.398678

>  <HIPPO Compound ID>  (745) 
119362

>  <gnina_score_min>  (745) 
5.111

>  <name>  (745) 
P85864

>  <exports>  (745) 
['/opt/xchem-fragalysis-2/maxwin/BulkDock/OUTPUTS/openbind_d68ev3c_c2_elabs_1LOTQJ3.sdf', '/opt/xchem-fragalysis-2/maxwin/BulkDock/OUTPUTS/openbind_d68ev3c_c2_elabs_1LSYEHW.sdf', '/opt/xchem-fragalysis-2/maxwin/BulkDock/OUTPUTS/openbind_d68ev3c_c2_elabs_1LSYI5W.sdf']

$$$$
P85890
     RDKit          3D

 28 31  0  0  0  0  0  0  0  0999 V2000
   11.6375   -3.2610   13.3795 C   0  0  0  0  0  0  0  0  0  0  0  0
   11.3909   -1.6328   14.1078 S   0  0  0  0  0  0  0  0  0  0  0  0
   11.5872   -0.6042   13.1111 O   0  0  0  0  0  0  0  0  0  0  0  0
   10.2426   -1.6540   14.9938 O   0  0  0  0  0  0  0  0  0  0  0  0
   12.7368   -1.5926   15.1137 N   0  0  0  0  0  0  0  0  0  0  0  0
   14.0510   -1.4288   14.4602 C   0  0  0  0  0  0  0  0  0  0  0  0
   15.1282   -1.2001   15.5120 C   0  0  0  0  0  0  0  0  0  0  0  0
   15.1245   -2.2792   16.5710 C   0  0  0  0  0  0  0  0  0  0  0  0
   13.9241   -2.9627   16.8389 C   0  0  0  0  0  0  0  0  0  0  0  0
   13.8604   -3.9676   17.8105 C   0  0  0  0  0  0  0  0  0  0  0  0
   14.9881   -4.2891   18.5373 C   0  0  0  0  0  0  0  0  0  0  0  0
   16.1775   -3.6029   18.3024 C   0  0  0  0  0  0  0  0  0  0  0  0
   16.2555   -2.5938   17.3388 C   0  0  0  0  0  0  0  0  0  0  0  0
   17.4537   -1.9133   17.1310 N   0  0  0  0  0  0  0  0  0  0  0  0
   18.8719   -2.1453   17.7460 C   0  0  0  0  0  0  0  0  0  0  0  0
   19.2261   -2.8927   18.5758 O   0  0  0  0  0  0  0  0  0  0  0  0
   19.8235   -1.1781   17.0498 C   0  0  0  0  0  0  0  0  0  0  0  0
   19.7448   -1.2987   15.5640 C   0  0  0  0  0  0  0  0  0  0  0  0
   19.4312   -0.2259   14.8235 N   0  0  0  0  0  0  0  0  0  0  0  0
   19.4782   -0.6821   13.5591 N   0  0  0  0  0  0  0  0  0  0  0  0
   19.6923   -2.0307   13.4602 C   0  0  0  0  0  0  0  0  0  0  0  0
   19.7291   -2.8855   12.3538 C   0  0  0  0  0  0  0  0  0  0  0  0
   19.9780   -4.2394   12.6053 C   0  0  0  0  0  0  0  0  0  0  0  0
   20.1910   -4.6996   13.9047 C   0  0  0  0  0  0  0  0  0  0  0  0
   20.4988   -6.3731   14.1699 Cl  0  0  0  0  0  0  0  0  0  0  0  0
   20.1562   -3.8292   14.9995 C   0  0  0  0  0  0  0  0  0  0  0  0
   19.8944   -2.4664   14.7651 C   0  0  0  0  0  0  0  0  0  0  0  0
   12.6535   -2.6372   16.1382 C   0  0  0  0  0  0  0  0  0  0  0  0
  1  2  1  0
  2  3  2  0
  2  4  2  0
  2  5  1  0
  5  6  1  0
  6  7  1  0
  7  8  1  0
  8  9  2  0
  9 10  1  0
 10 11  2  0
 11 12  1  0
 12 13  2  0
 13 14  1  0
 14 15  1  0
 15 16  2  0
 15 17  1  0
 17 18  1  0
 18 19  2  0
 19 20  1  0
 20 21  1  0
 21 22  2  0
 22 23  1  0
 23 24  2  0
 24 25  1  0
 24 26  1  0
 26 27  2  0
  9 28  1  0
 28  5  1  0
 13  8  1  0
 27 18  1  0
 27 21  1  0
M  END
>  <ref_mols>  (746) 
B0693a

>  <gnina_score>  (746) 
5.25

>  <smina_score_min>  (746) 
-4.163

>  <ref_pdb>  (746) 
B0693a

>  <inspiration_score>  (746) 
None

>  <inchikey>  (746) 
MXGCNHSDIYGYEZ-UHFFFAOYSA-N

>  <tags>  (746) 
BulkDock Fragalysis export,openbind_d68ev3c_c2_elabs_scored,openbind_d68ev3c_c2_elabs_scored_4.5plus,openbind_d68ev3c_c2_elabs,openbind_d68ev3c_c2_elabs_scored_5plus,syndirella_product,openbind_d68ev3c_c2_elabs_scored_top80percent,syndirella_placed

>  <smiles>  (746) 
CS(=O)(=O)N1CCc2c(cccc2NC(=O)Cc2n[nH]c3ccc(Cl)cc23)C1

>  <subsites>  (746) 
None

>  <rmsd(smina/fragmenstein)>  (746) 
2.49

>  <alias>  (746) 
None

>  <energy_score>  (746) 
-55.884424

>  <HIPPO Pose ID>  (746) 
85890

>  <distance_score>  (746) 
1.469174

>  <HIPPO Compound ID>  (746) 
119438

>  <gnina_score_min>  (746) 
5.01

>  <name>  (746) 
P85890

>  <exports>  (746) 
['/opt/xchem-fragalysis-2/maxwin/BulkDock/OUTPUTS/openbind_d68ev3c_c2_elabs_1LOTQJ3.sdf', '/opt/xchem-fragalysis-2/maxwin/BulkDock/OUTPUTS/openbind_d68ev3c_c2_elabs_1LSYEHW.sdf', '/opt/xchem-fragalysis-2/maxwin/BulkDock/OUTPUTS/openbind_d68ev3c_c2_elabs_1LSYI5W.sdf']

$$$$
P85916
     RDKit          3D

 28 31  0  0  0  0  0  0  0  0999 V2000
    8.8912    2.4635   16.7984 C   0  0  0  0  0  0  0  0  0  0  0  0
    9.6930    1.5022   15.9823 C   0  0  0  0  0  0  0  0  0  0  0  0
   10.6158    1.9408   15.0501 C   0  0  0  0  0  0  0  0  0  0  0  0
   11.3556    1.0010   14.3269 C   0  0  0  0  0  0  0  0  0  0  0  0
   11.1867   -0.3590   14.5553 C   0  0  0  0  0  0  0  0  0  0  0  0
   11.9352   -1.3319   13.8767 N   0  0  0  0  0  0  0  0  0  0  0  0
   13.2834   -1.0368   13.3763 C   0  0  0  0  0  0  0  0  0  0  0  0
   14.3073   -0.9755   14.5142 C   0  0  0  0  0  0  0  0  0  0  0  0
   14.1127   -2.0373   15.5797 C   0  0  0  0  0  0  0  0  0  0  0  0
   12.9031   -2.7782   15.6067 C   0  0  0  0  0  0  0  0  0  0  0  0
   12.6746   -3.6932   16.6414 C   0  0  0  0  0  0  0  0  0  0  0  0
   13.6199   -3.8816   17.6412 C   0  0  0  0  0  0  0  0  0  0  0  0
   14.8153   -3.1684   17.6111 C   0  0  0  0  0  0  0  0  0  0  0  0
   15.0726   -2.2464   16.5922 C   0  0  0  0  0  0  0  0  0  0  0  0
   16.2768   -1.5349   16.5928 N   0  0  0  0  0  0  0  0  0  0  0  0
   17.5377   -1.6747   17.5075 C   0  0  0  0  0  0  0  0  0  0  0  0
   17.7241   -2.3533   18.4443 O   0  0  0  0  0  0  0  0  0  0  0  0
   18.5727   -0.6837   16.9937 C   0  0  0  0  0  0  0  0  0  0  0  0
   19.0555   -1.0506   15.6342 C   0  0  0  0  0  0  0  0  0  0  0  0
   18.6610   -0.3325   14.5679 N   0  0  0  0  0  0  0  0  0  0  0  0
   19.3277   -0.8956   13.5384 N   0  0  0  0  0  0  0  0  0  0  0  0
   19.1913   -0.3408   12.2129 C   0  0  0  0  0  0  0  0  0  0  0  0
   20.0636   -1.9837   13.8957 C   0  0  0  0  0  0  0  0  0  0  0  0
   19.9158   -2.1079   15.2544 C   0  0  0  0  0  0  0  0  0  0  0  0
   20.6259   -3.2643   16.2645 Cl  0  0  0  0  0  0  0  0  0  0  0  0
   11.8717   -2.6596   14.4972 C   0  0  0  0  0  0  0  0  0  0  0  0
   10.2330   -0.7304   15.4494 N   0  0  0  0  0  0  0  0  0  0  0  0
    9.4816    0.1865   16.1644 N   0  0  0  0  0  0  0  0  0  0  0  0
  1  2  1  0
  2  3  2  0
  3  4  1  0
  4  5  2  0
  5  6  1  0
  6  7  1  0
  7  8  1  0
  8  9  1  0
  9 10  2  0
 10 11  1  0
 11 12  2  0
 12 13  1  0
 13 14  2  0
 14 15  1  0
 15 16  1  0
 16 17  2  0
 16 18  1  0
 18 19  1  0
 19 20  2  0
 20 21  1  0
 21 22  1  0
 21 23  1  0
 23 24  2  0
 24 25  1  0
 10 26  1  0
  5 27  1  0
 27 28  2  0
 28  2  1  0
 26  6  1  0
 14  9  1  0
 24 19  1  0
M  END
>  <ref_mols>  (747) 
B0693a

>  <gnina_score>  (747) 
5.139

>  <smina_score_min>  (747) 
-5.695

>  <ref_pdb>  (747) 
B0693a

>  <inspiration_score>  (747) 
None

>  <inchikey>  (747) 
XGLCCSXTLLADMU-UHFFFAOYSA-N

>  <tags>  (747) 
BulkDock Fragalysis export,openbind_d68ev3c_c2_elabs_scored,openbind_d68ev3c_c2_elabs_scored_4.5plus,openbind_d68ev3c_c2_elabs,openbind_d68ev3c_c2_elabs_scored_5plus,syndirella_product,openbind_d68ev3c_c2_elabs_scored_top80percent,syndirella_placed

>  <smiles>  (747) 
Cc1ccc(N2CCc3c(cccc3NC(=O)Cc3nn(C)cc3Cl)C2)nn1

>  <subsites>  (747) 
None

>  <rmsd(smina/fragmenstein)>  (747) 
1.813

>  <alias>  (747) 
None

>  <energy_score>  (747) 
-43.851498

>  <HIPPO Pose ID>  (747) 
85916

>  <distance_score>  (747) 
0.460558

>  <HIPPO Compound ID>  (747) 
119489

>  <gnina_score_min>  (747) 
5.055

>  <name>  (747) 
P85916

>  <exports>  (747) 
['/opt/xchem-fragalysis-2/maxwin/BulkDock/OUTPUTS/openbind_d68ev3c_c2_elabs_1LOTQJ3.sdf', '/opt/xchem-fragalysis-2/maxwin/BulkDock/OUTPUTS/openbind_d68ev3c_c2_elabs_1LSYEHW.sdf', '/opt/xchem-fragalysis-2/maxwin/BulkDock/OUTPUTS/openbind_d68ev3c_c2_elabs_1LSYI5W.sdf']

$$$$
P85921
     RDKit          3D

 28 31  0  0  0  0  0  0  0  0999 V2000
   19.7546    1.1856   15.1891 C   0  0  0  0  0  0  0  0  0  0  0  0
   19.6739   -0.2008   14.7905 N   0  0  0  0  0  0  0  0  0  0  0  0
   19.5903   -0.4977   13.4821 N   0  0  0  0  0  0  0  0  0  0  0  0
   19.6218   -1.8294   13.4550 C   0  0  0  0  0  0  0  0  0  0  0  0
   19.5723   -2.6497   12.1408 C   0  0  0  0  0  0  0  0  0  0  0  0
   20.5833   -2.3628   11.0607 C   0  0  0  0  0  0  0  0  0  0  0  0
   20.6675   -3.6410   11.8424 C   0  0  0  0  0  0  0  0  0  0  0  0
   19.6516   -2.3917   14.7400 C   0  0  0  0  0  0  0  0  0  0  0  0
   19.6412   -1.3095   15.6008 C   0  0  0  0  0  0  0  0  0  0  0  0
   19.6118   -1.2568   17.0955 C   0  0  0  0  0  0  0  0  0  0  0  0
   18.6251   -2.2808   17.6687 C   0  0  0  0  0  0  0  0  0  0  0  0
   18.9401   -3.1044   18.4400 O   0  0  0  0  0  0  0  0  0  0  0  0
   17.2267   -1.9566   17.0476 N   0  0  0  0  0  0  0  0  0  0  0  0
   16.0044   -2.6168   17.1752 C   0  0  0  0  0  0  0  0  0  0  0  0
   15.8812   -3.6960   18.0509 C   0  0  0  0  0  0  0  0  0  0  0  0
   14.6699   -4.3648   18.1978 C   0  0  0  0  0  0  0  0  0  0  0  0
   13.5650   -3.9523   17.4765 C   0  0  0  0  0  0  0  0  0  0  0  0
   13.6635   -2.8616   16.6048 C   0  0  0  0  0  0  0  0  0  0  0  0
   14.8898   -2.1964   16.4287 C   0  0  0  0  0  0  0  0  0  0  0  0
   14.9190   -0.9958   15.5188 C   0  0  0  0  0  0  0  0  0  0  0  0
   13.8526   -1.0744   14.4333 C   0  0  0  0  0  0  0  0  0  0  0  0
   12.5015   -1.3861   14.9182 N   0  0  0  0  0  0  0  0  0  0  0  0
   11.6415   -1.8227   13.8028 C   0  0  0  0  0  0  0  0  0  0  0  0
   11.9238   -3.2263   13.2038 C   0  0  0  0  0  0  0  0  0  0  0  0
   11.3413   -4.1877   13.9456 F   0  0  0  0  0  0  0  0  0  0  0  0
   13.2384   -3.4708   13.1121 F   0  0  0  0  0  0  0  0  0  0  0  0
   11.4523   -3.3781   11.9618 F   0  0  0  0  0  0  0  0  0  0  0  0
   12.3969   -2.3737   15.9854 C   0  0  0  0  0  0  0  0  0  0  0  0
  1  2  1  0
  2  3  1  0
  3  4  2  0
  4  5  1  0
  5  6  1  0
  6  7  1  0
  4  8  1  0
  8  9  2  0
  9 10  1  0
 10 11  1  0
 11 12  2  0
 11 13  1  0
 13 14  1  0
 14 15  2  0
 15 16  1  0
 16 17  2  0
 17 18  1  0
 18 19  2  0
 19 20  1  0
 20 21  1  0
 21 22  1  0
 22 23  1  0
 23 24  1  0
 24 25  1  0
 24 26  1  0
 24 27  1  0
 22 28  1  0
  9  2  1  0
 19 14  1  0
  7  5  1  0
 28 18  1  0
M  END
>  <ref_mols>  (748) 
B0693a

>  <gnina_score>  (748) 
4.948

>  <smina_score_min>  (748) 
-3.745

>  <ref_pdb>  (748) 
B0693a

>  <inspiration_score>  (748) 
None

>  <inchikey>  (748) 
URRKIBVCEOXIRG-UHFFFAOYSA-N

>  <tags>  (748) 
BulkDock Fragalysis export,openbind_d68ev3c_c2_elabs_scored,openbind_d68ev3c_c2_elabs_scored_4.5plus,openbind_d68ev3c_c2_elabs,openbind_d68ev3c_c2_elabs_scored_5plus,syndirella_product,openbind_d68ev3c_c2_elabs_scored_top80percent,syndirella_placed

>  <smiles>  (748) 
Cn1nc(C2CC2)cc1CC(=O)Nc1cccc2c1CCN(CC(F)(F)F)C2

>  <subsites>  (748) 
None

>  <rmsd(smina/fragmenstein)>  (748) 
2.633

>  <alias>  (748) 
None

>  <energy_score>  (748) 
-17.88637

>  <HIPPO Pose ID>  (748) 
85921

>  <distance_score>  (748) 
1.245414

>  <HIPPO Compound ID>  (748) 
119509

>  <gnina_score_min>  (748) 
5.019

>  <name>  (748) 
P85921

>  <exports>  (748) 
['/opt/xchem-fragalysis-2/maxwin/BulkDock/OUTPUTS/openbind_d68ev3c_c2_elabs_1LOTQJ3.sdf', '/opt/xchem-fragalysis-2/maxwin/BulkDock/OUTPUTS/openbind_d68ev3c_c2_elabs_1LSYEHW.sdf', '/opt/xchem-fragalysis-2/maxwin/BulkDock/OUTPUTS/openbind_d68ev3c_c2_elabs_1LSYI5W.sdf']

$$$$
P85936
     RDKit          3D

 28 30  0  0  0  0  0  0  0  0999 V2000
   21.4481    1.1338   12.6212 C   0  0  0  0  0  0  0  0  0  0  0  0
   19.9438    1.3593   12.6759 C   0  0  0  0  0  0  0  0  0  0  0  0
   19.1427    0.0624   12.5738 C   0  0  0  0  0  0  0  0  0  0  0  0
   19.3106   -0.8132   13.7188 N   0  0  0  0  0  0  0  0  0  0  0  0
   19.9790   -2.0014   13.7454 C   0  0  0  0  0  0  0  0  0  0  0  0
   19.8824   -2.4502   15.0364 C   0  0  0  0  0  0  0  0  0  0  0  0
   20.6998   -4.1860   15.7541 I   0  0  0  0  0  0  0  0  0  0  0  0
   19.1251   -1.4822   15.7267 C   0  0  0  0  0  0  0  0  0  0  0  0
   18.7174   -1.4376   17.1604 C   0  0  0  0  0  0  0  0  0  0  0  0
   17.4997   -2.3125   17.4429 C   0  0  0  0  0  0  0  0  0  0  0  0
   17.5001   -3.1479   18.2643 O   0  0  0  0  0  0  0  0  0  0  0  0
   16.3468   -1.8013   16.5196 N   0  0  0  0  0  0  0  0  0  0  0  0
   15.0374   -2.2646   16.3625 C   0  0  0  0  0  0  0  0  0  0  0  0
   14.5122   -3.1964   17.2588 C   0  0  0  0  0  0  0  0  0  0  0  0
   13.1947   -3.6316   17.1308 C   0  0  0  0  0  0  0  0  0  0  0  0
   12.3791   -3.1105   16.1271 C   0  0  0  0  0  0  0  0  0  0  0  0
   12.8727   -2.1581   15.2255 C   0  0  0  0  0  0  0  0  0  0  0  0
   14.2332   -1.7788   15.3107 C   0  0  0  0  0  0  0  0  0  0  0  0
   14.7996   -0.8755   14.2407 C   0  0  0  0  0  0  0  0  0  0  0  0
   13.9986   -0.9867   12.9515 C   0  0  0  0  0  0  0  0  0  0  0  0
   12.5834   -0.6782   13.1979 N   0  0  0  0  0  0  0  0  0  0  0  0
   11.9879    0.8437   12.8119 S   0  0  0  0  0  0  0  0  0  0  0  0
   10.5513    0.7688   12.6424 O   0  0  0  0  0  0  0  0  0  0  0  0
   12.8060    1.4164   11.7632 O   0  0  0  0  0  0  0  0  0  0  0  0
   12.2915    1.7879   14.2883 C   0  0  0  0  0  0  0  0  0  0  0  0
   11.7341    3.1947   14.1765 C   0  0  0  0  0  0  0  0  0  0  0  0
   11.9327   -1.5640   14.1808 C   0  0  0  0  0  0  0  0  0  0  0  0
   18.7234   -0.5029   14.8956 N   0  0  0  0  0  0  0  0  0  0  0  0
  1  2  1  0
  2  3  1  0
  3  4  1  0
  4  5  1  0
  5  6  2  0
  6  7  1  0
  6  8  1  0
  8  9  1  0
  9 10  1  0
 10 11  2  0
 10 12  1  0
 12 13  1  0
 13 14  2  0
 14 15  1  0
 15 16  2  0
 16 17  1  0
 17 18  2  0
 18 19  1  0
 19 20  1  0
 20 21  1  0
 21 22  1  0
 22 23  2  0
 22 24  2  0
 22 25  1  0
 25 26  1  0
 21 27  1  0
  8 28  2  0
 28  4  1  0
 18 13  1  0
 27 17  1  0
M  END
>  <ref_mols>  (749) 
B0693a

>  <gnina_score>  (749) 
5.285

>  <smina_score_min>  (749) 
-3.727

>  <ref_pdb>  (749) 
B0693a

>  <inspiration_score>  (749) 
None

>  <inchikey>  (749) 
VWYYYVRCBKNZKB-UHFFFAOYSA-N

>  <tags>  (749) 
BulkDock Fragalysis export,openbind_d68ev3c_c2_elabs_scored,openbind_d68ev3c_c2_elabs_scored_4.5plus,openbind_d68ev3c_c2_elabs,openbind_d68ev3c_c2_elabs_scored_5plus,syndirella_product,openbind_d68ev3c_c2_elabs_scored_top80percent,syndirella_placed

>  <smiles>  (749) 
CCCn1cc(I)c(CC(=O)Nc2cccc3c2CCN(S(=O)(=O)CC)C3)n1

>  <subsites>  (749) 
None

>  <rmsd(smina/fragmenstein)>  (749) 
0.077

>  <alias>  (749) 
None

>  <energy_score>  (749) 
-55.216648

>  <HIPPO Pose ID>  (749) 
85936

>  <distance_score>  (749) 
0.570255

>  <HIPPO Compound ID>  (749) 
119535

>  <gnina_score_min>  (749) 
5.242

>  <name>  (749) 
P85936

>  <exports>  (749) 
['/opt/xchem-fragalysis-2/maxwin/BulkDock/OUTPUTS/openbind_d68ev3c_c2_elabs_1LOTQJ3.sdf', '/opt/xchem-fragalysis-2/maxwin/BulkDock/OUTPUTS/openbind_d68ev3c_c2_elabs_1LSYEHW.sdf', '/opt/xchem-fragalysis-2/maxwin/BulkDock/OUTPUTS/openbind_d68ev3c_c2_elabs_1LSYI5W.sdf']

$$$$
P85945
     RDKit          3D

 28 30  0  0  0  0  0  0  0  0999 V2000
   17.3369   -0.6221   11.3083 C   0  0  0  0  0  0  0  0  0  0  0  0
   18.1040    0.5472   11.9051 C   0  0  0  0  0  0  0  0  0  0  0  0
   19.4776    0.1462   12.4400 C   0  0  0  0  0  0  0  0  0  0  0  0
   19.4252   -0.7166   13.6055 N   0  0  0  0  0  0  0  0  0  0  0  0
   19.9125   -1.9860   13.7056 C   0  0  0  0  0  0  0  0  0  0  0  0
   19.7392   -2.3450   15.0173 C   0  0  0  0  0  0  0  0  0  0  0  0
   20.3140   -4.1310   15.8397 I   0  0  0  0  0  0  0  0  0  0  0  0
   19.1205   -1.2413   15.6413 C   0  0  0  0  0  0  0  0  0  0  0  0
   18.7259   -1.0389   17.0635 C   0  0  0  0  0  0  0  0  0  0  0  0
   17.6074   -1.9713   17.5080 C   0  0  0  0  0  0  0  0  0  0  0  0
   17.7237   -2.6849   18.4306 O   0  0  0  0  0  0  0  0  0  0  0  0
   16.3767   -1.7095   16.5787 N   0  0  0  0  0  0  0  0  0  0  0  0
   15.1204   -2.3218   16.5429 C   0  0  0  0  0  0  0  0  0  0  0  0
   14.7576   -3.2050   17.5640 C   0  0  0  0  0  0  0  0  0  0  0  0
   13.5071   -3.8160   17.5651 C   0  0  0  0  0  0  0  0  0  0  0  0
   12.6031   -3.5451   16.5458 C   0  0  0  0  0  0  0  0  0  0  0  0
   12.9329   -2.6547   15.5173 C   0  0  0  0  0  0  0  0  0  0  0  0
   14.2129   -2.0513   15.4986 C   0  0  0  0  0  0  0  0  0  0  0  0
   14.5609   -1.1050   14.3694 C   0  0  0  0  0  0  0  0  0  0  0  0
   13.5283   -1.0939   13.2284 C   0  0  0  0  0  0  0  0  0  0  0  0
   12.1210   -1.1759   13.6660 N   0  0  0  0  0  0  0  0  0  0  0  0
   11.7224    0.0283   14.4476 C   0  0  0  0  0  0  0  0  0  0  0  0
   10.3179    0.1344   15.0830 C   0  0  0  0  0  0  0  0  0  0  0  0
   10.0881   -0.8165   16.0230 F   0  0  0  0  0  0  0  0  0  0  0  0
    9.3236    0.0710   14.1787 F   0  0  0  0  0  0  0  0  0  0  0  0
   10.1887    1.3298   15.7136 F   0  0  0  0  0  0  0  0  0  0  0  0
   11.9396   -2.4385   14.3960 C   0  0  0  0  0  0  0  0  0  0  0  0
   18.8811   -0.2616   14.7532 N   0  0  0  0  0  0  0  0  0  0  0  0
  1  2  1  0
  2  3  1  0
  3  4  1  0
  4  5  1  0
  5  6  2  0
  6  7  1  0
  6  8  1  0
  8  9  1  0
  9 10  1  0
 10 11  2  0
 10 12  1  0
 12 13  1  0
 13 14  2  0
 14 15  1  0
 15 16  2  0
 16 17  1  0
 17 18  2  0
 18 19  1  0
 19 20  1  0
 20 21  1  0
 21 22  1  0
 22 23  1  0
 23 24  1  0
 23 25  1  0
 23 26  1  0
 21 27  1  0
  8 28  2  0
 28  4  1  0
 18 13  1  0
 27 17  1  0
M  END
>  <ref_mols>  (750) 
B0693a

>  <gnina_score>  (750) 
5.243

>  <smina_score_min>  (750) 
-4.481

>  <ref_pdb>  (750) 
B0693a

>  <inspiration_score>  (750) 
None

>  <inchikey>  (750) 
LNEUROZHKBXPER-UHFFFAOYSA-N

>  <tags>  (750) 
BulkDock Fragalysis export,openbind_d68ev3c_c2_elabs_scored,openbind_d68ev3c_c2_elabs_scored_4.5plus,openbind_d68ev3c_c2_elabs,openbind_d68ev3c_c2_elabs_scored_5plus,syndirella_product,openbind_d68ev3c_c2_elabs_scored_top80percent,syndirella_placed

>  <smiles>  (750) 
CCCn1cc(I)c(CC(=O)Nc2cccc3c2CCN(CC(F)(F)F)C3)n1

>  <subsites>  (750) 
None

>  <rmsd(smina/fragmenstein)>  (750) 
0.639

>  <alias>  (750) 
None

>  <energy_score>  (750) 
-47.574058

>  <HIPPO Pose ID>  (750) 
85945

>  <distance_score>  (750) 
0.335487

>  <HIPPO Compound ID>  (750) 
119550

>  <gnina_score_min>  (750) 
5.192

>  <name>  (750) 
P85945

>  <exports>  (750) 
['/opt/xchem-fragalysis-2/maxwin/BulkDock/OUTPUTS/openbind_d68ev3c_c2_elabs_1LOTQJ3.sdf', '/opt/xchem-fragalysis-2/maxwin/BulkDock/OUTPUTS/openbind_d68ev3c_c2_elabs_1LSYEHW.sdf', '/opt/xchem-fragalysis-2/maxwin/BulkDock/OUTPUTS/openbind_d68ev3c_c2_elabs_1LSYI5W.sdf']

$$$$
P85949
     RDKit          3D

 28 31  0  0  0  0  0  0  0  0999 V2000
   10.3584    3.8722   15.1644 C   0  0  0  0  0  0  0  0  0  0  0  0
   10.7415    2.4972   14.7246 C   0  0  0  0  0  0  0  0  0  0  0  0
   10.1700    1.3725   15.2872 C   0  0  0  0  0  0  0  0  0  0  0  0
   10.5943    0.1111   14.8613 C   0  0  0  0  0  0  0  0  0  0  0  0
   11.6124   -0.0157   13.9238 C   0  0  0  0  0  0  0  0  0  0  0  0
   12.1508   -1.2445   13.5337 N   0  0  0  0  0  0  0  0  0  0  0  0
   13.5512   -1.1656   13.0825 C   0  0  0  0  0  0  0  0  0  0  0  0
   14.4929   -1.0290   14.2873 C   0  0  0  0  0  0  0  0  0  0  0  0
   14.1553   -1.9808   15.4230 C   0  0  0  0  0  0  0  0  0  0  0  0
   12.8909   -2.6253   15.4352 C   0  0  0  0  0  0  0  0  0  0  0  0
   12.5770   -3.5111   16.4748 C   0  0  0  0  0  0  0  0  0  0  0  0
   13.4803   -3.7445   17.5049 C   0  0  0  0  0  0  0  0  0  0  0  0
   14.7117   -3.0945   17.5091 C   0  0  0  0  0  0  0  0  0  0  0  0
   15.0574   -2.2094   16.4829 C   0  0  0  0  0  0  0  0  0  0  0  0
   16.2921   -1.5547   16.5239 N   0  0  0  0  0  0  0  0  0  0  0  0
   17.5121   -1.7481   17.4832 C   0  0  0  0  0  0  0  0  0  0  0  0
   17.6338   -2.4301   18.4285 O   0  0  0  0  0  0  0  0  0  0  0  0
   18.6079   -0.8002   17.0136 C   0  0  0  0  0  0  0  0  0  0  0  0
   19.0713   -1.1245   15.6358 C   0  0  0  0  0  0  0  0  0  0  0  0
   18.6754   -0.3486   14.6119 N   0  0  0  0  0  0  0  0  0  0  0  0
   19.3055   -0.8737   13.5410 N   0  0  0  0  0  0  0  0  0  0  0  0
   19.1486   -0.2522   12.2478 C   0  0  0  0  0  0  0  0  0  0  0  0
   20.0226   -1.9956   13.8291 C   0  0  0  0  0  0  0  0  0  0  0  0
   19.8925   -2.1777   15.1814 C   0  0  0  0  0  0  0  0  0  0  0  0
   20.7572   -3.6870   16.2638 I   0  0  0  0  0  0  0  0  0  0  0  0
   11.9023   -2.4672   14.2943 C   0  0  0  0  0  0  0  0  0  0  0  0
   12.0777    1.1210   13.3564 N   0  0  0  0  0  0  0  0  0  0  0  0
   11.6466    2.3774   13.7433 N   0  0  0  0  0  0  0  0  0  0  0  0
  1  2  1  0
  2  3  2  0
  3  4  1  0
  4  5  2  0
  5  6  1  0
  6  7  1  0
  7  8  1  0
  8  9  1  0
  9 10  2  0
 10 11  1  0
 11 12  2  0
 12 13  1  0
 13 14  2  0
 14 15  1  0
 15 16  1  0
 16 17  2  0
 16 18  1  0
 18 19  1  0
 19 20  2  0
 20 21  1  0
 21 22  1  0
 21 23  1  0
 23 24  2  0
 24 25  1  0
 10 26  1  0
  5 27  1  0
 27 28  2  0
 28  2  1  0
 26  6  1  0
 14  9  1  0
 24 19  1  0
M  END
>  <ref_mols>  (751) 
B0693a

>  <gnina_score>  (751) 
5.055

>  <smina_score_min>  (751) 
-5.762

>  <ref_pdb>  (751) 
B0693a

>  <inspiration_score>  (751) 
None

>  <inchikey>  (751) 
UZKUBNFHLAUSIL-UHFFFAOYSA-N

>  <tags>  (751) 
BulkDock Fragalysis export,openbind_d68ev3c_c2_elabs_scored,openbind_d68ev3c_c2_elabs_scored_4.5plus,openbind_d68ev3c_c2_elabs,openbind_d68ev3c_c2_elabs_scored_5plus,syndirella_product,openbind_d68ev3c_c2_elabs_scored_top80percent,syndirella_placed

>  <smiles>  (751) 
Cc1ccc(N2CCc3c(cccc3NC(=O)Cc3nn(C)cc3I)C2)nn1

>  <subsites>  (751) 
None

>  <rmsd(smina/fragmenstein)>  (751) 
1.959

>  <alias>  (751) 
None

>  <energy_score>  (751) 
-33.022664

>  <HIPPO Pose ID>  (751) 
85949

>  <distance_score>  (751) 
0.392036

>  <HIPPO Compound ID>  (751) 
119559

>  <gnina_score_min>  (751) 
5.006

>  <name>  (751) 
P85949

>  <exports>  (751) 
['/opt/xchem-fragalysis-2/maxwin/BulkDock/OUTPUTS/openbind_d68ev3c_c2_elabs_1LOTQJ3.sdf', '/opt/xchem-fragalysis-2/maxwin/BulkDock/OUTPUTS/openbind_d68ev3c_c2_elabs_1LSYEHW.sdf', '/opt/xchem-fragalysis-2/maxwin/BulkDock/OUTPUTS/openbind_d68ev3c_c2_elabs_1LSYI5W.sdf']

$$$$
P85956
     RDKit          3D

 28 31  0  0  0  0  0  0  0  0999 V2000
   21.0524   -3.0008   18.6919 C   0  0  0  0  0  0  0  0  0  0  0  0
   20.8823   -2.0565   17.5006 C   0  0  1  0  0  0  0  0  0  0  0  0
   20.5159   -2.8675   16.2215 C   0  0  0  0  0  0  0  0  0  0  0  0
   19.8911   -1.9778   15.2175 C   0  0  0  0  0  0  0  0  0  0  0  0
   19.9976   -1.8393   13.8270 C   0  0  0  0  0  0  0  0  0  0  0  0
   19.2871   -0.7967   13.3770 N   0  0  0  0  0  0  0  0  0  0  0  0
   18.7646   -0.2485   14.4886 N   0  0  0  0  0  0  0  0  0  0  0  0
   19.0300   -0.9806   15.6024 C   0  0  0  0  0  0  0  0  0  0  0  0
   18.6382   -0.7110   17.0122 C   0  0  1  0  0  0  0  0  0  0  0  0
   17.5624   -1.7152   17.5179 C   0  0  0  0  0  0  0  0  0  0  0  0
   17.7017   -2.3242   18.5094 O   0  0  0  0  0  0  0  0  0  0  0  0
   16.3747   -1.6953   16.4995 N   0  0  0  0  0  0  0  0  0  0  0  0
   15.1289   -2.3257   16.5474 C   0  0  0  0  0  0  0  0  0  0  0  0
   14.8400   -3.1991   17.6009 C   0  0  0  0  0  0  0  0  0  0  0  0
   13.6210   -3.8674   17.6589 C   0  0  0  0  0  0  0  0  0  0  0  0
   12.6827   -3.6773   16.6549 C   0  0  0  0  0  0  0  0  0  0  0  0
   12.9406   -2.7985   15.5950 C   0  0  0  0  0  0  0  0  0  0  0  0
   14.1751   -2.1149   15.5312 C   0  0  0  0  0  0  0  0  0  0  0  0
   14.4177   -1.1528   14.3870 C   0  0  0  0  0  0  0  0  0  0  0  0
   13.3259   -1.1762   13.2985 C   0  0  0  0  0  0  0  0  0  0  0  0
   11.9480   -1.3768   13.8015 N   0  0  0  0  0  0  0  0  0  0  0  0
   11.4611   -0.1905   14.5387 C   0  0  0  0  0  0  0  0  0  0  0  0
   10.1538   -0.2259   15.4039 C   0  0  0  0  0  0  0  0  0  0  0  0
    8.9373   -0.8100   14.7473 C   0  0  0  0  0  0  0  0  0  0  0  0
    9.8200    1.2039   15.8683 C   0  0  0  0  0  0  0  0  0  0  0  0
   10.2858   -1.0355   16.5641 O   0  0  0  0  0  0  0  0  0  0  0  0
   11.9130   -2.6648   14.4936 C   0  0  0  0  0  0  0  0  0  0  0  0
   19.9354   -0.8498   17.8610 C   0  0  0  0  0  0  0  0  0  0  0  0
  2  1  1  1
  2  3  1  0
  3  4  1  0
  4  5  1  0
  5  6  2  0
  6  7  1  0
  7  8  1  0
  8  9  1  0
  9 10  1  1
 10 11  2  0
 10 12  1  0
 12 13  1  0
 13 14  2  0
 14 15  1  0
 15 16  2  0
 16 17  1  0
 17 18  2  0
 18 19  1  0
 19 20  1  0
 20 21  1  0
 21 22  1  0
 22 23  1  0
 23 24  1  0
 23 25  1  0
 23 26  1  0
 21 27  1  0
  9 28  1  0
 28  2  1  0
  8  4  2  0
 18 13  1  0
 27 17  1  0
M  END
>  <ref_mols>  (752) 
B0693a

>  <gnina_score>  (752) 
5.04

>  <smina_score_min>  (752) 
-3.941

>  <ref_pdb>  (752) 
B0693a

>  <inspiration_score>  (752) 
None

>  <inchikey>  (752) 
ZDLRKOUZNCSIIU-KSSFIOAISA-N

>  <tags>  (752) 
BulkDock Fragalysis export,openbind_d68ev3c_c2_elabs_scored,openbind_d68ev3c_c2_elabs_scored_4.5plus,openbind_d68ev3c_c2_elabs,openbind_d68ev3c_c2_elabs_scored_5plus,syndirella_product,openbind_d68ev3c_c2_elabs_scored_top80percent,syndirella_placed

>  <smiles>  (752) 
C[C@H]1Cc2cn[nH]c2[C@@H](C(=O)Nc2cccc3c2CCN(CC(C)(C)O)C3)C1

>  <subsites>  (752) 
None

>  <rmsd(smina/fragmenstein)>  (752) 
1.788

>  <alias>  (752) 
None

>  <energy_score>  (752) 
-53.784114

>  <HIPPO Pose ID>  (752) 
85956

>  <distance_score>  (752) 
0.44898

>  <HIPPO Compound ID>  (752) 
119565

>  <gnina_score_min>  (752) 
5.026

>  <name>  (752) 
P85956

>  <exports>  (752) 
['/opt/xchem-fragalysis-2/maxwin/BulkDock/OUTPUTS/openbind_d68ev3c_c2_elabs_1LOTQJ3.sdf', '/opt/xchem-fragalysis-2/maxwin/BulkDock/OUTPUTS/openbind_d68ev3c_c2_elabs_1LSYEHW.sdf', '/opt/xchem-fragalysis-2/maxwin/BulkDock/OUTPUTS/openbind_d68ev3c_c2_elabs_1LSYI5W.sdf']

$$$$
P85958
     RDKit          3D

 28 31  0  0  0  0  0  0  0  0999 V2000
   20.3960    1.8694   17.0118 C   0  0  0  0  0  0  0  0  0  0  0  0
   18.9778    1.7476   16.4435 C   0  0  1  0  0  0  0  0  0  0  0  0
   19.0033    1.4189   14.9262 C   0  0  0  0  0  0  0  0  0  0  0  0
   19.2158   -0.0332   14.6940 C   0  0  0  0  0  0  0  0  0  0  0  0
   19.6150   -0.7571   13.5588 C   0  0  0  0  0  0  0  0  0  0  0  0
   19.6685   -2.0720   13.7949 N   0  0  0  0  0  0  0  0  0  0  0  0
   19.3582   -2.1899   15.0992 N   0  0  0  0  0  0  0  0  0  0  0  0
   19.0295   -0.9920   15.6637 C   0  0  0  0  0  0  0  0  0  0  0  0
   18.6149   -0.7527   17.0790 C   0  0  2  0  0  0  0  0  0  0  0  0
   17.5368   -1.7592   17.5278 C   0  0  0  0  0  0  0  0  0  0  0  0
   17.6884   -2.4405   18.4689 O   0  0  0  0  0  0  0  0  0  0  0  0
   16.3409   -1.6693   16.5251 N   0  0  0  0  0  0  0  0  0  0  0  0
   15.0999   -2.3082   16.5357 C   0  0  0  0  0  0  0  0  0  0  0  0
   14.7697   -3.1771   17.5781 C   0  0  0  0  0  0  0  0  0  0  0  0
   13.5305   -3.8108   17.6040 C   0  0  0  0  0  0  0  0  0  0  0  0
   12.6071   -3.5719   16.5928 C   0  0  0  0  0  0  0  0  0  0  0  0
   12.9035   -2.6902   15.5471 C   0  0  0  0  0  0  0  0  0  0  0  0
   14.1737   -2.0715   15.4984 C   0  0  0  0  0  0  0  0  0  0  0  0
   14.4933   -1.1410   14.3468 C   0  0  0  0  0  0  0  0  0  0  0  0
   13.4417   -1.1571   13.2252 C   0  0  0  0  0  0  0  0  0  0  0  0
   12.0440   -1.2466   13.6900 N   0  0  0  0  0  0  0  0  0  0  0  0
   11.6386   -0.0325   14.4513 C   0  0  0  0  0  0  0  0  0  0  0  0
   10.2513    0.0652   15.1280 C   0  0  0  0  0  0  0  0  0  0  0  0
   10.1273    1.2716   15.7394 F   0  0  0  0  0  0  0  0  0  0  0  0
   10.0680   -0.8683   16.0955 F   0  0  0  0  0  0  0  0  0  0  0  0
    9.2253   -0.0310   14.2635 F   0  0  0  0  0  0  0  0  0  0  0  0
   11.8877   -2.4996   14.4415 C   0  0  0  0  0  0  0  0  0  0  0  0
   18.1354    0.7136   17.2415 C   0  0  0  0  0  0  0  0  0  0  0  0
  2  1  1  1
  2  3  1  0
  3  4  1  0
  4  5  1  0
  5  6  2  0
  6  7  1  0
  7  8  1  0
  8  9  1  0
  9 10  1  6
 10 11  2  0
 10 12  1  0
 12 13  1  0
 13 14  2  0
 14 15  1  0
 15 16  2  0
 16 17  1  0
 17 18  2  0
 18 19  1  0
 19 20  1  0
 20 21  1  0
 21 22  1  0
 22 23  1  0
 23 24  1  0
 23 25  1  0
 23 26  1  0
 21 27  1  0
  9 28  1  0
 28  2  1  0
  8  4  2  0
 18 13  1  0
 27 17  1  0
M  END
>  <ref_mols>  (753) 
B0693a

>  <gnina_score>  (753) 
5.159

>  <smina_score_min>  (753) 
-4.916

>  <ref_pdb>  (753) 
B0693a

>  <inspiration_score>  (753) 
None

>  <inchikey>  (753) 
URMNFCOFOOEKPH-BLLLJJGKSA-N

>  <tags>  (753) 
BulkDock Fragalysis export,openbind_d68ev3c_c2_elabs_scored,openbind_d68ev3c_c2_elabs_scored_4.5plus,openbind_d68ev3c_c2_elabs,openbind_d68ev3c_c2_elabs_scored_5plus,syndirella_product,openbind_d68ev3c_c2_elabs_scored_top80percent,syndirella_placed

>  <smiles>  (753) 
C[C@H]1Cc2cn[nH]c2[C@H](C(=O)Nc2cccc3c2CCN(CC(F)(F)F)C3)C1

>  <subsites>  (753) 
None

>  <rmsd(smina/fragmenstein)>  (753) 
1.456

>  <alias>  (753) 
None

>  <energy_score>  (753) 
-69.033767

>  <HIPPO Pose ID>  (753) 
85958

>  <distance_score>  (753) 
0.350531

>  <HIPPO Compound ID>  (753) 
119566

>  <gnina_score_min>  (753) 
5.124

>  <name>  (753) 
P85958

>  <exports>  (753) 
['/opt/xchem-fragalysis-2/maxwin/BulkDock/OUTPUTS/openbind_d68ev3c_c2_elabs_1LOTQJ3.sdf', '/opt/xchem-fragalysis-2/maxwin/BulkDock/OUTPUTS/openbind_d68ev3c_c2_elabs_1LSYEHW.sdf', '/opt/xchem-fragalysis-2/maxwin/BulkDock/OUTPUTS/openbind_d68ev3c_c2_elabs_1LSYI5W.sdf']

$$$$
P85971
     RDKit          3D

 28 30  0  0  0  0  0  0  0  0999 V2000
   11.8456   -3.8946   12.7144 C   0  0  0  0  0  0  0  0  0  0  0  0
   12.6790   -2.7307   13.1235 C   0  0  0  0  0  0  0  0  0  0  0  0
   11.7489   -1.4188   13.9531 S   0  0  0  0  0  0  0  0  0  0  0  0
   11.7691   -0.2231   13.1415 O   0  0  0  0  0  0  0  0  0  0  0  0
   10.5411   -1.9205   14.5744 O   0  0  0  0  0  0  0  0  0  0  0  0
   12.8214   -1.2062   15.2443 N   0  0  0  0  0  0  0  0  0  0  0  0
   14.1662   -0.7375   14.8359 C   0  0  0  0  0  0  0  0  0  0  0  0
   15.2167   -0.8813   15.9171 C   0  0  0  0  0  0  0  0  0  0  0  0
   15.1904   -2.2078   16.6300 C   0  0  0  0  0  0  0  0  0  0  0  0
   13.9671   -2.8847   16.7553 C   0  0  0  0  0  0  0  0  0  0  0  0
   13.8649   -4.0599   17.5102 C   0  0  0  0  0  0  0  0  0  0  0  0
   14.9821   -4.5674   18.1429 C   0  0  0  0  0  0  0  0  0  0  0  0
   16.2032   -3.9106   18.0202 C   0  0  0  0  0  0  0  0  0  0  0  0
   16.3204   -2.7360   17.2758 C   0  0  0  0  0  0  0  0  0  0  0  0
   17.5566   -2.1024   17.1553 N   0  0  0  0  0  0  0  0  0  0  0  0
   18.9585   -2.4989   17.7195 C   0  0  0  0  0  0  0  0  0  0  0  0
   19.2691   -3.3741   18.4332 O   0  0  0  0  0  0  0  0  0  0  0  0
   19.9504   -1.4789   17.1703 C   0  0  0  0  0  0  0  0  0  0  0  0
   19.8801   -1.4014   15.6815 C   0  0  0  0  0  0  0  0  0  0  0  0
   19.2537   -0.3676   15.0903 N   0  0  0  0  0  0  0  0  0  0  0  0
   19.4272   -0.5952   13.7668 N   0  0  0  0  0  0  0  0  0  0  0  0
   18.9546    0.3716   12.7795 C   0  0  0  0  0  0  0  0  0  0  0  0
   17.4347    0.5220   12.8264 C   0  0  0  0  0  0  0  0  0  0  0  0
   19.6543    1.7204   12.9389 C   0  0  0  0  0  0  0  0  0  0  0  0
   20.0435   -1.7837   13.5007 C   0  0  0  0  0  0  0  0  0  0  0  0
   20.3499   -2.3186   14.7223 C   0  0  0  0  0  0  0  0  0  0  0  0
   21.2290   -3.9325   15.0565 Br  0  0  0  0  0  0  0  0  0  0  0  0
   12.7128   -2.3766   16.1435 C   0  0  0  0  0  0  0  0  0  0  0  0
  1  2  1  0
  2  3  1  0
  3  4  2  0
  3  5  2  0
  3  6  1  0
  6  7  1  0
  7  8  1  0
  8  9  1  0
  9 10  2  0
 10 11  1  0
 11 12  2  0
 12 13  1  0
 13 14  2  0
 14 15  1  0
 15 16  1  0
 16 17  2  0
 16 18  1  0
 18 19  1  0
 19 20  2  0
 20 21  1  0
 21 22  1  0
 22 23  1  0
 22 24  1  0
 21 25  1  0
 25 26  2  0
 26 27  1  0
 10 28  1  0
 28  6  1  0
 14  9  1  0
 26 19  1  0
M  END
>  <ref_mols>  (754) 
B0693a

>  <gnina_score>  (754) 
5.383

>  <smina_score_min>  (754) 
-3.607

>  <ref_pdb>  (754) 
B0693a

>  <inspiration_score>  (754) 
None

>  <inchikey>  (754) 
NIZYMUFFLXPKCU-UHFFFAOYSA-N

>  <tags>  (754) 
BulkDock Fragalysis export,openbind_d68ev3c_c2_elabs_scored,openbind_d68ev3c_c2_elabs_scored_4.5plus,openbind_d68ev3c_c2_elabs,openbind_d68ev3c_c2_elabs_scored_5plus,syndirella_product,openbind_d68ev3c_c2_elabs_scored_top80percent,syndirella_placed

>  <smiles>  (754) 
CCS(=O)(=O)N1CCc2c(cccc2NC(=O)Cc2nn(C(C)C)cc2Br)C1

>  <subsites>  (754) 
None

>  <rmsd(smina/fragmenstein)>  (754) 
2.428

>  <alias>  (754) 
None

>  <energy_score>  (754) 
-51.854982

>  <HIPPO Pose ID>  (754) 
85971

>  <distance_score>  (754) 
1.571667

>  <HIPPO Compound ID>  (754) 
119587

>  <gnina_score_min>  (754) 
5.065

>  <name>  (754) 
P85971

>  <exports>  (754) 
['/opt/xchem-fragalysis-2/maxwin/BulkDock/OUTPUTS/openbind_d68ev3c_c2_elabs_1LOTQJ3.sdf', '/opt/xchem-fragalysis-2/maxwin/BulkDock/OUTPUTS/openbind_d68ev3c_c2_elabs_1LSYEHW.sdf', '/opt/xchem-fragalysis-2/maxwin/BulkDock/OUTPUTS/openbind_d68ev3c_c2_elabs_1LSYI5W.sdf']

$$$$
P85986
     RDKit          3D

 28 31  0  0  0  0  0  0  0  0999 V2000
   12.1380   -3.9142   12.4221 C   0  0  0  0  0  0  0  0  0  0  0  0
   11.7909   -3.1937   13.6824 C   0  0  0  0  0  0  0  0  0  0  0  0
   12.2558   -1.8141   13.8727 N   0  0  0  0  0  0  0  0  0  0  0  0
   13.6718   -1.5315   13.5091 C   0  0  0  0  0  0  0  0  0  0  0  0
   14.5815   -0.9379   14.6319 C   0  0  0  0  0  0  0  0  0  0  0  0
   14.4386   -1.7917   15.8722 C   0  0  0  0  0  0  0  0  0  0  0  0
   13.1266   -2.2334   16.1150 C   0  0  0  0  0  0  0  0  0  0  0  0
   12.8890   -3.2647   17.0208 C   0  0  0  0  0  0  0  0  0  0  0  0
   13.9277   -3.7371   17.8109 C   0  0  0  0  0  0  0  0  0  0  0  0
   15.1986   -3.1698   17.6978 C   0  0  0  0  0  0  0  0  0  0  0  0
   15.4627   -2.1910   16.7342 C   0  0  0  0  0  0  0  0  0  0  0  0
   16.7106   -1.5778   16.6699 N   0  0  0  0  0  0  0  0  0  0  0  0
   18.0407   -1.9026   17.4250 C   0  0  0  0  0  0  0  0  0  0  0  0
   18.2626   -2.6838   18.2683 O   0  0  0  0  0  0  0  0  0  0  0  0
   19.0932   -0.9257   16.8923 C   0  0  0  0  0  0  0  0  0  0  0  0
   19.4447   -1.1841   15.4608 C   0  0  0  0  0  0  0  0  0  0  0  0
   19.4546   -2.3692   14.8320 C   0  0  0  0  0  0  0  0  0  0  0  0
   19.7184   -2.0696   13.4057 C   0  0  0  0  0  0  0  0  0  0  0  0
   19.7251   -2.9349   12.5486 O   0  0  0  0  0  0  0  0  0  0  0  0
   19.8832   -0.6873   13.3242 N   0  0  0  0  0  0  0  0  0  0  0  0
   20.1560    0.1232   12.2020 C   0  0  0  0  0  0  0  0  0  0  0  0
   20.4209    1.4944   12.3521 C   0  0  0  0  0  0  0  0  0  0  0  0
   20.6785    2.3046   11.2413 C   0  0  0  0  0  0  0  0  0  0  0  0
   20.6774    1.7559    9.9627 C   0  0  0  0  0  0  0  0  0  0  0  0
   20.4252    0.3977    9.7960 C   0  0  0  0  0  0  0  0  0  0  0  0
   20.1691   -0.4123   10.9076 C   0  0  0  0  0  0  0  0  0  0  0  0
   19.7608   -0.1337   14.6083 N   0  0  0  0  0  0  0  0  0  0  0  0
   12.0406   -1.5648   15.2990 C   0  0  0  0  0  0  0  0  0  0  0  0
  1  2  1  0
  2  3  1  0
  3  4  1  0
  4  5  1  0
  5  6  1  0
  6  7  2  0
  7  8  1  0
  8  9  2  0
  9 10  1  0
 10 11  2  0
 11 12  1  0
 12 13  1  0
 13 14  2  0
 13 15  1  0
 15 16  1  0
 16 17  2  0
 17 18  1  0
 18 19  2  0
 18 20  1  0
 20 21  1  0
 21 22  2  0
 22 23  1  0
 23 24  2  0
 24 25  1  0
 25 26  2  0
 20 27  1  0
  7 28  1  0
 28  3  1  0
 11  6  1  0
 27 16  1  0
 26 21  1  0
M  END
>  <ref_mols>  (755) 
B0693a

>  <gnina_score>  (755) 
5.323

>  <smina_score_min>  (755) 
-3.461

>  <ref_pdb>  (755) 
B0693a

>  <inspiration_score>  (755) 
None

>  <inchikey>  (755) 
VMOAYBSXJAPLMV-UHFFFAOYSA-N

>  <tags>  (755) 
BulkDock Fragalysis export,openbind_d68ev3c_c2_elabs_scored,openbind_d68ev3c_c2_elabs_scored_4.5plus,openbind_d68ev3c_c2_elabs,openbind_d68ev3c_c2_elabs_scored_5plus,syndirella_product,openbind_d68ev3c_c2_elabs_scored_top80percent,syndirella_placed

>  <smiles>  (755) 
CCN1CCc2c(cccc2NC(=O)Cc2cc(=O)n(-c3ccccc3)[nH]2)C1

>  <subsites>  (755) 
None

>  <rmsd(smina/fragmenstein)>  (755) 
2.025

>  <alias>  (755) 
None

>  <energy_score>  (755) 
-39.884737

>  <HIPPO Pose ID>  (755) 
85986

>  <distance_score>  (755) 
0.692975

>  <HIPPO Compound ID>  (755) 
119615

>  <gnina_score_min>  (755) 
5.097

>  <name>  (755) 
P85986

>  <exports>  (755) 
['/opt/xchem-fragalysis-2/maxwin/BulkDock/OUTPUTS/openbind_d68ev3c_c2_elabs_1LOTQJ3.sdf', '/opt/xchem-fragalysis-2/maxwin/BulkDock/OUTPUTS/openbind_d68ev3c_c2_elabs_1LSYEHW.sdf', '/opt/xchem-fragalysis-2/maxwin/BulkDock/OUTPUTS/openbind_d68ev3c_c2_elabs_1LSYI5W.sdf']

$$$$
P85987
     RDKit          3D

 28 31  0  0  0  0  0  0  0  0999 V2000
   17.8152   -3.2757   18.2986 O   0  0  0  0  0  0  0  0  0  0  0  0
   17.7196   -2.4305   17.4930 C   0  0  0  0  0  0  0  0  0  0  0  0
   16.5191   -2.0395   16.5756 N   0  0  0  0  0  0  0  0  0  0  0  0
   15.2133   -2.5302   16.5342 C   0  0  0  0  0  0  0  0  0  0  0  0
   14.7984   -3.5116   17.4338 C   0  0  0  0  0  0  0  0  0  0  0  0
   13.4897   -3.9877   17.4026 C   0  0  0  0  0  0  0  0  0  0  0  0
   12.5804   -3.4785   16.4804 C   0  0  0  0  0  0  0  0  0  0  0  0
   12.9600   -2.4647   15.5957 C   0  0  0  0  0  0  0  0  0  0  0  0
   14.2998   -2.0106   15.5941 C   0  0  0  0  0  0  0  0  0  0  0  0
   14.7034   -0.9179   14.6249 C   0  0  0  0  0  0  0  0  0  0  0  0
   13.6109   -0.5301   13.6214 C   0  0  0  0  0  0  0  0  0  0  0  0
   12.3135   -0.4840   14.3083 N   0  0  0  0  0  0  0  0  0  0  0  0
   11.2779    0.2275   13.5357 C   0  0  0  0  0  0  0  0  0  0  0  0
   11.3336    1.7685   13.4921 C   0  0  0  0  0  0  0  0  0  0  0  0
   11.0087    2.3223   14.6803 F   0  0  0  0  0  0  0  0  0  0  0  0
   10.4243    2.2300   12.5854 F   0  0  0  0  0  0  0  0  0  0  0  0
   12.5315    2.2515   13.1049 F   0  0  0  0  0  0  0  0  0  0  0  0
   11.9334   -1.8610   14.6563 C   0  0  0  0  0  0  0  0  0  0  0  0
   18.8923   -1.4632   17.2084 C   0  0  2  0  0  0  0  0  0  0  0  0
   18.6578   -0.0579   17.8163 C   0  0  0  0  0  0  0  0  0  0  0  0
   18.0306    0.9790   16.8584 C   0  0  0  0  0  0  0  0  0  0  0  0
   18.7925    1.1176   15.5253 C   0  0  0  0  0  0  0  0  0  0  0  0
   19.1399   -0.2175   14.9733 C   0  0  0  0  0  0  0  0  0  0  0  0
   19.4894   -0.6671   13.6865 C   0  0  0  0  0  0  0  0  0  0  0  0
   19.6125    0.5120   11.9873 I   0  0  0  0  0  0  0  0  0  0  0  0
   19.7214   -1.9826   13.6553 N   0  0  0  0  0  0  0  0  0  0  0  0
   19.5735   -2.3765   14.9319 N   0  0  0  0  0  0  0  0  0  0  0  0
   19.1925   -1.3548   15.7510 C   0  0  0  0  0  0  0  0  0  0  0  0
  1  2  2  0
  2  3  1  0
  3  4  1  0
  4  5  2  0
  5  6  1  0
  6  7  2  0
  7  8  1  0
  8  9  2  0
  9 10  1  0
 10 11  1  0
 11 12  1  0
 12 13  1  0
 13 14  1  0
 14 15  1  0
 14 16  1  0
 14 17  1  0
 12 18  1  0
 19  2  1  6
 19 20  1  0
 20 21  1  0
 21 22  1  0
 22 23  1  0
 23 24  1  0
 24 25  1  0
 24 26  2  0
 26 27  1  0
 27 28  1  0
  9  4  1  0
 28 19  1  0
 18  8  1  0
 28 23  2  0
M  END
>  <ref_mols>  (756) 
B0693a

>  <gnina_score>  (756) 
5.156

>  <smina_score_min>  (756) 
-4.665

>  <ref_pdb>  (756) 
B0693a

>  <inspiration_score>  (756) 
None

>  <inchikey>  (756) 
MSIIHMICTNAPEI-CQSZACIVSA-N

>  <tags>  (756) 
BulkDock Fragalysis export,openbind_d68ev3c_c2_elabs_scored,openbind_d68ev3c_c2_elabs_scored_4.5plus,openbind_d68ev3c_c2_elabs,openbind_d68ev3c_c2_elabs_scored_5plus,syndirella_product,openbind_d68ev3c_c2_elabs_scored_top80percent,syndirella_placed

>  <smiles>  (756) 
O=C(Nc1cccc2c1CCN(CC(F)(F)F)C2)[C@@H]1CCCc2c(I)n[nH]c21

>  <subsites>  (756) 
None

>  <rmsd(smina/fragmenstein)>  (756) 
1.71

>  <alias>  (756) 
None

>  <energy_score>  (756) 
-43.878455

>  <HIPPO Pose ID>  (756) 
85987

>  <distance_score>  (756) 
0.587414

>  <HIPPO Compound ID>  (756) 
119618

>  <gnina_score_min>  (756) 
5.165

>  <name>  (756) 
P85987

>  <exports>  (756) 
['/opt/xchem-fragalysis-2/maxwin/BulkDock/OUTPUTS/openbind_d68ev3c_c2_elabs_1LOTQJ3.sdf', '/opt/xchem-fragalysis-2/maxwin/BulkDock/OUTPUTS/openbind_d68ev3c_c2_elabs_1LSYEHW.sdf', '/opt/xchem-fragalysis-2/maxwin/BulkDock/OUTPUTS/openbind_d68ev3c_c2_elabs_1LSYI5W.sdf']

$$$$
P85989
     RDKit          3D

 28 31  0  0  0  0  0  0  0  0999 V2000
   11.3059    2.5581   12.9531 C   0  0  0  0  0  0  0  0  0  0  0  0
   11.2909    1.0519   12.7632 C   0  0  0  0  0  0  0  0  0  0  0  0
   11.8931    0.2064   14.2053 S   0  0  0  0  0  0  0  0  0  0  0  0
   10.7928    0.1234   15.1449 O   0  0  0  0  0  0  0  0  0  0  0  0
   13.1514    0.8269   14.5390 O   0  0  0  0  0  0  0  0  0  0  0  0
   12.2286   -1.3460   13.5950 N   0  0  0  0  0  0  0  0  0  0  0  0
   13.5960   -1.5379   13.0331 C   0  0  0  0  0  0  0  0  0  0  0  0
   14.6696   -1.5427   14.1270 C   0  0  0  0  0  0  0  0  0  0  0  0
   14.2507   -2.2211   15.4177 C   0  0  0  0  0  0  0  0  0  0  0  0
   12.9486   -2.7486   15.5382 C   0  0  0  0  0  0  0  0  0  0  0  0
   12.6440   -3.5636   16.6335 C   0  0  0  0  0  0  0  0  0  0  0  0
   13.5849   -3.7920   17.6353 C   0  0  0  0  0  0  0  0  0  0  0  0
   14.8359   -3.1815   17.5717 C   0  0  0  0  0  0  0  0  0  0  0  0
   15.1626   -2.3762   16.4827 C   0  0  0  0  0  0  0  0  0  0  0  0
   16.3583   -1.6601   16.4457 N   0  0  0  0  0  0  0  0  0  0  0  0
   17.5577   -1.6302   17.4550 C   0  0  0  0  0  0  0  0  0  0  0  0
   17.7495   -2.2599   18.4232 O   0  0  0  0  0  0  0  0  0  0  0  0
   18.4997   -0.5459   16.9086 C   0  0  1  0  0  0  0  0  0  0  0  0
   19.6071   -0.1091   17.8885 C   0  0  0  0  0  0  0  0  0  0  0  0
   20.5053    0.9687   17.2355 C   0  0  0  0  0  0  0  0  0  0  0  0
   21.1988    0.5017   15.9336 C   0  0  0  0  0  0  0  0  0  0  0  0
   20.3491   -0.4393   15.1512 C   0  0  0  0  0  0  0  0  0  0  0  0
   20.5123   -1.0618   13.8990 C   0  0  0  0  0  0  0  0  0  0  0  0
   22.0766   -0.7292   12.5817 I   0  0  0  0  0  0  0  0  0  0  0  0
   19.5417   -1.9449   13.6425 N   0  0  0  0  0  0  0  0  0  0  0  0
   18.7928   -1.9318   14.7558 N   0  0  0  0  0  0  0  0  0  0  0  0
   19.1671   -0.9590   15.6341 C   0  0  0  0  0  0  0  0  0  0  0  0
   11.8945   -2.4858   14.4865 C   0  0  0  0  0  0  0  0  0  0  0  0
  1  2  1  0
  2  3  1  0
  3  4  2  0
  3  5  2  0
  3  6  1  0
  6  7  1  0
  7  8  1  0
  8  9  1  0
  9 10  2  0
 10 11  1  0
 11 12  2  0
 12 13  1  0
 13 14  2  0
 14 15  1  0
 15 16  1  0
 16 17  2  0
 18 16  1  1
 18 19  1  0
 19 20  1  0
 20 21  1  0
 21 22  1  0
 22 23  1  0
 23 24  1  0
 23 25  2  0
 25 26  1  0
 26 27  1  0
 10 28  1  0
 28  6  1  0
 14  9  1  0
 27 18  1  0
 27 22  2  0
M  END
>  <ref_mols>  (757) 
B0693a

>  <gnina_score>  (757) 
5.318

>  <smina_score_min>  (757) 
-4.518

>  <ref_pdb>  (757) 
B0693a

>  <inspiration_score>  (757) 
None

>  <inchikey>  (757) 
PBSSRPNGPYFLCH-HNNXBMFYSA-N

>  <tags>  (757) 
BulkDock Fragalysis export,openbind_d68ev3c_c2_elabs_scored,openbind_d68ev3c_c2_elabs_scored_4.5plus,openbind_d68ev3c_c2_elabs,openbind_d68ev3c_c2_elabs_scored_5plus,syndirella_product,openbind_d68ev3c_c2_elabs_scored_top80percent,syndirella_placed

>  <smiles>  (757) 
CCS(=O)(=O)N1CCc2c(cccc2NC(=O)[C@H]2CCCc3c(I)n[nH]c32)C1

>  <subsites>  (757) 
None

>  <rmsd(smina/fragmenstein)>  (757) 
1.701

>  <alias>  (757) 
None

>  <energy_score>  (757) 
-54.059648

>  <HIPPO Pose ID>  (757) 
85989

>  <distance_score>  (757) 
0.534563

>  <HIPPO Compound ID>  (757) 
119620

>  <gnina_score_min>  (757) 
5.026

>  <name>  (757) 
P85989

>  <exports>  (757) 
['/opt/xchem-fragalysis-2/maxwin/BulkDock/OUTPUTS/openbind_d68ev3c_c2_elabs_1LOTQJ3.sdf', '/opt/xchem-fragalysis-2/maxwin/BulkDock/OUTPUTS/openbind_d68ev3c_c2_elabs_1LSYEHW.sdf', '/opt/xchem-fragalysis-2/maxwin/BulkDock/OUTPUTS/openbind_d68ev3c_c2_elabs_1LSYI5W.sdf']

$$$$
P86002
     RDKit          3D

 28 31  0  0  0  0  0  0  0  0999 V2000
   18.4253    1.1347   14.6063 C   0  0  0  0  0  0  0  0  0  0  0  0
   18.9709   -0.2012   14.5917 N   0  0  0  0  0  0  0  0  0  0  0  0
   19.3964   -0.7127   13.4213 N   0  0  0  0  0  0  0  0  0  0  0  0
   19.8266   -1.9312   13.7487 C   0  0  0  0  0  0  0  0  0  0  0  0
   20.5487   -3.1431   12.5104 Br  0  0  0  0  0  0  0  0  0  0  0  0
   19.6604   -2.2228   15.1102 C   0  0  0  0  0  0  0  0  0  0  0  0
   19.0927   -1.0811   15.6322 C   0  0  0  0  0  0  0  0  0  0  0  0
   18.6740   -0.9009   17.1342 C   0  0  0  0  0  0  0  0  0  0  0  0
   17.5028   -1.7683   17.5798 C   0  0  0  0  0  0  0  0  0  0  0  0
   17.5846   -2.3499   18.5886 O   0  0  0  0  0  0  0  0  0  0  0  0
   16.3299   -1.6606   16.5770 N   0  0  0  0  0  0  0  0  0  0  0  0
   15.0890   -2.3013   16.5604 C   0  0  0  0  0  0  0  0  0  0  0  0
   14.7470   -3.1827   17.5892 C   0  0  0  0  0  0  0  0  0  0  0  0
   13.5083   -3.8169   17.5965 C   0  0  0  0  0  0  0  0  0  0  0  0
   12.5960   -3.5687   16.5783 C   0  0  0  0  0  0  0  0  0  0  0  0
   12.9050   -2.6797   15.5424 C   0  0  0  0  0  0  0  0  0  0  0  0
   14.1755   -2.0592   15.5127 C   0  0  0  0  0  0  0  0  0  0  0  0
   14.5078   -1.1248   14.3678 C   0  0  0  0  0  0  0  0  0  0  0  0
   13.4671   -1.1350   13.2345 C   0  0  0  0  0  0  0  0  0  0  0  0
   12.0648   -1.2260   13.6850 N   0  0  0  0  0  0  0  0  0  0  0  0
   11.6528   -0.0164   14.4499 C   0  0  0  0  0  0  0  0  0  0  0  0
   10.2617    0.0767   15.1190 C   0  0  0  0  0  0  0  0  0  0  0  0
   10.1342    1.2795   15.7369 F   0  0  0  0  0  0  0  0  0  0  0  0
    9.2416   -0.0139   14.2473 F   0  0  0  0  0  0  0  0  0  0  0  0
   10.0730   -0.8625   16.0798 F   0  0  0  0  0  0  0  0  0  0  0  0
   11.9008   -2.4834   14.4272 C   0  0  0  0  0  0  0  0  0  0  0  0
   19.8332   -0.6947   18.1038 C   0  0  0  0  0  0  0  0  0  0  0  0
   18.8897    0.4321   17.8260 C   0  0  0  0  0  0  0  0  0  0  0  0
  1  2  1  0
  2  3  1  0
  3  4  2  0
  4  5  1  0
  4  6  1  0
  6  7  2  0
  7  8  1  0
  8  9  1  0
  9 10  2  0
  9 11  1  0
 11 12  1  0
 12 13  2  0
 13 14  1  0
 14 15  2  0
 15 16  1  0
 16 17  2  0
 17 18  1  0
 18 19  1  0
 19 20  1  0
 20 21  1  0
 21 22  1  0
 22 23  1  0
 22 24  1  0
 22 25  1  0
 20 26  1  0
  8 27  1  0
 27 28  1  0
  7  2  1  0
 28  8  1  0
 17 12  1  0
 26 16  1  0
M  END
>  <ref_mols>  (758) 
B0693a

>  <gnina_score>  (758) 
5.233

>  <smina_score_min>  (758) 
-4.702

>  <ref_pdb>  (758) 
B0693a

>  <inspiration_score>  (758) 
None

>  <inchikey>  (758) 
QQUDVCZOWVZQHV-UHFFFAOYSA-N

>  <tags>  (758) 
BulkDock Fragalysis export,openbind_d68ev3c_c2_elabs_scored,openbind_d68ev3c_c2_elabs_scored_4.5plus,openbind_d68ev3c_c2_elabs,openbind_d68ev3c_c2_elabs_scored_5plus,syndirella_product,openbind_d68ev3c_c2_elabs_scored_top80percent,syndirella_placed

>  <smiles>  (758) 
Cn1nc(Br)cc1C1(C(=O)Nc2cccc3c2CCN(CC(F)(F)F)C3)CC1

>  <subsites>  (758) 
None

>  <rmsd(smina/fragmenstein)>  (758) 
1.593

>  <alias>  (758) 
None

>  <energy_score>  (758) 
-56.450051

>  <HIPPO Pose ID>  (758) 
86002

>  <distance_score>  (758) 
0.377841

>  <HIPPO Compound ID>  (758) 
119644

>  <gnina_score_min>  (758) 
5.103

>  <name>  (758) 
P86002

>  <exports>  (758) 
['/opt/xchem-fragalysis-2/maxwin/BulkDock/OUTPUTS/openbind_d68ev3c_c2_elabs_1LOTQJ3.sdf', '/opt/xchem-fragalysis-2/maxwin/BulkDock/OUTPUTS/openbind_d68ev3c_c2_elabs_1LSYEHW.sdf', '/opt/xchem-fragalysis-2/maxwin/BulkDock/OUTPUTS/openbind_d68ev3c_c2_elabs_1LSYI5W.sdf']

$$$$
P86032
     RDKit          3D

 28 30  0  0  0  0  0  0  0  0999 V2000
   20.9487   -2.4930   11.4668 C   0  0  0  0  0  0  0  0  0  0  0  0
   19.5835   -2.3027   12.1096 C   0  0  0  0  0  0  0  0  0  0  0  0
   19.6787   -1.7354   13.4874 C   0  0  0  0  0  0  0  0  0  0  0  0
   19.5650   -0.4143   13.6791 N   0  0  0  0  0  0  0  0  0  0  0  0
   19.7625   -0.2504   14.9982 N   0  0  0  0  0  0  0  0  0  0  0  0
   19.8073    1.0917   15.5343 C   0  0  0  0  0  0  0  0  0  0  0  0
   19.8699   -1.4336   15.6854 C   0  0  0  0  0  0  0  0  0  0  0  0
   19.9761   -1.5325   17.1779 C   0  0  0  0  0  0  0  0  0  0  0  0
   18.9604   -2.5310   17.7518 C   0  0  0  0  0  0  0  0  0  0  0  0
   19.2685   -3.4216   18.4471 O   0  0  0  0  0  0  0  0  0  0  0  0
   17.5553   -2.1041   17.2160 N   0  0  0  0  0  0  0  0  0  0  0  0
   16.3112   -2.7205   17.3469 C   0  0  0  0  0  0  0  0  0  0  0  0
   16.1733   -3.8617   18.1379 C   0  0  0  0  0  0  0  0  0  0  0  0
   14.9476   -4.5097   18.2583 C   0  0  0  0  0  0  0  0  0  0  0  0
   13.8473   -4.0250   17.5796 C   0  0  0  0  0  0  0  0  0  0  0  0
   13.9681   -2.8765   16.7868 C   0  0  0  0  0  0  0  0  0  0  0  0
   15.1960   -2.2082   16.6608 C   0  0  0  0  0  0  0  0  0  0  0  0
   15.2375   -0.9002   15.9116 C   0  0  0  0  0  0  0  0  0  0  0  0
   14.1931   -0.7713   14.8215 C   0  0  0  0  0  0  0  0  0  0  0  0
   12.8439   -1.2190   15.2379 N   0  0  0  0  0  0  0  0  0  0  0  0
   11.7626   -1.4234   13.9504 S   0  0  0  0  0  0  0  0  0  0  0  0
   11.7830   -0.2249   13.1435 O   0  0  0  0  0  0  0  0  0  0  0  0
   10.5556   -1.9212   14.5768 O   0  0  0  0  0  0  0  0  0  0  0  0
   12.6820   -2.7379   13.1131 C   0  0  0  0  0  0  0  0  0  0  0  0
   11.8429   -3.8985   12.7071 C   0  0  0  0  0  0  0  0  0  0  0  0
   12.7253   -2.3879   16.1368 C   0  0  0  0  0  0  0  0  0  0  0  0
   19.8656   -2.4144   14.7127 C   0  0  0  0  0  0  0  0  0  0  0  0
   20.0217   -4.0906   14.9138 Cl  0  0  0  0  0  0  0  0  0  0  0  0
  1  2  1  0
  2  3  1  0
  3  4  2  0
  4  5  1  0
  5  6  1  0
  5  7  1  0
  7  8  1  0
  8  9  1  0
  9 10  2  0
  9 11  1  0
 11 12  1  0
 12 13  2  0
 13 14  1  0
 14 15  2  0
 15 16  1  0
 16 17  2  0
 17 18  1  0
 18 19  1  0
 19 20  1  0
 20 21  1  0
 21 22  2  0
 21 23  2  0
 21 24  1  0
 24 25  1  0
 20 26  1  0
  7 27  2  0
 27 28  1  0
 27  3  1  0
 17 12  1  0
 26 16  1  0
M  END
>  <ref_mols>  (759) 
B0693a

>  <gnina_score>  (759) 
5.379

>  <smina_score_min>  (759) 
-3.058

>  <ref_pdb>  (759) 
B0693a

>  <inspiration_score>  (759) 
None

>  <inchikey>  (759) 
PPCGPBZPTNNCOM-UHFFFAOYSA-N

>  <tags>  (759) 
BulkDock Fragalysis export,openbind_d68ev3c_c2_elabs_scored,openbind_d68ev3c_c2_elabs_scored_4.5plus,openbind_d68ev3c_c2_elabs,openbind_d68ev3c_c2_elabs_scored_5plus,syndirella_product,openbind_d68ev3c_c2_elabs_scored_top80percent,syndirella_placed

>  <smiles>  (759) 
CCc1nn(C)c(CC(=O)Nc2cccc3c2CCN(S(=O)(=O)CC)C3)c1Cl

>  <subsites>  (759) 
None

>  <rmsd(smina/fragmenstein)>  (759) 
2.565

>  <alias>  (759) 
None

>  <energy_score>  (759) 
-42.702824

>  <HIPPO Pose ID>  (759) 
86032

>  <distance_score>  (759) 
1.570229

>  <HIPPO Compound ID>  (759) 
119710

>  <gnina_score_min>  (759) 
5.326

>  <name>  (759) 
P86032

>  <exports>  (759) 
['/opt/xchem-fragalysis-2/maxwin/BulkDock/OUTPUTS/openbind_d68ev3c_c2_elabs_1LOTQJ3.sdf', '/opt/xchem-fragalysis-2/maxwin/BulkDock/OUTPUTS/openbind_d68ev3c_c2_elabs_1LSYEHW.sdf', '/opt/xchem-fragalysis-2/maxwin/BulkDock/OUTPUTS/openbind_d68ev3c_c2_elabs_1LSYI5W.sdf']

$$$$
P86053
     RDKit          3D

 29 32  0  0  0  0  0  0  0  0999 V2000
   10.3951    0.2932   14.5848 C   0  0  0  0  0  0  0  0  0  0  0  0
   11.8764    0.0605   14.3198 C   0  0  0  0  0  0  0  0  0  0  0  0
   12.1699   -1.2018   13.6233 N   0  0  0  0  0  0  0  0  0  0  0  0
   13.5711   -1.2424   13.1676 C   0  0  0  0  0  0  0  0  0  0  0  0
   14.5943   -1.1851   14.3097 C   0  0  0  0  0  0  0  0  0  0  0  0
   14.2327   -2.0716   15.4834 C   0  0  0  0  0  0  0  0  0  0  0  0
   12.9440   -2.6480   15.5332 C   0  0  0  0  0  0  0  0  0  0  0  0
   12.6271   -3.5278   16.5751 C   0  0  0  0  0  0  0  0  0  0  0  0
   13.5485   -3.7978   17.5824 C   0  0  0  0  0  0  0  0  0  0  0  0
   14.8021   -3.1908   17.5623 C   0  0  0  0  0  0  0  0  0  0  0  0
   15.1474   -2.3213   16.5269 C   0  0  0  0  0  0  0  0  0  0  0  0
   16.3931   -1.6924   16.5121 N   0  0  0  0  0  0  0  0  0  0  0  0
   17.5718   -1.7522   17.5368 C   0  0  0  0  0  0  0  0  0  0  0  0
   17.7027   -2.3973   18.5048 O   0  0  0  0  0  0  0  0  0  0  0  0
   18.6289   -0.7546   17.0426 C   0  0  0  0  0  0  0  0  0  0  0  0
   19.2069   -1.0965   15.7006 C   0  0  0  0  0  0  0  0  0  0  0  0
   19.2984   -2.3107   15.1358 C   0  0  0  0  0  0  0  0  0  0  0  0
   19.7987   -2.0850   13.7591 C   0  0  0  0  0  0  0  0  0  0  0  0
   19.9348   -2.9899   12.9555 O   0  0  0  0  0  0  0  0  0  0  0  0
   20.0014   -0.7102   13.6417 N   0  0  0  0  0  0  0  0  0  0  0  0
   20.4978    0.0376   12.5534 C   0  0  0  0  0  0  0  0  0  0  0  0
   20.7336   -0.5642   11.3078 C   0  0  0  0  0  0  0  0  0  0  0  0
   21.2147    0.1837   10.2276 C   0  0  0  0  0  0  0  0  0  0  0  0
   21.4678    1.5379   10.3887 C   0  0  0  0  0  0  0  0  0  0  0  0
   21.9282    2.2546    9.3557 F   0  0  0  0  0  0  0  0  0  0  0  0
   21.2522    2.1586   11.6108 C   0  0  0  0  0  0  0  0  0  0  0  0
   20.7697    1.4108   12.6898 C   0  0  0  0  0  0  0  0  0  0  0  0
   19.6789   -0.0930   14.8609 N   0  0  0  0  0  0  0  0  0  0  0  0
   11.9234   -2.4051   14.4380 C   0  0  0  0  0  0  0  0  0  0  0  0
  1  2  1  0
  2  3  1  0
  3  4  1  0
  4  5  1  0
  5  6  1  0
  6  7  2  0
  7  8  1  0
  8  9  2  0
  9 10  1  0
 10 11  2  0
 11 12  1  0
 12 13  1  0
 13 14  2  0
 13 15  1  0
 15 16  1  0
 16 17  2  0
 17 18  1  0
 18 19  2  0
 18 20  1  0
 20 21  1  0
 21 22  2  0
 22 23  1  0
 23 24  2  0
 24 25  1  0
 24 26  1  0
 26 27  2  0
 20 28  1  0
  7 29  1  0
 29  3  1  0
 11  6  1  0
 28 16  1  0
 27 21  1  0
M  END
>  <ref_mols>  (760) 
B0693a

>  <gnina_score>  (760) 
5.132

>  <smina_score_min>  (760) 
-4.201

>  <ref_pdb>  (760) 
B0693a

>  <inspiration_score>  (760) 
None

>  <inchikey>  (760) 
BJOHSKZSQBAMOO-UHFFFAOYSA-N

>  <tags>  (760) 
BulkDock Fragalysis export,openbind_d68ev3c_c2_elabs_scored,openbind_d68ev3c_c2_elabs_scored_4.5plus,openbind_d68ev3c_c2_elabs,openbind_d68ev3c_c2_elabs_scored_5plus,syndirella_product,openbind_d68ev3c_c2_elabs_scored_top80percent,syndirella_placed

>  <smiles>  (760) 
CCN1CCc2c(cccc2NC(=O)Cc2cc(=O)n(-c3ccc(F)cc3)[nH]2)C1

>  <subsites>  (760) 
None

>  <rmsd(smina/fragmenstein)>  (760) 
2.397

>  <alias>  (760) 
None

>  <energy_score>  (760) 
-47.079888

>  <HIPPO Pose ID>  (760) 
86053

>  <distance_score>  (760) 
0.361682

>  <HIPPO Compound ID>  (760) 
119747

>  <gnina_score_min>  (760) 
5.001

>  <name>  (760) 
P86053

>  <exports>  (760) 
['/opt/xchem-fragalysis-2/maxwin/BulkDock/OUTPUTS/openbind_d68ev3c_c2_elabs_1LOTQJ3.sdf', '/opt/xchem-fragalysis-2/maxwin/BulkDock/OUTPUTS/openbind_d68ev3c_c2_elabs_1LSYEHW.sdf', '/opt/xchem-fragalysis-2/maxwin/BulkDock/OUTPUTS/openbind_d68ev3c_c2_elabs_1LSYI5W.sdf']

$$$$
P86063
     RDKit          3D

 29 32  0  0  0  0  0  0  0  0999 V2000
   11.3273    0.1393   13.6051 C   0  0  0  0  0  0  0  0  0  0  0  0
   12.1750   -0.9795   13.9665 N   0  0  0  0  0  0  0  0  0  0  0  0
   13.5322   -1.0194   13.4485 C   0  0  0  0  0  0  0  0  0  0  0  0
   14.5432   -0.9081   14.5863 C   0  0  0  0  0  0  0  0  0  0  0  0
   14.2683   -1.9682   15.6273 C   0  0  0  0  0  0  0  0  0  0  0  0
   15.2431   -2.4232   16.5324 C   0  0  0  0  0  0  0  0  0  0  0  0
   16.4921   -1.8009   16.5874 N   0  0  0  0  0  0  0  0  0  0  0  0
   17.7812   -2.1818   17.3869 C   0  0  0  0  0  0  0  0  0  0  0  0
   17.9619   -3.0278   18.1755 O   0  0  0  0  0  0  0  0  0  0  0  0
   18.8555   -1.1609   16.9922 C   0  0  0  0  0  0  0  0  0  0  0  0
   19.3125   -1.3059   15.5730 C   0  0  0  0  0  0  0  0  0  0  0  0
   19.3207   -2.4254   14.8335 C   0  0  0  0  0  0  0  0  0  0  0  0
   19.7259   -2.0096   13.4703 C   0  0  0  0  0  0  0  0  0  0  0  0
   19.7652   -2.7876   12.5344 O   0  0  0  0  0  0  0  0  0  0  0  0
   19.9672   -0.6378   13.5389 N   0  0  0  0  0  0  0  0  0  0  0  0
   20.4113    0.2500   12.5364 C   0  0  0  0  0  0  0  0  0  0  0  0
   20.7350    1.5827   12.8487 C   0  0  0  0  0  0  0  0  0  0  0  0
   21.1652    2.4693   11.8561 C   0  0  0  0  0  0  0  0  0  0  0  0
   21.2771    2.0288   10.5452 C   0  0  0  0  0  0  0  0  0  0  0  0
   21.6869    2.8785    9.5952 F   0  0  0  0  0  0  0  0  0  0  0  0
   20.9721    0.7178   10.2101 C   0  0  0  0  0  0  0  0  0  0  0  0
   20.5430   -0.1691   11.2036 C   0  0  0  0  0  0  0  0  0  0  0  0
   19.7551   -0.2007   14.8555 N   0  0  0  0  0  0  0  0  0  0  0  0
   14.9316   -3.4484   17.4310 C   0  0  0  0  0  0  0  0  0  0  0  0
   13.6531   -4.0044   17.4630 C   0  0  0  0  0  0  0  0  0  0  0  0
   12.6616   -3.5106   16.6247 C   0  0  0  0  0  0  0  0  0  0  0  0
   12.9559   -2.4759   15.7368 C   0  0  0  0  0  0  0  0  0  0  0  0
   11.8334   -1.7635   15.0619 C   0  0  0  0  0  0  0  0  0  0  0  0
   10.7216   -1.7763   15.5845 O   0  0  0  0  0  0  0  0  0  0  0  0
  1  2  1  0
  2  3  1  0
  3  4  1  0
  4  5  1  0
  5  6  2  0
  6  7  1  0
  7  8  1  0
  8  9  2  0
  8 10  1  0
 10 11  1  0
 11 12  2  0
 12 13  1  0
 13 14  2  0
 13 15  1  0
 15 16  1  0
 16 17  2  0
 17 18  1  0
 18 19  2  0
 19 20  1  0
 19 21  1  0
 21 22  2  0
 15 23  1  0
  6 24  1  0
 24 25  2  0
 25 26  1  0
 26 27  2  0
 27 28  1  0
 28 29  2  0
 28  2  1  0
 27  5  1  0
 23 11  1  0
 22 16  1  0
M  END
>  <ref_mols>  (761) 
B0693a

>  <gnina_score>  (761) 
5.211

>  <smina_score_min>  (761) 
-4.649

>  <ref_pdb>  (761) 
B0693a

>  <inspiration_score>  (761) 
None

>  <inchikey>  (761) 
QAKGKHMGKQUHJN-UHFFFAOYSA-N

>  <tags>  (761) 
BulkDock Fragalysis export,openbind_d68ev3c_c2_elabs_scored,openbind_d68ev3c_c2_elabs_scored_4.5plus,openbind_d68ev3c_c2_elabs,openbind_d68ev3c_c2_elabs_scored_5plus,syndirella_product,openbind_d68ev3c_c2_elabs_scored_top80percent,syndirella_placed

>  <smiles>  (761) 
CN1CCc2c(NC(=O)Cc3cc(=O)n(-c4ccc(F)cc4)[nH]3)cccc2C1=O

>  <subsites>  (761) 
None

>  <rmsd(smina/fragmenstein)>  (761) 
2.52

>  <alias>  (761) 
None

>  <energy_score>  (761) 
-38.99627

>  <HIPPO Pose ID>  (761) 
86063

>  <distance_score>  (761) 
0.508863

>  <HIPPO Compound ID>  (761) 
119770

>  <gnina_score_min>  (761) 
5.035

>  <name>  (761) 
P86063

>  <exports>  (761) 
['/opt/xchem-fragalysis-2/maxwin/BulkDock/OUTPUTS/openbind_d68ev3c_c2_elabs_1LOTQJ3.sdf', '/opt/xchem-fragalysis-2/maxwin/BulkDock/OUTPUTS/openbind_d68ev3c_c2_elabs_1LSYEHW.sdf', '/opt/xchem-fragalysis-2/maxwin/BulkDock/OUTPUTS/openbind_d68ev3c_c2_elabs_1LSYI5W.sdf']

$$$$
P86068
     RDKit          3D

 29 32  0  0  0  0  0  0  0  0999 V2000
   12.4946    1.9369   13.8116 C   0  0  0  0  0  0  0  0  0  0  0  0
   11.3093    0.6344   13.5698 S   0  0  0  0  0  0  0  0  0  0  0  0
   10.8310    0.7854   12.2099 O   0  0  0  0  0  0  0  0  0  0  0  0
   10.3887    0.6837   14.6886 O   0  0  0  0  0  0  0  0  0  0  0  0
   12.2243   -0.7485   13.6930 N   0  0  0  0  0  0  0  0  0  0  0  0
   13.5475   -0.9228   13.0959 C   0  0  0  0  0  0  0  0  0  0  0  0
   14.5733   -0.9852   14.2331 C   0  0  0  0  0  0  0  0  0  0  0  0
   14.1718   -1.9393   15.3462 C   0  0  0  0  0  0  0  0  0  0  0  0
   12.8375   -2.4121   15.4101 C   0  0  0  0  0  0  0  0  0  0  0  0
   12.4914   -3.3664   16.3744 C   0  0  0  0  0  0  0  0  0  0  0  0
   13.4221   -3.7970   17.3140 C   0  0  0  0  0  0  0  0  0  0  0  0
   14.7154   -3.2814   17.2982 C   0  0  0  0  0  0  0  0  0  0  0  0
   15.0973   -2.3505   16.3284 C   0  0  0  0  0  0  0  0  0  0  0  0
   16.3884   -1.8178   16.3380 N   0  0  0  0  0  0  0  0  0  0  0  0
   17.5647   -2.0535   17.3131 C   0  0  0  0  0  0  0  0  0  0  0  0
   17.6641   -2.7873   18.2154 O   0  0  0  0  0  0  0  0  0  0  0  0
   18.6943   -1.1167   16.9848 C   0  0  0  0  0  0  0  0  0  0  0  0
   19.1868   -1.2477   15.5091 C   0  0  0  0  0  0  0  0  0  0  0  0
   20.0806   -2.2297   15.0528 C   0  0  0  0  0  0  0  0  0  0  0  0
   20.2117   -1.9782   13.7078 C   0  0  0  0  0  0  0  0  0  0  0  0
   19.4182   -0.8899   13.4295 N   0  0  0  0  0  0  0  0  0  0  0  0
   19.2152   -0.2769   12.1077 C   0  0  0  0  0  0  0  0  0  0  0  0
   19.4264    1.0649   12.1276 F   0  0  0  0  0  0  0  0  0  0  0  0
   20.0540   -0.7953   11.1713 F   0  0  0  0  0  0  0  0  0  0  0  0
   17.9464   -0.4798   11.6562 F   0  0  0  0  0  0  0  0  0  0  0  0
   18.7436   -0.4486   14.5330 N   0  0  0  0  0  0  0  0  0  0  0  0
   19.7080   -0.7269   18.0439 C   0  0  0  0  0  0  0  0  0  0  0  0
   18.6767    0.2691   17.6088 C   0  0  0  0  0  0  0  0  0  0  0  0
   11.7691   -1.9203   14.4483 C   0  0  0  0  0  0  0  0  0  0  0  0
  1  2  1  0
  2  3  2  0
  2  4  2  0
  2  5  1  0
  5  6  1  0
  6  7  1  0
  7  8  1  0
  8  9  2  0
  9 10  1  0
 10 11  2  0
 11 12  1  0
 12 13  2  0
 13 14  1  0
 14 15  1  0
 15 16  2  0
 15 17  1  0
 17 18  1  0
 18 19  1  0
 19 20  2  0
 20 21  1  0
 21 22  1  0
 22 23  1  0
 22 24  1  0
 22 25  1  0
 21 26  1  0
 17 27  1  0
 27 28  1  0
  9 29  1  0
 29  5  1  0
 13  8  1  0
 28 17  1  0
 26 18  2  0
M  END
>  <ref_mols>  (762) 
B0693a

>  <gnina_score>  (762) 
5.012

>  <smina_score_min>  (762) 
-4.881

>  <ref_pdb>  (762) 
B0693a

>  <inspiration_score>  (762) 
None

>  <inchikey>  (762) 
FTXDHUDHJOKSPK-UHFFFAOYSA-N

>  <tags>  (762) 
BulkDock Fragalysis export,openbind_d68ev3c_c2_elabs_scored,openbind_d68ev3c_c2_elabs_scored_4.5plus,openbind_d68ev3c_c2_elabs,openbind_d68ev3c_c2_elabs_scored_5plus,syndirella_product,openbind_d68ev3c_c2_elabs_scored_top80percent,syndirella_placed

>  <smiles>  (762) 
CS(=O)(=O)N1CCc2c(cccc2NC(=O)C2(c3ccn(C(F)(F)F)n3)CC2)C1

>  <subsites>  (762) 
None

>  <rmsd(smina/fragmenstein)>  (762) 
1.018

>  <alias>  (762) 
None

>  <energy_score>  (762) 
-61.398336

>  <HIPPO Pose ID>  (762) 
86068

>  <distance_score>  (762) 
0.473488

>  <HIPPO Compound ID>  (762) 
119778

>  <gnina_score_min>  (762) 
5.018

>  <name>  (762) 
P86068

>  <exports>  (762) 
['/opt/xchem-fragalysis-2/maxwin/BulkDock/OUTPUTS/openbind_d68ev3c_c2_elabs_1LOTQJ3.sdf', '/opt/xchem-fragalysis-2/maxwin/BulkDock/OUTPUTS/openbind_d68ev3c_c2_elabs_1LSYEHW.sdf', '/opt/xchem-fragalysis-2/maxwin/BulkDock/OUTPUTS/openbind_d68ev3c_c2_elabs_1LSYI5W.sdf']

$$$$
P86078
     RDKit          3D

 29 31  0  0  0  0  0  0  0  0999 V2000
   20.3666   -0.4303   13.5865 C   0  0  0  0  0  0  0  0  0  0  0  0
   20.3445   -1.3957   14.6597 N   0  0  0  0  0  0  0  0  0  0  0  0
   20.9835   -2.5981   14.6947 C   0  0  0  0  0  0  0  0  0  0  0  0
   20.7031   -3.1253   15.9280 C   0  0  0  0  0  0  0  0  0  0  0  0
   21.2897   -4.7610   16.6132 Br  0  0  0  0  0  0  0  0  0  0  0  0
   19.8792   -2.1870   16.5783 C   0  0  0  0  0  0  0  0  0  0  0  0
   19.2581   -2.2290   17.9386 C   0  0  0  0  0  0  0  0  0  0  0  0
   17.8139   -2.7468   17.9212 C   0  0  0  0  0  0  0  0  0  0  0  0
   17.4652   -3.5398   18.7523 O   0  0  0  0  0  0  0  0  0  0  0  0
   17.0725   -2.1046   16.8601 N   0  0  0  0  0  0  0  0  0  0  0  0
   15.7616   -2.2793   16.4267 C   0  0  0  0  0  0  0  0  0  0  0  0
   14.7993   -2.9115   17.2094 C   0  0  0  0  0  0  0  0  0  0  0  0
   13.4841   -3.0192   16.7459 C   0  0  0  0  0  0  0  0  0  0  0  0
   13.1239   -2.4721   15.5097 C   0  0  0  0  0  0  0  0  0  0  0  0
   11.4876   -2.6388   14.9941 Cl  0  0  0  0  0  0  0  0  0  0  0  0
   14.0883   -1.8556   14.6998 C   0  0  0  0  0  0  0  0  0  0  0  0
   15.4105   -1.8099   15.1539 C   0  0  0  0  0  0  0  0  0  0  0  0
   16.4094   -1.3305   14.1530 C   0  0  0  0  0  0  0  0  0  0  0  0
   15.7421   -1.3721   12.7738 C   0  0  0  0  0  0  0  0  0  0  0  0
   14.6779   -0.3526   12.5252 N   0  0  0  0  0  0  0  0  0  0  0  0
   14.4820    0.9291   13.0806 C   0  0  0  0  0  0  0  0  0  0  0  0
   15.0654    1.4942   13.9592 O   0  0  0  0  0  0  0  0  0  0  0  0
   13.4821    1.5073   12.3580 O   0  0  0  0  0  0  0  0  0  0  0  0
   13.1274    2.9010   12.5385 C   0  0  0  0  0  0  0  0  0  0  0  0
   12.5983    3.1742   13.9482 C   0  0  0  0  0  0  0  0  0  0  0  0
   11.9890    3.1331   11.5359 C   0  0  0  0  0  0  0  0  0  0  0  0
   14.2953    3.8240   12.1746 C   0  0  0  0  0  0  0  0  0  0  0  0
   13.8138   -1.3927   13.2728 C   0  0  0  0  0  0  0  0  0  0  0  0
   19.6141   -1.1443   15.7671 N   0  0  0  0  0  0  0  0  0  0  0  0
  1  2  1  0
  2  3  1  0
  3  4  2  0
  4  5  1  0
  4  6  1  0
  6  7  1  0
  7  8  1  0
  8  9  2  0
  8 10  1  0
 10 11  1  0
 11 12  2  0
 12 13  1  0
 13 14  2  0
 14 15  1  0
 14 16  1  0
 16 17  2  0
 17 18  1  0
 18 19  1  0
 19 20  1  0
 20 21  1  0
 21 22  2  0
 21 23  1  0
 23 24  1  0
 24 25  1  0
 24 26  1  0
 24 27  1  0
 20 28  1  0
  6 29  2  0
 29  2  1  0
 17 11  1  0
 28 16  1  0
M  END
>  <ref_mols>  (763) 
B0693a

>  <gnina_score>  (763) 
5.139

>  <smina_score_min>  (763) 
-4.246

>  <ref_pdb>  (763) 
B0693a

>  <inspiration_score>  (763) 
None

>  <inchikey>  (763) 
RYFOHJWDOKOWDN-UHFFFAOYSA-N

>  <tags>  (763) 
BulkDock Fragalysis export,openbind_d68ev3c_c2_elabs_scored,openbind_d68ev3c_c2_elabs_scored_4.5plus,openbind_d68ev3c_c2_elabs,openbind_d68ev3c_c2_elabs_scored_5plus,syndirella_product,openbind_d68ev3c_c2_elabs_scored_top80percent,syndirella_placed

>  <smiles>  (763) 
Cn1cc(Br)c(CC(=O)Nc2ccc(Cl)c3c2CCN(C(=O)OC(C)(C)C)C3)n1

>  <subsites>  (763) 
None

>  <rmsd(smina/fragmenstein)>  (763) 
2.553

>  <alias>  (763) 
None

>  <energy_score>  (763) 
-1.413348

>  <HIPPO Pose ID>  (763) 
86078

>  <distance_score>  (763) 
1.643897

>  <HIPPO Compound ID>  (763) 
119795

>  <gnina_score_min>  (763) 
5.025

>  <name>  (763) 
P86078

>  <exports>  (763) 
['/opt/xchem-fragalysis-2/maxwin/BulkDock/OUTPUTS/openbind_d68ev3c_c2_elabs_1LOTQJ3.sdf', '/opt/xchem-fragalysis-2/maxwin/BulkDock/OUTPUTS/openbind_d68ev3c_c2_elabs_1LSYEHW.sdf', '/opt/xchem-fragalysis-2/maxwin/BulkDock/OUTPUTS/openbind_d68ev3c_c2_elabs_1LSYI5W.sdf']

$$$$
P86081
     RDKit          3D

 29 33  0  0  0  0  0  0  0  0999 V2000
    9.1943    2.8296   16.5411 C   0  0  0  0  0  0  0  0  0  0  0  0
    9.9226    1.7782   15.7696 C   0  0  0  0  0  0  0  0  0  0  0  0
   10.8639    2.1112   14.8141 C   0  0  0  0  0  0  0  0  0  0  0  0
   11.5343    1.0907   14.1362 C   0  0  0  0  0  0  0  0  0  0  0  0
   11.2830   -0.2435   14.4353 C   0  0  0  0  0  0  0  0  0  0  0  0
   11.9727   -1.2907   13.8082 N   0  0  0  0  0  0  0  0  0  0  0  0
   13.3392   -1.0935   13.3089 C   0  0  0  0  0  0  0  0  0  0  0  0
   14.3447   -1.0217   14.4610 C   0  0  0  0  0  0  0  0  0  0  0  0
   14.0997   -2.0525   15.5464 C   0  0  0  0  0  0  0  0  0  0  0  0
   12.8633   -2.7467   15.5783 C   0  0  0  0  0  0  0  0  0  0  0  0
   12.6142   -3.6616   16.6082 C   0  0  0  0  0  0  0  0  0  0  0  0
   13.5585   -3.8868   17.6025 C   0  0  0  0  0  0  0  0  0  0  0  0
   14.7747   -3.2107   17.5726 C   0  0  0  0  0  0  0  0  0  0  0  0
   15.0541   -2.2929   16.5570 C   0  0  0  0  0  0  0  0  0  0  0  0
   16.2773   -1.6192   16.5465 N   0  0  0  0  0  0  0  0  0  0  0  0
   17.5079   -1.7418   17.4939 C   0  0  0  0  0  0  0  0  0  0  0  0
   17.7134   -2.4819   18.3814 O   0  0  0  0  0  0  0  0  0  0  0  0
   18.5612   -0.6456   17.0525 C   0  0  0  0  0  0  0  0  0  0  0  0
   19.0856   -0.9827   15.5991 C   0  0  0  0  0  0  0  0  0  0  0  0
   19.8644   -2.1141   15.2815 C   0  0  0  0  0  0  0  0  0  0  0  0
   20.0925   -2.0059   13.9310 C   0  0  0  0  0  0  0  0  0  0  0  0
   19.4669   -0.8625   13.5295 N   0  0  0  0  0  0  0  0  0  0  0  0
   18.7960   -0.2461   14.5205 N   0  0  0  0  0  0  0  0  0  0  0  0
   19.7219   -0.3337   18.0572 C   0  0  0  0  0  0  0  0  0  0  0  0
   19.5628    1.1575   17.7142 C   0  0  0  0  0  0  0  0  0  0  0  0
   18.1255    0.8430   17.2671 C   0  0  0  0  0  0  0  0  0  0  0  0
   11.8272   -2.5896   14.4761 C   0  0  0  0  0  0  0  0  0  0  0  0
   10.3108   -0.5086   15.3462 N   0  0  0  0  0  0  0  0  0  0  0  0
    9.6234    0.4907   16.0146 N   0  0  0  0  0  0  0  0  0  0  0  0
  1  2  1  0
  2  3  2  0
  3  4  1  0
  4  5  2  0
  5  6  1  0
  6  7  1  0
  7  8  1  0
  8  9  1  0
  9 10  2  0
 10 11  1  0
 11 12  2  0
 12 13  1  0
 13 14  2  0
 14 15  1  0
 15 16  1  0
 16 17  2  0
 16 18  1  0
 18 19  1  0
 19 20  1  0
 20 21  2  0
 21 22  1  0
 22 23  1  0
 18 24  1  0
 24 25  1  0
 25 26  1  0
 10 27  1  0
  5 28  1  0
 28 29  2  0
 29  2  1  0
 27  6  1  0
 14  9  1  0
 26 18  1  0
 23 19  2  0
M  END
>  <ref_mols>  (764) 
B0693a

>  <gnina_score>  (764) 
5.235

>  <smina_score_min>  (764) 
-5.997

>  <ref_pdb>  (764) 
B0693a

>  <inspiration_score>  (764) 
None

>  <inchikey>  (764) 
WZIIXJZZEYOFEK-UHFFFAOYSA-N

>  <tags>  (764) 
BulkDock Fragalysis export,openbind_d68ev3c_c2_elabs_scored,openbind_d68ev3c_c2_elabs_scored_4.5plus,openbind_d68ev3c_c2_elabs,openbind_d68ev3c_c2_elabs_scored_5plus,syndirella_product,openbind_d68ev3c_c2_elabs_scored_top80percent,syndirella_placed

>  <smiles>  (764) 
Cc1ccc(N2CCc3c(cccc3NC(=O)C3(c4cc[nH]n4)CCC3)C2)nn1

>  <subsites>  (764) 
None

>  <rmsd(smina/fragmenstein)>  (764) 
1.944

>  <alias>  (764) 
None

>  <energy_score>  (764) 
-40.586467

>  <HIPPO Pose ID>  (764) 
86081

>  <distance_score>  (764) 
0.404699

>  <HIPPO Compound ID>  (764) 
119810

>  <gnina_score_min>  (764) 
5.091

>  <name>  (764) 
P86081

>  <exports>  (764) 
['/opt/xchem-fragalysis-2/maxwin/BulkDock/OUTPUTS/openbind_d68ev3c_c2_elabs_1LOTQJ3.sdf', '/opt/xchem-fragalysis-2/maxwin/BulkDock/OUTPUTS/openbind_d68ev3c_c2_elabs_1LSYEHW.sdf', '/opt/xchem-fragalysis-2/maxwin/BulkDock/OUTPUTS/openbind_d68ev3c_c2_elabs_1LSYI5W.sdf']

$$$$
P86084
     RDKit          3D

 29 32  0  0  0  0  0  0  0  0999 V2000
   17.9108   -0.8959   11.5017 C   0  0  0  0  0  0  0  0  0  0  0  0
   19.1624   -0.3659   12.1792 C   0  0  0  0  0  0  0  0  0  0  0  0
   19.3371   -0.9101   13.5130 N   0  0  0  0  0  0  0  0  0  0  0  0
   20.1203   -1.9695   13.8613 C   0  0  0  0  0  0  0  0  0  0  0  0
   19.9873   -2.1062   15.2202 C   0  0  0  0  0  0  0  0  0  0  0  0
   20.7390   -3.2466   16.2183 Cl  0  0  0  0  0  0  0  0  0  0  0  0
   19.0932   -1.0828   15.6120 C   0  0  0  0  0  0  0  0  0  0  0  0
   18.5883   -0.7543   16.9736 C   0  0  0  0  0  0  0  0  0  0  0  0
   17.5326   -1.7533   17.4300 C   0  0  0  0  0  0  0  0  0  0  0  0
   17.6853   -2.4574   18.3541 O   0  0  0  0  0  0  0  0  0  0  0  0
   16.3250   -1.6224   16.4450 N   0  0  0  0  0  0  0  0  0  0  0  0
   15.0732   -2.2421   16.4582 C   0  0  0  0  0  0  0  0  0  0  0  0
   14.7407   -3.1163   17.4970 C   0  0  0  0  0  0  0  0  0  0  0  0
   13.5023   -3.7525   17.5218 C   0  0  0  0  0  0  0  0  0  0  0  0
   12.5816   -3.5185   16.5070 C   0  0  0  0  0  0  0  0  0  0  0  0
   12.8805   -2.6386   15.4582 C   0  0  0  0  0  0  0  0  0  0  0  0
   14.1485   -2.0046   15.4198 C   0  0  0  0  0  0  0  0  0  0  0  0
   14.4713   -1.0581   14.2765 C   0  0  0  0  0  0  0  0  0  0  0  0
   13.5151   -1.1998   13.0856 C   0  0  0  0  0  0  0  0  0  0  0  0
   12.1191   -1.2709   13.5525 N   0  0  0  0  0  0  0  0  0  0  0  0
   11.5895   -0.0354   13.9381 C   0  0  0  0  0  0  0  0  0  0  0  0
   10.5825    0.1049   14.8862 C   0  0  0  0  0  0  0  0  0  0  0  0
   10.1641    1.3721   15.3013 C   0  0  0  0  0  0  0  0  0  0  0  0
   10.7318    2.4886   14.7193 C   0  0  0  0  0  0  0  0  0  0  0  0
   10.3540    3.8690   15.1479 C   0  0  0  0  0  0  0  0  0  0  0  0
   11.6268    2.3550   13.7294 N   0  0  0  0  0  0  0  0  0  0  0  0
   12.0507    1.0931   13.3514 N   0  0  0  0  0  0  0  0  0  0  0  0
   11.8751   -2.4823   14.3327 C   0  0  0  0  0  0  0  0  0  0  0  0
   18.6680   -0.3708   14.5540 N   0  0  0  0  0  0  0  0  0  0  0  0
  1  2  1  0
  2  3  1  0
  3  4  1  0
  4  5  2  0
  5  6  1  0
  5  7  1  0
  7  8  1  0
  8  9  1  0
  9 10  2  0
  9 11  1  0
 11 12  1  0
 12 13  2  0
 13 14  1  0
 14 15  2  0
 15 16  1  0
 16 17  2  0
 17 18  1  0
 18 19  1  0
 19 20  1  0
 20 21  1  0
 21 22  2  0
 22 23  1  0
 23 24  2  0
 24 25  1  0
 24 26  1  0
 26 27  2  0
 20 28  1  0
  7 29  2  0
 29  3  1  0
 17 12  1  0
 27 21  1  0
 28 16  1  0
M  END
>  <ref_mols>  (765) 
B0693a

>  <gnina_score>  (765) 
5.108

>  <smina_score_min>  (765) 
-5.606

>  <ref_pdb>  (765) 
B0693a

>  <inspiration_score>  (765) 
None

>  <inchikey>  (765) 
PQMMUDIOWBDEKJ-UHFFFAOYSA-N

>  <tags>  (765) 
BulkDock Fragalysis export,openbind_d68ev3c_c2_elabs_scored,openbind_d68ev3c_c2_elabs_scored_4.5plus,openbind_d68ev3c_c2_elabs,openbind_d68ev3c_c2_elabs_scored_5plus,syndirella_product,openbind_d68ev3c_c2_elabs_scored_top80percent,syndirella_placed

>  <smiles>  (765) 
CCn1cc(Cl)c(CC(=O)Nc2cccc3c2CCN(c2ccc(C)nn2)C3)n1

>  <subsites>  (765) 
None

>  <rmsd(smina/fragmenstein)>  (765) 
2.13

>  <alias>  (765) 
None

>  <energy_score>  (765) 
-37.207219

>  <HIPPO Pose ID>  (765) 
86084

>  <distance_score>  (765) 
0.399433

>  <HIPPO Compound ID>  (765) 
119820

>  <gnina_score_min>  (765) 
5.025

>  <name>  (765) 
P86084

>  <exports>  (765) 
['/opt/xchem-fragalysis-2/maxwin/BulkDock/OUTPUTS/openbind_d68ev3c_c2_elabs_1LOTQJ3.sdf', '/opt/xchem-fragalysis-2/maxwin/BulkDock/OUTPUTS/openbind_d68ev3c_c2_elabs_1LSYEHW.sdf', '/opt/xchem-fragalysis-2/maxwin/BulkDock/OUTPUTS/openbind_d68ev3c_c2_elabs_1LSYI5W.sdf']

$$$$
P86086
     RDKit          3D

 29 32  0  0  0  0  0  0  0  0999 V2000
    8.8143    2.4721   16.9025 C   0  0  0  0  0  0  0  0  0  0  0  0
    9.6064    1.5009   16.0894 C   0  0  0  0  0  0  0  0  0  0  0  0
   10.5064    1.9310   15.1317 C   0  0  0  0  0  0  0  0  0  0  0  0
   11.2341    0.9844   14.4054 C   0  0  0  0  0  0  0  0  0  0  0  0
   11.0890   -0.3732   14.6656 C   0  0  0  0  0  0  0  0  0  0  0  0
   11.8260   -1.3462   13.9765 N   0  0  0  0  0  0  0  0  0  0  0  0
   13.1533   -1.0520   13.4290 C   0  0  0  0  0  0  0  0  0  0  0  0
   14.2024   -0.9818   14.5403 C   0  0  0  0  0  0  0  0  0  0  0  0
   14.0397   -2.0465   15.6100 C   0  0  0  0  0  0  0  0  0  0  0  0
   12.8435   -2.8040   15.6606 C   0  0  0  0  0  0  0  0  0  0  0  0
   12.6651   -3.7397   16.6857 C   0  0  0  0  0  0  0  0  0  0  0  0
   13.6465   -3.9316   17.6516 C   0  0  0  0  0  0  0  0  0  0  0  0
   14.8301   -3.2004   17.5985 C   0  0  0  0  0  0  0  0  0  0  0  0
   15.0308   -2.2545   16.5920 C   0  0  0  0  0  0  0  0  0  0  0  0
   16.2103   -1.5122   16.5509 N   0  0  0  0  0  0  0  0  0  0  0  0
   17.5110   -1.6130   17.4307 C   0  0  0  0  0  0  0  0  0  0  0  0
   17.8069   -2.3853   18.2647 O   0  0  0  0  0  0  0  0  0  0  0  0
   18.4557   -0.4928   16.8979 C   0  0  0  0  0  0  0  0  0  0  0  0
   17.7221    0.6326   16.6188 F   0  0  0  0  0  0  0  0  0  0  0  0
   19.3784   -0.1020   17.8212 F   0  0  0  0  0  0  0  0  0  0  0  0
   19.1353   -0.9526   15.6476 C   0  0  0  0  0  0  0  0  0  0  0  0
   19.3955   -2.2103   15.1315 C   0  0  0  0  0  0  0  0  0  0  0  0
   20.0049   -1.9767   13.8881 C   0  0  0  0  0  0  0  0  0  0  0  0
   20.1313   -0.6754   13.6300 N   0  0  0  0  0  0  0  0  0  0  0  0
   19.6639   -0.0728   14.7387 N   0  0  0  0  0  0  0  0  0  0  0  0
   19.7504    1.3678   14.8346 C   0  0  0  0  0  0  0  0  0  0  0  0
   11.7758   -2.6781   14.5857 C   0  0  0  0  0  0  0  0  0  0  0  0
   10.1836   -0.7355   15.6138 N   0  0  0  0  0  0  0  0  0  0  0  0
    9.4387    0.1891   16.3307 N   0  0  0  0  0  0  0  0  0  0  0  0
  1  2  1  0
  2  3  2  0
  3  4  1  0
  4  5  2  0
  5  6  1  0
  6  7  1  0
  7  8  1  0
  8  9  1  0
  9 10  2  0
 10 11  1  0
 11 12  2  0
 12 13  1  0
 13 14  2  0
 14 15  1  0
 15 16  1  0
 16 17  2  0
 16 18  1  0
 18 19  1  0
 18 20  1  0
 18 21  1  0
 21 22  2  0
 22 23  1  0
 23 24  2  0
 24 25  1  0
 25 26  1  0
 10 27  1  0
  5 28  1  0
 28 29  2  0
 29  2  1  0
 27  6  1  0
 14  9  1  0
 25 21  1  0
M  END
>  <ref_mols>  (766) 
B0693a

>  <gnina_score>  (766) 
5.109

>  <smina_score_min>  (766) 
-5.673

>  <ref_pdb>  (766) 
B0693a

>  <inspiration_score>  (766) 
None

>  <inchikey>  (766) 
SHSCENWGXOVCIN-UHFFFAOYSA-N

>  <tags>  (766) 
BulkDock Fragalysis export,openbind_d68ev3c_c2_elabs_scored,openbind_d68ev3c_c2_elabs_scored_4.5plus,openbind_d68ev3c_c2_elabs,openbind_d68ev3c_c2_elabs_scored_5plus,syndirella_product,openbind_d68ev3c_c2_elabs_scored_top80percent,syndirella_placed

>  <smiles>  (766) 
Cc1ccc(N2CCc3c(cccc3NC(=O)C(F)(F)c3ccnn3C)C2)nn1

>  <subsites>  (766) 
None

>  <rmsd(smina/fragmenstein)>  (766) 
1.294

>  <alias>  (766) 
None

>  <energy_score>  (766) 
-41.160393

>  <HIPPO Pose ID>  (766) 
86086

>  <distance_score>  (766) 
0.434321

>  <HIPPO Compound ID>  (766) 
119834

>  <gnina_score_min>  (766) 
5.067

>  <name>  (766) 
P86086

>  <exports>  (766) 
['/opt/xchem-fragalysis-2/maxwin/BulkDock/OUTPUTS/openbind_d68ev3c_c2_elabs_1LOTQJ3.sdf', '/opt/xchem-fragalysis-2/maxwin/BulkDock/OUTPUTS/openbind_d68ev3c_c2_elabs_1LSYEHW.sdf', '/opt/xchem-fragalysis-2/maxwin/BulkDock/OUTPUTS/openbind_d68ev3c_c2_elabs_1LSYI5W.sdf']

$$$$
P86088
     RDKit          3D

 29 31  0  0  0  0  0  0  0  0999 V2000
   11.8469   -3.8902   12.7173 C   0  0  0  0  0  0  0  0  0  0  0  0
   12.6836   -2.7268   13.1220 C   0  0  0  0  0  0  0  0  0  0  0  0
   11.7586   -1.4121   13.9531 S   0  0  0  0  0  0  0  0  0  0  0  0
   10.5491   -1.9100   14.5743 O   0  0  0  0  0  0  0  0  0  0  0  0
   11.7824   -0.2155   13.1431 O   0  0  0  0  0  0  0  0  0  0  0  0
   12.8325   -1.2047   15.2448 N   0  0  0  0  0  0  0  0  0  0  0  0
   14.1794   -0.7406   14.8376 C   0  0  0  0  0  0  0  0  0  0  0  0
   15.2283   -0.8847   15.9214 C   0  0  0  0  0  0  0  0  0  0  0  0
   15.1969   -2.2105   16.6366 C   0  0  0  0  0  0  0  0  0  0  0  0
   13.9718   -2.8859   16.7567 C   0  0  0  0  0  0  0  0  0  0  0  0
   13.8649   -4.0633   17.5078 C   0  0  0  0  0  0  0  0  0  0  0  0
   14.9792   -4.5758   18.1409 C   0  0  0  0  0  0  0  0  0  0  0  0
   16.2019   -3.9214   18.0233 C   0  0  0  0  0  0  0  0  0  0  0  0
   16.3237   -2.7433   17.2848 C   0  0  0  0  0  0  0  0  0  0  0  0
   17.5621   -2.1117   17.1745 N   0  0  0  0  0  0  0  0  0  0  0  0
   18.9658   -2.5297   17.7194 C   0  0  0  0  0  0  0  0  0  0  0  0
   19.2768   -3.4257   18.4070 O   0  0  0  0  0  0  0  0  0  0  0  0
   19.9634   -1.5039   17.1909 C   0  0  0  0  0  0  0  0  0  0  0  0
   19.8740   -1.3789   15.7064 C   0  0  0  0  0  0  0  0  0  0  0  0
   20.3288   -2.2881   14.7275 C   0  0  0  0  0  0  0  0  0  0  0  0
   19.9909   -1.7175   13.5182 C   0  0  0  0  0  0  0  0  0  0  0  0
   20.1768   -2.1679   12.1277 C   0  0  0  0  0  0  0  0  0  0  0  0
   20.9035   -1.2794   11.4075 F   0  0  0  0  0  0  0  0  0  0  0  0
   20.8087   -3.3620   12.0528 F   0  0  0  0  0  0  0  0  0  0  0  0
   18.9824   -2.3023   11.4989 F   0  0  0  0  0  0  0  0  0  0  0  0
   19.3894   -0.5297   13.8227 N   0  0  0  0  0  0  0  0  0  0  0  0
   18.8868    0.4679   12.9033 C   0  0  0  0  0  0  0  0  0  0  0  0
   19.2465   -0.3329   15.1500 N   0  0  0  0  0  0  0  0  0  0  0  0
   12.7196   -2.3756   16.1422 C   0  0  0  0  0  0  0  0  0  0  0  0
  1  2  1  0
  2  3  1  0
  3  4  2  0
  3  5  2  0
  3  6  1  0
  6  7  1  0
  7  8  1  0
  8  9  1  0
  9 10  2  0
 10 11  1  0
 11 12  2  0
 12 13  1  0
 13 14  2  0
 14 15  1  0
 15 16  1  0
 16 17  2  0
 16 18  1  0
 18 19  1  0
 19 20  1  0
 20 21  2  0
 21 22  1  0
 22 23  1  0
 22 24  1  0
 22 25  1  0
 21 26  1  0
 26 27  1  0
 26 28  1  0
 10 29  1  0
 29  6  1  0
 14  9  1  0
 28 19  2  0
M  END
>  <ref_mols>  (767) 
B0693a

>  <gnina_score>  (767) 
5.337

>  <smina_score_min>  (767) 
-3.44

>  <ref_pdb>  (767) 
B0693a

>  <inspiration_score>  (767) 
None

>  <inchikey>  (767) 
ZZBYDSPNHWQWEM-UHFFFAOYSA-N

>  <tags>  (767) 
BulkDock Fragalysis export,openbind_d68ev3c_c2_elabs_scored,openbind_d68ev3c_c2_elabs_scored_4.5plus,openbind_d68ev3c_c2_elabs,openbind_d68ev3c_c2_elabs_scored_5plus,syndirella_product,openbind_d68ev3c_c2_elabs_scored_top80percent,syndirella_placed

>  <smiles>  (767) 
CCS(=O)(=O)N1CCc2c(cccc2NC(=O)Cc2cc(C(F)(F)F)n(C)n2)C1

>  <subsites>  (767) 
None

>  <rmsd(smina/fragmenstein)>  (767) 
2.32

>  <alias>  (767) 
None

>  <energy_score>  (767) 
-53.711799

>  <HIPPO Pose ID>  (767) 
86088

>  <distance_score>  (767) 
1.57826

>  <HIPPO Compound ID>  (767) 
119837

>  <gnina_score_min>  (767) 
5.191

>  <name>  (767) 
P86088

>  <exports>  (767) 
['/opt/xchem-fragalysis-2/maxwin/BulkDock/OUTPUTS/openbind_d68ev3c_c2_elabs_1LOTQJ3.sdf', '/opt/xchem-fragalysis-2/maxwin/BulkDock/OUTPUTS/openbind_d68ev3c_c2_elabs_1LSYEHW.sdf', '/opt/xchem-fragalysis-2/maxwin/BulkDock/OUTPUTS/openbind_d68ev3c_c2_elabs_1LSYI5W.sdf']

$$$$
P86090
     RDKit          3D

 29 31  0  0  0  0  0  0  0  0999 V2000
   18.9311    0.2422   12.5192 C   0  0  0  0  0  0  0  0  0  0  0  0
   19.3007   -0.6410   13.6035 N   0  0  0  0  0  0  0  0  0  0  0  0
   18.9799   -0.2974   14.8677 N   0  0  0  0  0  0  0  0  0  0  0  0
   19.4907   -1.2846   15.6157 C   0  0  0  0  0  0  0  0  0  0  0  0
   19.3779   -1.2387   17.0985 C   0  0  0  0  0  0  0  0  0  0  0  0
   18.3438   -2.2308   17.6118 C   0  0  0  0  0  0  0  0  0  0  0  0
   18.6046   -3.0626   18.3953 O   0  0  0  0  0  0  0  0  0  0  0  0
   16.9737   -1.8407   16.9668 N   0  0  0  0  0  0  0  0  0  0  0  0
   15.7155   -2.4364   17.0816 C   0  0  0  0  0  0  0  0  0  0  0  0
   15.5558   -3.5695   17.8806 C   0  0  0  0  0  0  0  0  0  0  0  0
   14.3111   -4.1710   18.0220 C   0  0  0  0  0  0  0  0  0  0  0  0
   13.2110   -3.6323   17.3784 C   0  0  0  0  0  0  0  0  0  0  0  0
   13.3391   -2.4778   16.5921 C   0  0  0  0  0  0  0  0  0  0  0  0
   14.6035   -1.8887   16.4106 C   0  0  0  0  0  0  0  0  0  0  0  0
   14.7380   -0.6704   15.5357 C   0  0  0  0  0  0  0  0  0  0  0  0
   13.4889   -0.2268   14.7610 C   0  0  0  0  0  0  0  0  0  0  0  0
   12.2438   -0.9721   14.8797 N   0  0  0  0  0  0  0  0  0  0  0  0
   11.8529   -1.6213   13.6413 C   0  0  0  0  0  0  0  0  0  0  0  0
   12.6594   -2.8794   13.2458 C   0  0  0  0  0  0  0  0  0  0  0  0
   14.0688   -2.5760   12.7770 C   0  0  0  0  0  0  0  0  0  0  0  0
   11.9160   -3.8504   12.3645 C   0  0  0  0  0  0  0  0  0  0  0  0
   12.7561   -3.6622   14.4120 O   0  0  0  0  0  0  0  0  0  0  0  0
   12.0887   -1.8742   16.0075 C   0  0  0  0  0  0  0  0  0  0  0  0
   20.0730   -2.2917   14.8167 C   0  0  0  0  0  0  0  0  0  0  0  0
   19.9282   -1.8512   13.5177 C   0  0  0  0  0  0  0  0  0  0  0  0
   20.3185   -2.4428   12.2265 C   0  0  0  0  0  0  0  0  0  0  0  0
   21.2440   -1.6836   11.5906 F   0  0  0  0  0  0  0  0  0  0  0  0
   20.8426   -3.6833   12.3648 F   0  0  0  0  0  0  0  0  0  0  0  0
   19.2540   -2.5458   11.3927 F   0  0  0  0  0  0  0  0  0  0  0  0
  1  2  1  0
  2  3  1  0
  3  4  2  0
  4  5  1  0
  5  6  1  0
  6  7  2  0
  6  8  1  0
  8  9  1  0
  9 10  2  0
 10 11  1  0
 11 12  2  0
 12 13  1  0
 13 14  2  0
 14 15  1  0
 15 16  1  0
 16 17  1  0
 17 18  1  0
 18 19  1  0
 19 20  1  0
 19 21  1  0
 19 22  1  0
 17 23  1  0
  4 24  1  0
 24 25  2  0
 25 26  1  0
 26 27  1  0
 26 28  1  0
 26 29  1  0
 25  2  1  0
 14  9  1  0
 23 13  1  0
M  END
>  <ref_mols>  (768) 
B0693a

>  <gnina_score>  (768) 
5.333

>  <smina_score_min>  (768) 
-0.647

>  <ref_pdb>  (768) 
B0693a

>  <inspiration_score>  (768) 
None

>  <inchikey>  (768) 
PUEFXTQCPXVNOP-UHFFFAOYSA-N

>  <tags>  (768) 
BulkDock Fragalysis export,openbind_d68ev3c_c2_elabs_scored,openbind_d68ev3c_c2_elabs_scored_4.5plus,openbind_d68ev3c_c2_elabs,openbind_d68ev3c_c2_elabs_scored_5plus,syndirella_product,openbind_d68ev3c_c2_elabs_scored_top80percent,syndirella_placed

>  <smiles>  (768) 
Cn1nc(CC(=O)Nc2cccc3c2CCN(CC(C)(C)O)C3)cc1C(F)(F)F

>  <subsites>  (768) 
None

>  <rmsd(smina/fragmenstein)>  (768) 
1.166

>  <alias>  (768) 
None

>  <energy_score>  (768) 
-33.417424

>  <HIPPO Pose ID>  (768) 
86090

>  <distance_score>  (768) 
1.156929

>  <HIPPO Compound ID>  (768) 
119840

>  <gnina_score_min>  (768) 
5.361

>  <name>  (768) 
P86090

>  <exports>  (768) 
['/opt/xchem-fragalysis-2/maxwin/BulkDock/OUTPUTS/openbind_d68ev3c_c2_elabs_1LOTQJ3.sdf', '/opt/xchem-fragalysis-2/maxwin/BulkDock/OUTPUTS/openbind_d68ev3c_c2_elabs_1LSYEHW.sdf', '/opt/xchem-fragalysis-2/maxwin/BulkDock/OUTPUTS/openbind_d68ev3c_c2_elabs_1LSYI5W.sdf']

$$$$
P86094
     RDKit          3D

 29 32  0  0  0  0  0  0  0  0999 V2000
   17.4701    1.7211   14.3500 C   0  0  0  0  0  0  0  0  0  0  0  0
   18.9138    1.3753   14.6695 C   0  0  0  0  0  0  0  0  0  0  0  0
   19.1573   -0.0578   14.6445 N   0  0  0  0  0  0  0  0  0  0  0  0
   19.5731   -0.6108   13.4885 N   0  0  0  0  0  0  0  0  0  0  0  0
   19.7870   -1.8900   13.8009 C   0  0  0  0  0  0  0  0  0  0  0  0
   19.4637   -2.1672   15.1377 C   0  0  0  0  0  0  0  0  0  0  0  0
   19.5968   -3.6789   15.8870 Cl  0  0  0  0  0  0  0  0  0  0  0  0
   19.0194   -0.9699   15.6662 C   0  0  0  0  0  0  0  0  0  0  0  0
   18.5154   -0.6270   17.0335 C   0  0  0  0  0  0  0  0  0  0  0  0
   17.4453   -1.6064   17.5299 C   0  0  0  0  0  0  0  0  0  0  0  0
   17.5413   -2.1768   18.5485 O   0  0  0  0  0  0  0  0  0  0  0  0
   16.3043   -1.6272   16.4617 N   0  0  0  0  0  0  0  0  0  0  0  0
   15.0586   -2.2569   16.4789 C   0  0  0  0  0  0  0  0  0  0  0  0
   14.7296   -3.1248   17.5230 C   0  0  0  0  0  0  0  0  0  0  0  0
   13.4959   -3.7694   17.5453 C   0  0  0  0  0  0  0  0  0  0  0  0
   12.5790   -3.5497   16.5233 C   0  0  0  0  0  0  0  0  0  0  0  0
   12.8774   -2.6775   15.4682 C   0  0  0  0  0  0  0  0  0  0  0  0
   14.1405   -2.0358   15.4307 C   0  0  0  0  0  0  0  0  0  0  0  0
   14.4628   -1.0930   14.2830 C   0  0  0  0  0  0  0  0  0  0  0  0
   13.4905   -1.2085   13.1020 C   0  0  0  0  0  0  0  0  0  0  0  0
   12.1007   -1.2982   13.5834 N   0  0  0  0  0  0  0  0  0  0  0  0
   11.5625   -0.0850   14.0246 C   0  0  0  0  0  0  0  0  0  0  0  0
   10.4601   -0.0048   14.8690 C   0  0  0  0  0  0  0  0  0  0  0  0
   10.0206    1.2291   15.3547 C   0  0  0  0  0  0  0  0  0  0  0  0
   10.6647    2.3788   14.9404 C   0  0  0  0  0  0  0  0  0  0  0  0
   10.2616    3.7258   15.4442 C   0  0  0  0  0  0  0  0  0  0  0  0
   11.6615    2.3118   14.0466 N   0  0  0  0  0  0  0  0  0  0  0  0
   12.1041    1.0792   13.6006 N   0  0  0  0  0  0  0  0  0  0  0  0
   11.8775   -2.5324   14.3359 C   0  0  0  0  0  0  0  0  0  0  0  0
  1  2  1  0
  2  3  1  0
  3  4  1  0
  4  5  2  0
  5  6  1  0
  6  7  1  0
  6  8  2  0
  8  9  1  0
  9 10  1  0
 10 11  2  0
 10 12  1  0
 12 13  1  0
 13 14  2  0
 14 15  1  0
 15 16  2  0
 16 17  1  0
 17 18  2  0
 18 19  1  0
 19 20  1  0
 20 21  1  0
 21 22  1  0
 22 23  2  0
 23 24  1  0
 24 25  2  0
 25 26  1  0
 25 27  1  0
 27 28  2  0
 21 29  1  0
  8  3  1  0
 18 13  1  0
 28 22  1  0
 29 17  1  0
M  END
>  <ref_mols>  (769) 
B0693a

>  <gnina_score>  (769) 
5.106

>  <smina_score_min>  (769) 
-5.601

>  <ref_pdb>  (769) 
B0693a

>  <inspiration_score>  (769) 
None

>  <inchikey>  (769) 
QUZVFZPDMFJHCT-UHFFFAOYSA-N

>  <tags>  (769) 
BulkDock Fragalysis export,openbind_d68ev3c_c2_elabs_scored,openbind_d68ev3c_c2_elabs_scored_4.5plus,openbind_d68ev3c_c2_elabs,openbind_d68ev3c_c2_elabs_scored_5plus,syndirella_product,openbind_d68ev3c_c2_elabs_scored_top80percent,syndirella_placed

>  <smiles>  (769) 
CCn1ncc(Cl)c1CC(=O)Nc1cccc2c1CCN(c1ccc(C)nn1)C2

>  <subsites>  (769) 
None

>  <rmsd(smina/fragmenstein)>  (769) 
1.692

>  <alias>  (769) 
None

>  <energy_score>  (769) 
-24.951882

>  <HIPPO Pose ID>  (769) 
86094

>  <distance_score>  (769) 
0.381825

>  <HIPPO Compound ID>  (769) 
119850

>  <gnina_score_min>  (769) 
5.118

>  <name>  (769) 
P86094

>  <exports>  (769) 
['/opt/xchem-fragalysis-2/maxwin/BulkDock/OUTPUTS/openbind_d68ev3c_c2_elabs_1LOTQJ3.sdf', '/opt/xchem-fragalysis-2/maxwin/BulkDock/OUTPUTS/openbind_d68ev3c_c2_elabs_1LSYEHW.sdf', '/opt/xchem-fragalysis-2/maxwin/BulkDock/OUTPUTS/openbind_d68ev3c_c2_elabs_1LSYI5W.sdf']

$$$$
P86100
     RDKit          3D

 29 31  0  0  0  0  0  0  0  0999 V2000
   23.0287   -1.2410   12.9100 C   0  0  0  0  0  0  0  0  0  0  0  0
   22.3209    0.0993   12.7152 C   0  0  0  0  0  0  0  0  0  0  0  0
   22.6262    1.0388   13.8818 C   0  0  0  0  0  0  0  0  0  0  0  0
   20.8106   -0.0516   12.4468 C   0  0  0  0  0  0  0  0  0  0  0  0
   20.0384   -0.6871   13.4920 N   0  0  0  0  0  0  0  0  0  0  0  0
   19.7137   -0.0073   14.6673 N   0  0  0  0  0  0  0  0  0  0  0  0
   19.2086   -0.9626   15.5424 C   0  0  0  0  0  0  0  0  0  0  0  0
   18.6004   -0.5408   16.8455 C   0  0  0  0  0  0  0  0  0  0  0  0
   17.6465   -1.5819   17.4394 C   0  0  0  0  0  0  0  0  0  0  0  0
   17.8876   -2.1917   18.4093 O   0  0  0  0  0  0  0  0  0  0  0  0
   16.3979   -1.6266   16.4994 N   0  0  0  0  0  0  0  0  0  0  0  0
   15.2018   -2.3358   16.6157 C   0  0  0  0  0  0  0  0  0  0  0  0
   15.0158   -3.2298   17.6723 C   0  0  0  0  0  0  0  0  0  0  0  0
   13.8184   -3.9261   17.8062 C   0  0  0  0  0  0  0  0  0  0  0  0
   12.7927   -3.7172   16.8947 C   0  0  0  0  0  0  0  0  0  0  0  0
   12.9428   -2.8024   15.8467 C   0  0  0  0  0  0  0  0  0  0  0  0
   14.1758   -2.1415   15.6699 C   0  0  0  0  0  0  0  0  0  0  0  0
   14.3446   -1.2198   14.4824 C   0  0  0  0  0  0  0  0  0  0  0  0
   13.1924   -1.3183   13.4699 C   0  0  0  0  0  0  0  0  0  0  0  0
   11.8490   -1.3857   14.0823 N   0  0  0  0  0  0  0  0  0  0  0  0
   11.5208   -0.1404   14.8117 C   0  0  0  0  0  0  0  0  0  0  0  0
   10.0965    0.0981   15.4445 C   0  0  0  0  0  0  0  0  0  0  0  0
    9.8891    1.6212   15.5604 C   0  0  0  0  0  0  0  0  0  0  0  0
    8.9941   -0.5730   14.6832 C   0  0  0  0  0  0  0  0  0  0  0  0
    9.8687   -0.4179   16.7659 O   0  0  0  0  0  0  0  0  0  0  0  0
   11.7815   -2.5993   14.9026 C   0  0  0  0  0  0  0  0  0  0  0  0
   19.3181   -2.2072   15.0474 C   0  0  0  0  0  0  0  0  0  0  0  0
   19.8945   -2.0504   13.6946 C   0  0  0  0  0  0  0  0  0  0  0  0
   20.1587   -2.9727   12.9469 O   0  0  0  0  0  0  0  0  0  0  0  0
  1  2  1  0
  2  3  1  0
  2  4  1  0
  4  5  1  0
  5  6  1  0
  6  7  1  0
  7  8  1  0
  8  9  1  0
  9 10  2  0
  9 11  1  0
 11 12  1  0
 12 13  2  0
 13 14  1  0
 14 15  2  0
 15 16  1  0
 16 17  2  0
 17 18  1  0
 18 19  1  0
 19 20  1  0
 20 21  1  0
 21 22  1  0
 22 23  1  0
 22 24  1  0
 22 25  1  0
 20 26  1  0
  7 27  2  0
 27 28  1  0
 28 29  2  0
 28  5  1  0
 17 12  1  0
 26 16  1  0
M  END
>  <ref_mols>  (770) 
B0693a

>  <gnina_score>  (770) 
4.865

>  <smina_score_min>  (770) 
-4.152

>  <ref_pdb>  (770) 
B0693a

>  <inspiration_score>  (770) 
None

>  <inchikey>  (770) 
IFSSVJCTWDKGCT-UHFFFAOYSA-N

>  <tags>  (770) 
BulkDock Fragalysis export,openbind_d68ev3c_c2_elabs_scored,openbind_d68ev3c_c2_elabs_scored_4.5plus,openbind_d68ev3c_c2_elabs,openbind_d68ev3c_c2_elabs_scored_5plus,syndirella_product,openbind_d68ev3c_c2_elabs_scored_top80percent,syndirella_placed

>  <smiles>  (770) 
CC(C)Cn1[nH]c(CC(=O)Nc2cccc3c2CCN(CC(C)(C)O)C3)cc1=O

>  <subsites>  (770) 
None

>  <rmsd(smina/fragmenstein)>  (770) 
2.013

>  <alias>  (770) 
None

>  <energy_score>  (770) 
-60.636386

>  <HIPPO Pose ID>  (770) 
86100

>  <distance_score>  (770) 
0.516714

>  <HIPPO Compound ID>  (770) 
119873

>  <gnina_score_min>  (770) 
5.066

>  <name>  (770) 
P86100

>  <exports>  (770) 
['/opt/xchem-fragalysis-2/maxwin/BulkDock/OUTPUTS/openbind_d68ev3c_c2_elabs_1LOTQJ3.sdf', '/opt/xchem-fragalysis-2/maxwin/BulkDock/OUTPUTS/openbind_d68ev3c_c2_elabs_1LSYEHW.sdf', '/opt/xchem-fragalysis-2/maxwin/BulkDock/OUTPUTS/openbind_d68ev3c_c2_elabs_1LSYI5W.sdf']

$$$$
P86102
     RDKit          3D

 29 33  0  0  0  0  0  0  0  0999 V2000
   10.3749    3.8989   15.1427 C   0  0  0  0  0  0  0  0  0  0  0  0
   10.7450    2.5173   14.7126 C   0  0  0  0  0  0  0  0  0  0  0  0
   10.1726    1.4019   15.2922 C   0  0  0  0  0  0  0  0  0  0  0  0
   10.5828    0.1337   14.8726 C   0  0  0  0  0  0  0  0  0  0  0  0
   11.5888   -0.0092   13.9244 C   0  0  0  0  0  0  0  0  0  0  0  0
   12.1132   -1.2453   13.5388 N   0  0  0  0  0  0  0  0  0  0  0  0
   13.5096   -1.1826   13.0724 C   0  0  0  0  0  0  0  0  0  0  0  0
   14.4630   -1.0495   14.2663 C   0  0  0  0  0  0  0  0  0  0  0  0
   14.1292   -1.9976   15.4065 C   0  0  0  0  0  0  0  0  0  0  0  0
   12.8593   -2.6273   15.4377 C   0  0  0  0  0  0  0  0  0  0  0  0
   12.5559   -3.5135   16.4797 C   0  0  0  0  0  0  0  0  0  0  0  0
   13.4761   -3.7624   17.4919 C   0  0  0  0  0  0  0  0  0  0  0  0
   14.7182   -3.1334   17.4723 C   0  0  0  0  0  0  0  0  0  0  0  0
   15.0515   -2.2473   16.4441 C   0  0  0  0  0  0  0  0  0  0  0  0
   16.3041   -1.6300   16.4299 N   0  0  0  0  0  0  0  0  0  0  0  0
   17.4742   -1.7103   17.4362 C   0  0  0  0  0  0  0  0  0  0  0  0
   17.6046   -2.3641   18.3946 O   0  0  0  0  0  0  0  0  0  0  0  0
   18.5613   -0.7568   17.0291 C   0  0  0  0  0  0  0  0  0  0  0  0
   19.1183   -1.0441   15.5978 C   0  0  0  0  0  0  0  0  0  0  0  0
   19.9509   -2.1278   15.2659 C   0  0  0  0  0  0  0  0  0  0  0  0
   20.1755   -1.9855   13.9161 C   0  0  0  0  0  0  0  0  0  0  0  0
   19.4957   -0.8655   13.5340 N   0  0  0  0  0  0  0  0  0  0  0  0
   19.4379   -0.2932   12.2107 C   0  0  0  0  0  0  0  0  0  0  0  0
   18.8046   -0.2913   14.5386 N   0  0  0  0  0  0  0  0  0  0  0  0
   19.5181   -0.1917   18.0618 C   0  0  0  0  0  0  0  0  0  0  0  0
   18.4534    0.6893   17.4828 C   0  0  0  0  0  0  0  0  0  0  0  0
   11.8588   -2.4613   14.3086 C   0  0  0  0  0  0  0  0  0  0  0  0
   12.0558    1.1191   13.3418 N   0  0  0  0  0  0  0  0  0  0  0  0
   11.6378    2.3821   13.7221 N   0  0  0  0  0  0  0  0  0  0  0  0
  1  2  1  0
  2  3  2  0
  3  4  1  0
  4  5  2  0
  5  6  1  0
  6  7  1  0
  7  8  1  0
  8  9  1  0
  9 10  2  0
 10 11  1  0
 11 12  2  0
 12 13  1  0
 13 14  2  0
 14 15  1  0
 15 16  1  0
 16 17  2  0
 16 18  1  0
 18 19  1  0
 19 20  1  0
 20 21  2  0
 21 22  1  0
 22 23  1  0
 22 24  1  0
 18 25  1  0
 25 26  1  0
 10 27  1  0
  5 28  1  0
 28 29  2  0
 29  2  1  0
 27  6  1  0
 14  9  1  0
 26 18  1  0
 24 19  2  0
M  END
>  <ref_mols>  (771) 
B0693a

>  <gnina_score>  (771) 
5.163

>  <smina_score_min>  (771) 
-5.91

>  <ref_pdb>  (771) 
B0693a

>  <inspiration_score>  (771) 
None

>  <inchikey>  (771) 
CAFOUJDOOZFRQG-UHFFFAOYSA-N

>  <tags>  (771) 
BulkDock Fragalysis export,openbind_d68ev3c_c2_elabs_scored,openbind_d68ev3c_c2_elabs_scored_4.5plus,openbind_d68ev3c_c2_elabs,openbind_d68ev3c_c2_elabs_scored_5plus,syndirella_product,openbind_d68ev3c_c2_elabs_scored_top80percent,syndirella_placed

>  <smiles>  (771) 
Cc1ccc(N2CCc3c(cccc3NC(=O)C3(c4ccn(C)n4)CC3)C2)nn1

>  <subsites>  (771) 
None

>  <rmsd(smina/fragmenstein)>  (771) 
1.566

>  <alias>  (771) 
None

>  <energy_score>  (771) 
-31.386603

>  <HIPPO Pose ID>  (771) 
86102

>  <distance_score>  (771) 
0.389695

>  <HIPPO Compound ID>  (771) 
119877

>  <gnina_score_min>  (771) 
5.065

>  <name>  (771) 
P86102

>  <exports>  (771) 
['/opt/xchem-fragalysis-2/maxwin/BulkDock/OUTPUTS/openbind_d68ev3c_c2_elabs_1LOTQJ3.sdf', '/opt/xchem-fragalysis-2/maxwin/BulkDock/OUTPUTS/openbind_d68ev3c_c2_elabs_1LSYEHW.sdf', '/opt/xchem-fragalysis-2/maxwin/BulkDock/OUTPUTS/openbind_d68ev3c_c2_elabs_1LSYI5W.sdf']

$$$$
P86104
     RDKit          3D

 29 32  0  0  0  0  0  0  0  0999 V2000
   21.0396   -2.7210   12.7743 C   0  0  0  0  0  0  0  0  0  0  0  0
   20.2399   -2.0808   13.8467 C   0  0  0  0  0  0  0  0  0  0  0  0
   20.1673   -2.3516   15.1972 C   0  0  0  0  0  0  0  0  0  0  0  0
   19.2425   -1.4218   15.6976 C   0  0  0  0  0  0  0  0  0  0  0  0
   18.7903   -1.3301   17.1903 C   0  0  0  0  0  0  0  0  0  0  0  0
   17.5776   -2.1753   17.4885 C   0  0  0  0  0  0  0  0  0  0  0  0
   17.6480   -2.9787   18.3724 O   0  0  0  0  0  0  0  0  0  0  0  0
   16.4796   -1.8047   16.6431 N   0  0  0  0  0  0  0  0  0  0  0  0
   15.1925   -2.3289   16.5326 C   0  0  0  0  0  0  0  0  0  0  0  0
   14.7616   -3.3878   17.3323 C   0  0  0  0  0  0  0  0  0  0  0  0
   13.4669   -3.8950   17.1976 C   0  0  0  0  0  0  0  0  0  0  0  0
   12.5999   -3.3682   16.2426 C   0  0  0  0  0  0  0  0  0  0  0  0
   13.0214   -2.3128   15.4353 C   0  0  0  0  0  0  0  0  0  0  0  0
   14.3074   -1.7821   15.5936 C   0  0  0  0  0  0  0  0  0  0  0  0
   14.6060   -0.5727   14.7616 C   0  0  0  0  0  0  0  0  0  0  0  0
   13.3997   -0.2132   13.8750 C   0  0  0  0  0  0  0  0  0  0  0  0
   12.0359   -0.1725   14.5339 N   0  0  0  0  0  0  0  0  0  0  0  0
   10.7665    0.2832   14.0355 C   0  0  0  0  0  0  0  0  0  0  0  0
   10.4471    0.6654   12.9336 O   0  0  0  0  0  0  0  0  0  0  0  0
    9.6975    0.1669   15.1755 C   0  0  0  0  0  0  0  0  0  0  0  0
   10.0538   -0.6488   16.2184 F   0  0  0  0  0  0  0  0  0  0  0  0
    8.5156   -0.3534   14.7339 F   0  0  0  0  0  0  0  0  0  0  0  0
    9.4065    1.3756   15.7287 F   0  0  0  0  0  0  0  0  0  0  0  0
   12.1523   -1.6832   14.3691 C   0  0  0  0  0  0  0  0  0  0  0  0
   19.8467   -1.0860   18.2512 C   0  0  0  0  0  0  0  0  0  0  0  0
   18.9069    0.0200   17.8800 C   0  0  0  0  0  0  0  0  0  0  0  0
   18.7293   -0.6351   14.7460 N   0  0  0  0  0  0  0  0  0  0  0  0
   19.3843   -1.0286   13.6329 N   0  0  0  0  0  0  0  0  0  0  0  0
   19.1228   -0.3606   12.3789 C   0  0  0  0  0  0  0  0  0  0  0  0
  1  2  1  0
  2  3  2  0
  3  4  1  0
  4  5  1  0
  5  6  1  0
  6  7  2  0
  6  8  1  0
  8  9  1  0
  9 10  2  0
 10 11  1  0
 11 12  2  0
 12 13  1  0
 13 14  2  0
 14 15  1  0
 15 16  1  0
 16 17  1  0
 17 18  1  0
 18 19  2  0
 18 20  1  0
 20 21  1  0
 20 22  1  0
 20 23  1  0
 17 24  1  0
  5 25  1  0
 25 26  1  0
  4 27  2  0
 27 28  1  0
 28 29  1  0
 28  2  1  0
 26  5  1  0
 14  9  1  0
 24 13  1  0
M  END
>  <ref_mols>  (772) 
B0693a

>  <gnina_score>  (772) 
5.141

>  <smina_score_min>  (772) 
-5.09

>  <ref_pdb>  (772) 
B0693a

>  <inspiration_score>  (772) 
None

>  <inchikey>  (772) 
OSXRVMXBWLBHCW-UHFFFAOYSA-N

>  <tags>  (772) 
BulkDock Fragalysis export,openbind_d68ev3c_c2_elabs_scored,openbind_d68ev3c_c2_elabs_scored_4.5plus,openbind_d68ev3c_c2_elabs,openbind_d68ev3c_c2_elabs_scored_5plus,syndirella_product,openbind_d68ev3c_c2_elabs_scored_top80percent,syndirella_placed

>  <smiles>  (772) 
Cc1cc(C2(C(=O)Nc3cccc4c3CCN(C(=O)C(F)(F)F)C4)CC2)nn1C

>  <subsites>  (772) 
None

>  <rmsd(smina/fragmenstein)>  (772) 
0.972

>  <alias>  (772) 
None

>  <energy_score>  (772) 
-0.236335

>  <HIPPO Pose ID>  (772) 
86104

>  <distance_score>  (772) 
0.747841

>  <HIPPO Compound ID>  (772) 
119883

>  <gnina_score_min>  (772) 
5.162

>  <name>  (772) 
P86104

>  <exports>  (772) 
['/opt/xchem-fragalysis-2/maxwin/BulkDock/OUTPUTS/openbind_d68ev3c_c2_elabs_1LOTQJ3.sdf', '/opt/xchem-fragalysis-2/maxwin/BulkDock/OUTPUTS/openbind_d68ev3c_c2_elabs_1LSYEHW.sdf', '/opt/xchem-fragalysis-2/maxwin/BulkDock/OUTPUTS/openbind_d68ev3c_c2_elabs_1LSYI5W.sdf']

$$$$
P86105
     RDKit          3D

 29 32  0  0  0  0  0  0  0  0999 V2000
    8.9351    2.5816   16.7721 C   0  0  0  0  0  0  0  0  0  0  0  0
    9.7200    1.5910   15.9758 C   0  0  0  0  0  0  0  0  0  0  0  0
   10.6489    1.9989   15.0360 C   0  0  0  0  0  0  0  0  0  0  0  0
   11.3740    1.0346   14.3307 C   0  0  0  0  0  0  0  0  0  0  0  0
   11.1941   -0.3184   14.5916 C   0  0  0  0  0  0  0  0  0  0  0  0
   11.9219   -1.3098   13.9198 N   0  0  0  0  0  0  0  0  0  0  0  0
   13.2657   -1.0485   13.3928 C   0  0  0  0  0  0  0  0  0  0  0  0
   14.3092   -1.0109   14.5134 C   0  0  0  0  0  0  0  0  0  0  0  0
   14.1069   -2.0699   15.5807 C   0  0  0  0  0  0  0  0  0  0  0  0
   12.8807   -2.7822   15.6267 C   0  0  0  0  0  0  0  0  0  0  0  0
   12.6514   -3.6977   16.6601 C   0  0  0  0  0  0  0  0  0  0  0  0
   13.6071   -3.9073   17.6458 C   0  0  0  0  0  0  0  0  0  0  0  0
   14.8181   -3.2227   17.5968 C   0  0  0  0  0  0  0  0  0  0  0  0
   15.0809   -2.3083   16.5729 C   0  0  0  0  0  0  0  0  0  0  0  0
   16.3142   -1.6523   16.5309 N   0  0  0  0  0  0  0  0  0  0  0  0
   17.5496   -1.7513   17.4852 C   0  0  0  0  0  0  0  0  0  0  0  0
   17.7456   -2.4537   18.4026 O   0  0  0  0  0  0  0  0  0  0  0  0
   18.5694   -0.7286   17.0020 C   0  0  0  0  0  0  0  0  0  0  0  0
   19.0653   -1.0545   15.6359 C   0  0  0  0  0  0  0  0  0  0  0  0
   18.6641   -0.3115   14.5919 N   0  0  0  0  0  0  0  0  0  0  0  0
   19.3273   -0.8373   13.5394 N   0  0  0  0  0  0  0  0  0  0  0  0
   19.1696   -0.2346   12.2351 C   0  0  0  0  0  0  0  0  0  0  0  0
   20.0684   -1.9478   13.8546 C   0  0  0  0  0  0  0  0  0  0  0  0
   20.8343   -2.7284   12.8516 C   0  0  0  0  0  0  0  0  0  0  0  0
   19.9243   -2.0899   15.2146 C   0  0  0  0  0  0  0  0  0  0  0  0
   20.7045   -3.3808   16.3239 Br  0  0  0  0  0  0  0  0  0  0  0  0
   11.8324   -2.6361   14.5359 C   0  0  0  0  0  0  0  0  0  0  0  0
   10.2562   -0.6583   15.5163 N   0  0  0  0  0  0  0  0  0  0  0  0
    9.5146    0.2840   16.2131 N   0  0  0  0  0  0  0  0  0  0  0  0
  1  2  1  0
  2  3  2  0
  3  4  1  0
  4  5  2  0
  5  6  1  0
  6  7  1  0
  7  8  1  0
  8  9  1  0
  9 10  2  0
 10 11  1  0
 11 12  2  0
 12 13  1  0
 13 14  2  0
 14 15  1  0
 15 16  1  0
 16 17  2  0
 16 18  1  0
 18 19  1  0
 19 20  2  0
 20 21  1  0
 21 22  1  0
 21 23  1  0
 23 24  1  0
 23 25  2  0
 25 26  1  0
 10 27  1  0
  5 28  1  0
 28 29  2  0
 29  2  1  0
 27  6  1  0
 14  9  1  0
 25 19  1  0
M  END
>  <ref_mols>  (773) 
B0693a

>  <gnina_score>  (773) 
5.201

>  <smina_score_min>  (773) 
-5.73

>  <ref_pdb>  (773) 
B0693a

>  <inspiration_score>  (773) 
None

>  <inchikey>  (773) 
CBJANVJJXKTCDM-UHFFFAOYSA-N

>  <tags>  (773) 
BulkDock Fragalysis export,openbind_d68ev3c_c2_elabs_scored,openbind_d68ev3c_c2_elabs_scored_4.5plus,openbind_d68ev3c_c2_elabs,openbind_d68ev3c_c2_elabs_scored_5plus,syndirella_product,openbind_d68ev3c_c2_elabs_scored_top80percent,syndirella_placed

>  <smiles>  (773) 
Cc1ccc(N2CCc3c(cccc3NC(=O)Cc3nn(C)c(C)c3Br)C2)nn1

>  <subsites>  (773) 
None

>  <rmsd(smina/fragmenstein)>  (773) 
2.011

>  <alias>  (773) 
None

>  <energy_score>  (773) 
-40.066728

>  <HIPPO Pose ID>  (773) 
86105

>  <distance_score>  (773) 
0.444984

>  <HIPPO Compound ID>  (773) 
119889

>  <gnina_score_min>  (773) 
5.179

>  <name>  (773) 
P86105

>  <exports>  (773) 
['/opt/xchem-fragalysis-2/maxwin/BulkDock/OUTPUTS/openbind_d68ev3c_c2_elabs_1LOTQJ3.sdf', '/opt/xchem-fragalysis-2/maxwin/BulkDock/OUTPUTS/openbind_d68ev3c_c2_elabs_1LSYEHW.sdf', '/opt/xchem-fragalysis-2/maxwin/BulkDock/OUTPUTS/openbind_d68ev3c_c2_elabs_1LSYI5W.sdf']

$$$$
P86106
     RDKit          3D

 29 31  0  0  0  0  0  0  0  0999 V2000
   20.1201   -0.1914   12.9972 C   0  0  0  0  0  0  0  0  0  0  0  0
   20.1604   -1.3050   13.9152 N   0  0  0  0  0  0  0  0  0  0  0  0
   20.7887   -2.4977   13.7256 C   0  0  0  0  0  0  0  0  0  0  0  0
   20.5921   -3.2176   14.8776 C   0  0  0  0  0  0  0  0  0  0  0  0
   21.1563   -4.7743   15.2250 Cl  0  0  0  0  0  0  0  0  0  0  0  0
   19.8190   -2.3795   15.7122 C   0  0  0  0  0  0  0  0  0  0  0  0
   19.3058   -2.6395   17.0899 C   0  0  0  0  0  0  0  0  0  0  0  0
   17.8427   -3.0916   17.0965 C   0  0  0  0  0  0  0  0  0  0  0  0
   17.5275   -4.0518   17.7441 O   0  0  0  0  0  0  0  0  0  0  0  0
   17.0403   -2.1683   16.3245 N   0  0  0  0  0  0  0  0  0  0  0  0
   15.6790   -2.1681   16.0269 C   0  0  0  0  0  0  0  0  0  0  0  0
   14.7846   -3.0082   16.6886 C   0  0  0  0  0  0  0  0  0  0  0  0
   13.4227   -2.9661   16.3784 C   0  0  0  0  0  0  0  0  0  0  0  0
   12.9469   -2.0545   15.4308 C   0  0  0  0  0  0  0  0  0  0  0  0
   11.1000   -2.0733   15.0345 Br  0  0  0  0  0  0  0  0  0  0  0  0
   13.8246   -1.1725   14.7892 C   0  0  0  0  0  0  0  0  0  0  0  0
   15.1971   -1.2859   15.0490 C   0  0  0  0  0  0  0  0  0  0  0  0
   16.0796   -0.4282   14.1971 C   0  0  0  0  0  0  0  0  0  0  0  0
   15.2264    0.2014   13.0912 C   0  0  0  0  0  0  0  0  0  0  0  0
   14.2161    1.1621   13.6221 N   0  0  0  0  0  0  0  0  0  0  0  0
   13.4570    2.1504   12.9706 C   0  0  0  0  0  0  0  0  0  0  0  0
   13.3587    2.4168   11.8075 O   0  0  0  0  0  0  0  0  0  0  0  0
   12.8444    2.8712   13.9486 O   0  0  0  0  0  0  0  0  0  0  0  0
   12.1348    4.1018   13.6692 C   0  0  0  0  0  0  0  0  0  0  0  0
   10.9181    3.8477   12.7781 C   0  0  0  0  0  0  0  0  0  0  0  0
   11.6455    4.5880   15.0419 C   0  0  0  0  0  0  0  0  0  0  0  0
   13.0690    5.1612   13.0759 C   0  0  0  0  0  0  0  0  0  0  0  0
   13.3914   -0.1237   13.7676 C   0  0  0  0  0  0  0  0  0  0  0  0
   19.5176   -1.2181   15.0991 N   0  0  0  0  0  0  0  0  0  0  0  0
  1  2  1  0
  2  3  1  0
  3  4  2  0
  4  5  1  0
  4  6  1  0
  6  7  1  0
  7  8  1  0
  8  9  2  0
  8 10  1  0
 10 11  1  0
 11 12  2  0
 12 13  1  0
 13 14  2  0
 14 15  1  0
 14 16  1  0
 16 17  2  0
 17 18  1  0
 18 19  1  0
 19 20  1  0
 20 21  1  0
 21 22  2  0
 21 23  1  0
 23 24  1  0
 24 25  1  0
 24 26  1  0
 24 27  1  0
 20 28  1  0
  6 29  2  0
 29  2  1  0
 17 11  1  0
 28 16  1  0
M  END
>  <ref_mols>  (774) 
B0693a

>  <gnina_score>  (774) 
5.102

>  <smina_score_min>  (774) 
-4.095

>  <ref_pdb>  (774) 
B0693a

>  <inspiration_score>  (774) 
None

>  <inchikey>  (774) 
FHEVXKSQSRNFTF-UHFFFAOYSA-N

>  <tags>  (774) 
BulkDock Fragalysis export,openbind_d68ev3c_c2_elabs_scored,openbind_d68ev3c_c2_elabs_scored_4.5plus,openbind_d68ev3c_c2_elabs,openbind_d68ev3c_c2_elabs_scored_5plus,syndirella_product,openbind_d68ev3c_c2_elabs_scored_top80percent,syndirella_placed

>  <smiles>  (774) 
Cn1cc(Cl)c(CC(=O)Nc2ccc(Br)c3c2CCN(C(=O)OC(C)(C)C)C3)n1

>  <subsites>  (774) 
None

>  <rmsd(smina/fragmenstein)>  (774) 
1.704

>  <alias>  (774) 
None

>  <energy_score>  (774) 
-0.216083

>  <HIPPO Pose ID>  (774) 
86106

>  <distance_score>  (774) 
1.726389

>  <HIPPO Compound ID>  (774) 
119894

>  <gnina_score_min>  (774) 
5.123

>  <name>  (774) 
P86106

>  <exports>  (774) 
['/opt/xchem-fragalysis-2/maxwin/BulkDock/OUTPUTS/openbind_d68ev3c_c2_elabs_1LOTQJ3.sdf', '/opt/xchem-fragalysis-2/maxwin/BulkDock/OUTPUTS/openbind_d68ev3c_c2_elabs_1LSYEHW.sdf', '/opt/xchem-fragalysis-2/maxwin/BulkDock/OUTPUTS/openbind_d68ev3c_c2_elabs_1LSYI5W.sdf']

$$$$
P86110
     RDKit          3D

 29 32  0  0  0  0  0  0  0  0999 V2000
    8.8561    2.4073   16.8210 C   0  0  0  0  0  0  0  0  0  0  0  0
    9.6601    1.4451   16.0083 C   0  0  0  0  0  0  0  0  0  0  0  0
   10.5544    1.8850   15.0494 C   0  0  0  0  0  0  0  0  0  0  0  0
   11.2971    0.9476   14.3274 C   0  0  0  0  0  0  0  0  0  0  0  0
   11.1629   -0.4105   14.5858 C   0  0  0  0  0  0  0  0  0  0  0  0
   11.9236   -1.3781   13.9132 N   0  0  0  0  0  0  0  0  0  0  0  0
   13.2633   -1.0680   13.4033 C   0  0  0  0  0  0  0  0  0  0  0  0
   14.2933   -0.9972   14.5348 C   0  0  0  0  0  0  0  0  0  0  0  0
   14.1141   -2.0586   15.6037 C   0  0  0  0  0  0  0  0  0  0  0  0
   12.9112   -2.8095   15.6395 C   0  0  0  0  0  0  0  0  0  0  0  0
   12.6952   -3.7214   16.6792 C   0  0  0  0  0  0  0  0  0  0  0  0
   13.6464   -3.8967   17.6758 C   0  0  0  0  0  0  0  0  0  0  0  0
   14.8365   -3.1748   17.6363 C   0  0  0  0  0  0  0  0  0  0  0  0
   15.0815   -2.2565   16.6113 C   0  0  0  0  0  0  0  0  0  0  0  0
   16.2808   -1.5373   16.5978 N   0  0  0  0  0  0  0  0  0  0  0  0
   17.5514   -1.6654   17.5008 C   0  0  0  0  0  0  0  0  0  0  0  0
   17.7513   -2.3395   18.4384 O   0  0  0  0  0  0  0  0  0  0  0  0
   18.5751   -0.6717   16.9692 C   0  0  0  0  0  0  0  0  0  0  0  0
   19.0420   -1.0539   15.6090 C   0  0  0  0  0  0  0  0  0  0  0  0
   19.9274   -2.0955   15.2504 C   0  0  0  0  0  0  0  0  0  0  0  0
   20.0379   -2.0145   13.8837 C   0  0  0  0  0  0  0  0  0  0  0  0
   19.2491   -0.9691   13.4998 N   0  0  0  0  0  0  0  0  0  0  0  0
   19.0376   -0.5026   12.1329 C   0  0  0  0  0  0  0  0  0  0  0  0
   17.5919   -0.7240   11.6876 C   0  0  0  0  0  0  0  0  0  0  0  0
   19.4551    0.9578   11.9681 C   0  0  0  0  0  0  0  0  0  0  0  0
   18.5996   -0.3883   14.5321 N   0  0  0  0  0  0  0  0  0  0  0  0
   11.8737   -2.7027   14.5347 C   0  0  0  0  0  0  0  0  0  0  0  0
   10.2390   -0.7856   15.5107 N   0  0  0  0  0  0  0  0  0  0  0  0
    9.4821    0.1289   16.2231 N   0  0  0  0  0  0  0  0  0  0  0  0
  1  2  1  0
  2  3  2  0
  3  4  1  0
  4  5  2  0
  5  6  1  0
  6  7  1  0
  7  8  1  0
  8  9  1  0
  9 10  2  0
 10 11  1  0
 11 12  2  0
 12 13  1  0
 13 14  2  0
 14 15  1  0
 15 16  1  0
 16 17  2  0
 16 18  1  0
 18 19  1  0
 19 20  1  0
 20 21  2  0
 21 22  1  0
 22 23  1  0
 23 24  1  0
 23 25  1  0
 22 26  1  0
 10 27  1  0
  5 28  1  0
 28 29  2  0
 29  2  1  0
 27  6  1  0
 14  9  1  0
 26 19  2  0
M  END
>  <ref_mols>  (775) 
B0693a

>  <gnina_score>  (775) 
5.04

>  <smina_score_min>  (775) 
-5.544

>  <ref_pdb>  (775) 
B0693a

>  <inspiration_score>  (775) 
None

>  <inchikey>  (775) 
CYETXDHRRJTNSI-UHFFFAOYSA-N

>  <tags>  (775) 
BulkDock Fragalysis export,openbind_d68ev3c_c2_elabs_scored,openbind_d68ev3c_c2_elabs_scored_4.5plus,openbind_d68ev3c_c2_elabs,openbind_d68ev3c_c2_elabs_scored_5plus,syndirella_product,openbind_d68ev3c_c2_elabs_scored_top80percent,syndirella_placed

>  <smiles>  (775) 
Cc1ccc(N2CCc3c(cccc3NC(=O)Cc3ccn(C(C)C)n3)C2)nn1

>  <subsites>  (775) 
None

>  <rmsd(smina/fragmenstein)>  (775) 
1.416

>  <alias>  (775) 
None

>  <energy_score>  (775) 
-57.253244

>  <HIPPO Pose ID>  (775) 
86110

>  <distance_score>  (775) 
0.485197

>  <HIPPO Compound ID>  (775) 
119917

>  <gnina_score_min>  (775) 
5.005

>  <name>  (775) 
P86110

>  <exports>  (775) 
['/opt/xchem-fragalysis-2/maxwin/BulkDock/OUTPUTS/openbind_d68ev3c_c2_elabs_1LOTQJ3.sdf', '/opt/xchem-fragalysis-2/maxwin/BulkDock/OUTPUTS/openbind_d68ev3c_c2_elabs_1LSYEHW.sdf', '/opt/xchem-fragalysis-2/maxwin/BulkDock/OUTPUTS/openbind_d68ev3c_c2_elabs_1LSYI5W.sdf']

$$$$
P86126
     RDKit          3D

 29 31  0  0  0  0  0  0  0  0999 V2000
   18.7060    0.2270   11.8129 C   0  0  0  0  0  0  0  0  0  0  0  0
   18.8982   -0.7939   12.8148 N   0  0  0  0  0  0  0  0  0  0  0  0
   19.7085   -1.8844   12.7247 C   0  0  0  0  0  0  0  0  0  0  0  0
   19.5948   -2.5434   13.9240 C   0  0  0  0  0  0  0  0  0  0  0  0
   18.6749   -1.7789   14.6801 C   0  0  0  0  0  0  0  0  0  0  0  0
   18.2010   -2.0232   16.0808 C   0  0  2  0  0  0  0  0  0  0  0  0
   19.0604   -2.9364   16.7793 O   0  0  0  0  0  0  0  0  0  0  0  0
   16.7285   -2.5357   16.1278 C   0  0  0  0  0  0  0  0  0  0  0  0
   16.4869   -3.4618   16.8589 O   0  0  0  0  0  0  0  0  0  0  0  0
   15.8513   -1.7162   15.3187 N   0  0  0  0  0  0  0  0  0  0  0  0
   14.4601   -1.6928   15.2131 C   0  0  0  0  0  0  0  0  0  0  0  0
   13.6756   -2.6116   15.9149 C   0  0  0  0  0  0  0  0  0  0  0  0
   12.2826   -2.5272   15.8807 C   0  0  0  0  0  0  0  0  0  0  0  0
   11.6665   -1.4799   15.1980 C   0  0  0  0  0  0  0  0  0  0  0  0
    9.9541   -1.3098   15.2977 Cl  0  0  0  0  0  0  0  0  0  0  0  0
   12.4369   -0.5534   14.4881 C   0  0  0  0  0  0  0  0  0  0  0  0
   13.8290   -0.7095   14.4399 C   0  0  0  0  0  0  0  0  0  0  0  0
   14.5329    0.2514   13.5331 C   0  0  0  0  0  0  0  0  0  0  0  0
   13.4750    0.9967   12.6913 C   0  0  0  0  0  0  0  0  0  0  0  0
   12.6005    1.8971   13.5144 N   0  0  0  0  0  0  0  0  0  0  0  0
   11.7241    2.9302   13.1313 C   0  0  0  0  0  0  0  0  0  0  0  0
   11.3806    3.2990   12.0436 O   0  0  0  0  0  0  0  0  0  0  0  0
   11.3591    3.5662   14.2791 O   0  0  0  0  0  0  0  0  0  0  0  0
   10.7902    4.9007   14.2758 C   0  0  0  0  0  0  0  0  0  0  0  0
   11.6940    5.8949   13.5361 C   0  0  0  0  0  0  0  0  0  0  0  0
    9.3685    4.9031   13.7150 C   0  0  0  0  0  0  0  0  0  0  0  0
   10.7348    5.3026   15.7580 C   0  0  0  0  0  0  0  0  0  0  0  0
   11.8233    0.6010   13.7130 C   0  0  0  0  0  0  0  0  0  0  0  0
   18.2216   -0.7211   13.9805 N   0  0  0  0  0  0  0  0  0  0  0  0
  1  2  1  0
  2  3  1  0
  3  4  2  0
  4  5  1  0
  5  6  1  0
  6  7  1  6
  6  8  1  0
  8  9  2  0
  8 10  1  0
 10 11  1  0
 11 12  2  0
 12 13  1  0
 13 14  2  0
 14 15  1  0
 14 16  1  0
 16 17  2  0
 17 18  1  0
 18 19  1  0
 19 20  1  0
 20 21  1  0
 21 22  2  0
 21 23  1  0
 23 24  1  0
 24 25  1  0
 24 26  1  0
 24 27  1  0
 20 28  1  0
  5 29  2  0
 29  2  1  0
 17 11  1  0
 28 16  1  0
M  END
>  <ref_mols>  (776) 
B0693a

>  <gnina_score>  (776) 
4.871

>  <smina_score_min>  (776) 
-4.563

>  <ref_pdb>  (776) 
B0693a

>  <inspiration_score>  (776) 
None

>  <inchikey>  (776) 
MBPBMSXKBIGRHU-KRWDZBQOSA-N

>  <tags>  (776) 
BulkDock Fragalysis export,openbind_d68ev3c_c2_elabs_scored,openbind_d68ev3c_c2_elabs_scored_4.5plus,openbind_d68ev3c_c2_elabs,openbind_d68ev3c_c2_elabs_scored_5plus,syndirella_product,openbind_d68ev3c_c2_elabs_scored_top80percent,syndirella_placed

>  <smiles>  (776) 
Cn1ccc([C@H](O)C(=O)Nc2ccc(Cl)c3c2CCN(C(=O)OC(C)(C)C)C3)n1

>  <subsites>  (776) 
None

>  <rmsd(smina/fragmenstein)>  (776) 
1.555

>  <alias>  (776) 
None

>  <energy_score>  (776) 
-5.178495

>  <HIPPO Pose ID>  (776) 
86126

>  <distance_score>  (776) 
1.995657

>  <HIPPO Compound ID>  (776) 
119948

>  <gnina_score_min>  (776) 
5.084

>  <name>  (776) 
P86126

>  <exports>  (776) 
['/opt/xchem-fragalysis-2/maxwin/BulkDock/OUTPUTS/openbind_d68ev3c_c2_elabs_1LOTQJ3.sdf', '/opt/xchem-fragalysis-2/maxwin/BulkDock/OUTPUTS/openbind_d68ev3c_c2_elabs_1LSYEHW.sdf', '/opt/xchem-fragalysis-2/maxwin/BulkDock/OUTPUTS/openbind_d68ev3c_c2_elabs_1LSYI5W.sdf']

$$$$
P86130
     RDKit          3D

 29 32  0  0  0  0  0  0  0  0999 V2000
   13.2607    2.9661   14.1639 C   0  0  0  0  0  0  0  0  0  0  0  0
   12.4768    2.4265   12.9977 C   0  0  0  0  0  0  0  0  0  0  0  0
   11.4697    0.9928   13.3637 S   0  0  0  0  0  0  0  0  0  0  0  0
   10.9100    0.5875   12.0930 O   0  0  0  0  0  0  0  0  0  0  0  0
   10.5732    1.3350   14.4495 O   0  0  0  0  0  0  0  0  0  0  0  0
   12.5035   -0.1950   13.9094 N   0  0  0  0  0  0  0  0  0  0  0  0
   13.7548   -0.5284   13.2149 C   0  0  0  0  0  0  0  0  0  0  0  0
   14.7862   -0.8388   14.3086 C   0  0  0  0  0  0  0  0  0  0  0  0
   14.2757   -1.8220   15.3468 C   0  0  0  0  0  0  0  0  0  0  0  0
   12.9012   -2.1648   15.3586 C   0  0  0  0  0  0  0  0  0  0  0  0
   12.4517   -3.1689   16.2240 C   0  0  0  0  0  0  0  0  0  0  0  0
   13.3220   -3.7535   17.1406 C   0  0  0  0  0  0  0  0  0  0  0  0
   14.6519   -3.3410   17.2018 C   0  0  0  0  0  0  0  0  0  0  0  0
   15.1352   -2.3736   16.3177 C   0  0  0  0  0  0  0  0  0  0  0  0
   16.4470   -1.9073   16.4380 N   0  0  0  0  0  0  0  0  0  0  0  0
   17.6380   -2.4402   17.2988 C   0  0  0  0  0  0  0  0  0  0  0  0
   17.6750   -3.3013   18.0924 O   0  0  0  0  0  0  0  0  0  0  0  0
   18.8348   -1.5382   17.0141 C   0  0  0  0  0  0  0  0  0  0  0  0
   19.2094   -1.5363   15.5727 C   0  0  0  0  0  0  0  0  0  0  0  0
   19.9939   -2.4833   14.8860 C   0  0  0  0  0  0  0  0  0  0  0  0
   20.0562   -2.0355   13.5886 C   0  0  0  0  0  0  0  0  0  0  0  0
   20.6727   -2.5446   12.4800 N   0  0  0  0  0  0  0  0  0  0  0  0
   20.5367   -1.8495   11.3878 C   0  0  0  0  0  0  0  0  0  0  0  0
   19.7796   -0.5667   11.2507 C   0  0  0  0  0  0  0  0  0  0  0  0
   19.6939    0.2774    9.6096 Br  0  0  0  0  0  0  0  0  0  0  0  0
   19.1979   -0.1253   12.3735 C   0  0  0  0  0  0  0  0  0  0  0  0
   19.3233   -0.8474   13.5529 N   0  0  0  0  0  0  0  0  0  0  0  0
   18.7670   -0.5645   14.7610 N   0  0  0  0  0  0  0  0  0  0  0  0
   11.9028   -1.4326   14.4704 C   0  0  0  0  0  0  0  0  0  0  0  0
  1  2  1  0
  2  3  1  0
  3  4  2  0
  3  5  2  0
  3  6  1  0
  6  7  1  0
  7  8  1  0
  8  9  1  0
  9 10  2  0
 10 11  1  0
 11 12  2  0
 12 13  1  0
 13 14  2  0
 14 15  1  0
 15 16  1  0
 16 17  2  0
 16 18  1  0
 18 19  1  0
 19 20  1  0
 20 21  2  0
 21 22  1  0
 22 23  2  0
 23 24  1  0
 24 25  1  0
 24 26  2  0
 26 27  1  0
 27 28  1  0
 10 29  1  0
 29  6  1  0
 14  9  1  0
 28 19  2  0
 27 21  1  0
M  END
>  <ref_mols>  (777) 
B0693a

>  <gnina_score>  (777) 
5.218

>  <smina_score_min>  (777) 
-4.72

>  <ref_pdb>  (777) 
B0693a

>  <inspiration_score>  (777) 
None

>  <inchikey>  (777) 
YSRGTMAVURATON-UHFFFAOYSA-N

>  <tags>  (777) 
BulkDock Fragalysis export,openbind_d68ev3c_c2_elabs_scored,openbind_d68ev3c_c2_elabs_scored_4.5plus,openbind_d68ev3c_c2_elabs,openbind_d68ev3c_c2_elabs_scored_5plus,syndirella_product,openbind_d68ev3c_c2_elabs_scored_top80percent,syndirella_placed

>  <smiles>  (777) 
CCS(=O)(=O)N1CCc2c(cccc2NC(=O)Cc2cc3ncc(Br)cn3n2)C1

>  <subsites>  (777) 
None

>  <rmsd(smina/fragmenstein)>  (777) 
2.374

>  <alias>  (777) 
None

>  <energy_score>  (777) 
-81.018893

>  <HIPPO Pose ID>  (777) 
86130

>  <distance_score>  (777) 
0.67016

>  <HIPPO Compound ID>  (777) 
119956

>  <gnina_score_min>  (777) 
5.057

>  <name>  (777) 
P86130

>  <exports>  (777) 
['/opt/xchem-fragalysis-2/maxwin/BulkDock/OUTPUTS/openbind_d68ev3c_c2_elabs_1LOTQJ3.sdf', '/opt/xchem-fragalysis-2/maxwin/BulkDock/OUTPUTS/openbind_d68ev3c_c2_elabs_1LSYEHW.sdf', '/opt/xchem-fragalysis-2/maxwin/BulkDock/OUTPUTS/openbind_d68ev3c_c2_elabs_1LSYI5W.sdf']

$$$$
P86135
     RDKit          3D

 29 32  0  0  0  0  0  0  0  0999 V2000
   17.5987   -2.2523   18.5947 O   0  0  0  0  0  0  0  0  0  0  0  0
   17.5173   -1.7058   17.5616 C   0  0  0  0  0  0  0  0  0  0  0  0
   18.6555   -0.8380   17.0139 C   0  0  0  0  0  0  0  0  0  0  0  0
   19.0485   -1.1980   15.6203 C   0  0  0  0  0  0  0  0  0  0  0  0
   19.3371   -0.2348   14.6871 N   0  0  0  0  0  0  0  0  0  0  0  0
   19.5865   -0.7060   13.4551 N   0  0  0  0  0  0  0  0  0  0  0  0
   19.5686   -2.0413   13.5825 C   0  0  0  0  0  0  0  0  0  0  0  0
   19.7893   -3.0423   12.6224 C   0  0  0  0  0  0  0  0  0  0  0  0
   19.6683   -4.3560   13.1284 C   0  0  0  0  0  0  0  0  0  0  0  0
   19.3547   -4.6440   14.4928 C   0  0  0  0  0  0  0  0  0  0  0  0
   19.2282   -6.4681   15.0120 Br  0  0  0  0  0  0  0  0  0  0  0  0
   19.1251   -3.6638   15.4796 C   0  0  0  0  0  0  0  0  0  0  0  0
   19.2457   -2.3811   14.9493 C   0  0  0  0  0  0  0  0  0  0  0  0
   16.3328   -1.6357   16.5439 N   0  0  0  0  0  0  0  0  0  0  0  0
   15.0932   -2.2784   16.5504 C   0  0  0  0  0  0  0  0  0  0  0  0
   14.7647   -3.1496   17.5918 C   0  0  0  0  0  0  0  0  0  0  0  0
   13.5316   -3.7954   17.6117 C   0  0  0  0  0  0  0  0  0  0  0  0
   12.6111   -3.5655   16.5960 C   0  0  0  0  0  0  0  0  0  0  0  0
   12.9058   -2.6830   15.5504 C   0  0  0  0  0  0  0  0  0  0  0  0
   14.1718   -2.0549   15.5059 C   0  0  0  0  0  0  0  0  0  0  0  0
   14.4912   -1.1293   14.3506 C   0  0  0  0  0  0  0  0  0  0  0  0
   13.4416   -1.1521   13.2268 C   0  0  0  0  0  0  0  0  0  0  0  0
   12.0434   -1.2471   13.6890 N   0  0  0  0  0  0  0  0  0  0  0  0
   11.6314   -0.0336   14.4482 C   0  0  0  0  0  0  0  0  0  0  0  0
   10.2455    0.0584   15.1289 C   0  0  0  0  0  0  0  0  0  0  0  0
    9.2170   -0.0412   14.2679 F   0  0  0  0  0  0  0  0  0  0  0  0
   10.0685   -0.8756   16.0969 F   0  0  0  0  0  0  0  0  0  0  0  0
   10.1191    1.2644   15.7408 F   0  0  0  0  0  0  0  0  0  0  0  0
   11.8919   -2.5000   14.4417 C   0  0  0  0  0  0  0  0  0  0  0  0
  1  2  2  0
  2  3  1  0
  3  4  1  0
  4  5  1  0
  5  6  1  0
  6  7  2  0
  7  8  1  0
  8  9  2  0
  9 10  1  0
 10 11  1  0
 10 12  2  0
 12 13  1  0
  2 14  1  0
 14 15  1  0
 15 16  2  0
 16 17  1  0
 17 18  2  0
 18 19  1  0
 19 20  2  0
 20 21  1  0
 21 22  1  0
 22 23  1  0
 23 24  1  0
 24 25  1  0
 25 26  1  0
 25 27  1  0
 25 28  1  0
 23 29  1  0
 13  4  2  0
 20 15  1  0
 13  7  1  0
 29 19  1  0
M  END
>  <ref_mols>  (778) 
B0693a

>  <gnina_score>  (778) 
5.213

>  <smina_score_min>  (778) 
-4.958

>  <ref_pdb>  (778) 
B0693a

>  <inspiration_score>  (778) 
None

>  <inchikey>  (778) 
XLXNKUADFCHMPQ-UHFFFAOYSA-N

>  <tags>  (778) 
BulkDock Fragalysis export,openbind_d68ev3c_c2_elabs_scored,openbind_d68ev3c_c2_elabs_scored_4.5plus,openbind_d68ev3c_c2_elabs,openbind_d68ev3c_c2_elabs_scored_5plus,syndirella_product,openbind_d68ev3c_c2_elabs_scored_top80percent,syndirella_placed

>  <smiles>  (778) 
O=C(Cc1[nH]nc2ccc(Br)cc12)Nc1cccc2c1CCN(CC(F)(F)F)C2

>  <subsites>  (778) 
None

>  <rmsd(smina/fragmenstein)>  (778) 
0.737

>  <alias>  (778) 
None

>  <energy_score>  (778) 
-44.29274

>  <HIPPO Pose ID>  (778) 
86135

>  <distance_score>  (778) 
0.383458

>  <HIPPO Compound ID>  (778) 
119963

>  <gnina_score_min>  (778) 
5.058

>  <name>  (778) 
P86135

>  <exports>  (778) 
['/opt/xchem-fragalysis-2/maxwin/BulkDock/OUTPUTS/openbind_d68ev3c_c2_elabs_1LOTQJ3.sdf', '/opt/xchem-fragalysis-2/maxwin/BulkDock/OUTPUTS/openbind_d68ev3c_c2_elabs_1LSYEHW.sdf', '/opt/xchem-fragalysis-2/maxwin/BulkDock/OUTPUTS/openbind_d68ev3c_c2_elabs_1LSYI5W.sdf']

$$$$
P86144
     RDKit          3D

 29 32  0  0  0  0  0  0  0  0999 V2000
   17.8713   -3.3302   18.1464 O   0  0  0  0  0  0  0  0  0  0  0  0
   17.7464   -2.4382   17.3972 C   0  0  0  0  0  0  0  0  0  0  0  0
   18.8626   -1.4425   17.1062 C   0  0  0  0  0  0  0  0  0  0  0  0
   19.2565   -1.4647   15.6697 C   0  0  0  0  0  0  0  0  0  0  0  0
   19.0049   -0.4048   14.8864 N   0  0  0  0  0  0  0  0  0  0  0  0
   19.5267   -0.7552   13.6956 N   0  0  0  0  0  0  0  0  0  0  0  0
   20.0291   -2.0273   13.6585 C   0  0  0  0  0  0  0  0  0  0  0  0
   20.6081   -2.7687   12.6244 C   0  0  0  0  0  0  0  0  0  0  0  0
   21.0243   -4.0623   12.9395 C   0  0  0  0  0  0  0  0  0  0  0  0
   21.5895   -4.8108   11.9828 F   0  0  0  0  0  0  0  0  0  0  0  0
   20.8737   -4.5961   14.2149 C   0  0  0  0  0  0  0  0  0  0  0  0
   20.2954   -3.8346   15.2381 C   0  0  0  0  0  0  0  0  0  0  0  0
   19.8679   -2.5245   14.9477 C   0  0  0  0  0  0  0  0  0  0  0  0
   16.5157   -2.0020   16.5390 N   0  0  0  0  0  0  0  0  0  0  0  0
   15.2127   -2.5011   16.5047 C   0  0  0  0  0  0  0  0  0  0  0  0
   14.8138   -3.5001   17.3927 C   0  0  0  0  0  0  0  0  0  0  0  0
   13.5066   -3.9823   17.3704 C   0  0  0  0  0  0  0  0  0  0  0  0
   12.5845   -3.4663   16.4643 C   0  0  0  0  0  0  0  0  0  0  0  0
   12.9507   -2.4411   15.5868 C   0  0  0  0  0  0  0  0  0  0  0  0
   14.2870   -1.9768   15.5811 C   0  0  0  0  0  0  0  0  0  0  0  0
   14.6804   -0.8755   14.6187 C   0  0  0  0  0  0  0  0  0  0  0  0
   13.5852   -0.5003   13.6156 C   0  0  0  0  0  0  0  0  0  0  0  0
   12.2887   -0.4611   14.3040 N   0  0  0  0  0  0  0  0  0  0  0  0
   11.2509    0.2459   13.5319 C   0  0  0  0  0  0  0  0  0  0  0  0
   11.3061    1.7870   13.4847 C   0  0  0  0  0  0  0  0  0  0  0  0
   10.3987    2.2441   12.5741 F   0  0  0  0  0  0  0  0  0  0  0  0
   12.5038    2.2704   13.0978 F   0  0  0  0  0  0  0  0  0  0  0  0
   10.9774    2.3437   14.6703 F   0  0  0  0  0  0  0  0  0  0  0  0
   11.9157   -1.8389   14.6555 C   0  0  0  0  0  0  0  0  0  0  0  0
  1  2  2  0
  2  3  1  0
  3  4  1  0
  4  5  2  0
  5  6  1  0
  6  7  1  0
  7  8  2  0
  8  9  1  0
  9 10  1  0
  9 11  2  0
 11 12  1  0
 12 13  2  0
  2 14  1  0
 14 15  1  0
 15 16  2  0
 16 17  1  0
 17 18  2  0
 18 19  1  0
 19 20  2  0
 20 21  1  0
 21 22  1  0
 22 23  1  0
 23 24  1  0
 24 25  1  0
 25 26  1  0
 25 27  1  0
 25 28  1  0
 23 29  1  0
 13  4  1  0
 20 15  1  0
 13  7  1  0
 29 19  1  0
M  END
>  <ref_mols>  (779) 
B0693a

>  <gnina_score>  (779) 
5.168

>  <smina_score_min>  (779) 
-4.791

>  <ref_pdb>  (779) 
B0693a

>  <inspiration_score>  (779) 
None

>  <inchikey>  (779) 
GJXCRBHKMCICCB-UHFFFAOYSA-N

>  <tags>  (779) 
BulkDock Fragalysis export,openbind_d68ev3c_c2_elabs_scored,openbind_d68ev3c_c2_elabs_scored_4.5plus,openbind_d68ev3c_c2_elabs,openbind_d68ev3c_c2_elabs_scored_5plus,syndirella_product,openbind_d68ev3c_c2_elabs_scored_top80percent,syndirella_placed

>  <smiles>  (779) 
O=C(Cc1n[nH]c2cc(F)ccc12)Nc1cccc2c1CCN(CC(F)(F)F)C2

>  <subsites>  (779) 
None

>  <rmsd(smina/fragmenstein)>  (779) 
2.078

>  <alias>  (779) 
None

>  <energy_score>  (779) 
-50.05825

>  <HIPPO Pose ID>  (779) 
86144

>  <distance_score>  (779) 
0.599762

>  <HIPPO Compound ID>  (779) 
119979

>  <gnina_score_min>  (779) 
5.003

>  <name>  (779) 
P86144

>  <exports>  (779) 
['/opt/xchem-fragalysis-2/maxwin/BulkDock/OUTPUTS/openbind_d68ev3c_c2_elabs_1LOTQJ3.sdf', '/opt/xchem-fragalysis-2/maxwin/BulkDock/OUTPUTS/openbind_d68ev3c_c2_elabs_1LSYEHW.sdf', '/opt/xchem-fragalysis-2/maxwin/BulkDock/OUTPUTS/openbind_d68ev3c_c2_elabs_1LSYI5W.sdf']

$$$$
P86146
     RDKit          3D

 29 31  0  0  0  0  0  0  0  0999 V2000
   11.6264   -3.2617   13.3865 C   0  0  0  0  0  0  0  0  0  0  0  0
   11.3862   -1.6287   14.1073 S   0  0  0  0  0  0  0  0  0  0  0  0
   10.2383   -1.6404   14.9941 O   0  0  0  0  0  0  0  0  0  0  0  0
   11.5885   -0.6054   13.1064 O   0  0  0  0  0  0  0  0  0  0  0  0
   12.7330   -1.5906   15.1124 N   0  0  0  0  0  0  0  0  0  0  0  0
   14.0459   -1.4359   14.4551 C   0  0  0  0  0  0  0  0  0  0  0  0
   15.1336   -1.2324   15.5001 C   0  0  0  0  0  0  0  0  0  0  0  0
   15.1247   -2.3234   16.5462 C   0  0  0  0  0  0  0  0  0  0  0  0
   13.9129   -2.9794   16.8295 C   0  0  0  0  0  0  0  0  0  0  0  0
   13.8377   -3.9803   17.8046 C   0  0  0  0  0  0  0  0  0  0  0  0
   14.9651   -4.3241   18.5213 C   0  0  0  0  0  0  0  0  0  0  0  0
   16.1672   -3.6683   18.2681 C   0  0  0  0  0  0  0  0  0  0  0  0
   16.2587   -2.6681   17.2963 C   0  0  0  0  0  0  0  0  0  0  0  0
   17.4737   -2.0261   17.0671 N   0  0  0  0  0  0  0  0  0  0  0  0
   18.8833   -2.2673   17.6978 C   0  0  0  0  0  0  0  0  0  0  0  0
   19.2488   -3.0914   18.4460 O   0  0  0  0  0  0  0  0  0  0  0  0
   19.8094   -1.2056   17.1178 C   0  0  0  0  0  0  0  0  0  0  0  0
   19.8224   -1.2543   15.6263 C   0  0  0  0  0  0  0  0  0  0  0  0
   19.1365   -0.3314   14.9276 N   0  0  0  0  0  0  0  0  0  0  0  0
   19.4256   -0.6156   13.6404 N   0  0  0  0  0  0  0  0  0  0  0  0
   18.8973    0.2195   12.5857 C   0  0  0  0  0  0  0  0  0  0  0  0
   19.9257    1.1972   12.0871 C   0  0  0  0  0  0  0  0  0  0  0  0
   19.3950    1.9538   11.0947 F   0  0  0  0  0  0  0  0  0  0  0  0
   20.3538    2.0426   13.0461 F   0  0  0  0  0  0  0  0  0  0  0  0
   21.0035    0.5689   11.5670 F   0  0  0  0  0  0  0  0  0  0  0  0
   20.1348   -1.7710   13.4914 C   0  0  0  0  0  0  0  0  0  0  0  0
   20.4228   -2.1929   14.7630 C   0  0  0  0  0  0  0  0  0  0  0  0
   21.5243   -3.8536   15.2385 I   0  0  0  0  0  0  0  0  0  0  0  0
   12.6418   -2.6286   16.1428 C   0  0  0  0  0  0  0  0  0  0  0  0
  1  2  1  0
  2  3  2  0
  2  4  2  0
  2  5  1  0
  5  6  1  0
  6  7  1  0
  7  8  1  0
  8  9  2  0
  9 10  1  0
 10 11  2  0
 11 12  1  0
 12 13  2  0
 13 14  1  0
 14 15  1  0
 15 16  2  0
 15 17  1  0
 17 18  1  0
 18 19  2  0
 19 20  1  0
 20 21  1  0
 21 22  1  0
 22 23  1  0
 22 24  1  0
 22 25  1  0
 20 26  1  0
 26 27  2  0
 27 28  1  0
  9 29  1  0
 29  5  1  0
 13  8  1  0
 27 18  1  0
M  END
>  <ref_mols>  (780) 
B0693a

>  <gnina_score>  (780) 
5.321

>  <smina_score_min>  (780) 
-3.619

>  <ref_pdb>  (780) 
B0693a

>  <inspiration_score>  (780) 
None

>  <inchikey>  (780) 
GHNFZGBZHGYDDF-UHFFFAOYSA-N

>  <tags>  (780) 
BulkDock Fragalysis export,openbind_d68ev3c_c2_elabs_scored,openbind_d68ev3c_c2_elabs_scored_4.5plus,openbind_d68ev3c_c2_elabs,openbind_d68ev3c_c2_elabs_scored_5plus,syndirella_product,openbind_d68ev3c_c2_elabs_scored_top80percent,syndirella_placed

>  <smiles>  (780) 
CS(=O)(=O)N1CCc2c(cccc2NC(=O)Cc2nn(CC(F)(F)F)cc2I)C1

>  <subsites>  (780) 
None

>  <rmsd(smina/fragmenstein)>  (780) 
1.74

>  <alias>  (780) 
None

>  <energy_score>  (780) 
-49.987159

>  <HIPPO Pose ID>  (780) 
86146

>  <distance_score>  (780) 
1.478194

>  <HIPPO Compound ID>  (780) 
119982

>  <gnina_score_min>  (780) 
5.201

>  <name>  (780) 
P86146

>  <exports>  (780) 
['/opt/xchem-fragalysis-2/maxwin/BulkDock/OUTPUTS/openbind_d68ev3c_c2_elabs_1LOTQJ3.sdf', '/opt/xchem-fragalysis-2/maxwin/BulkDock/OUTPUTS/openbind_d68ev3c_c2_elabs_1LSYEHW.sdf', '/opt/xchem-fragalysis-2/maxwin/BulkDock/OUTPUTS/openbind_d68ev3c_c2_elabs_1LSYI5W.sdf']

$$$$
P86151
     RDKit          3D

 29 32  0  0  0  0  0  0  0  0999 V2000
   18.9805   -2.9833   18.4460 O   0  0  0  0  0  0  0  0  0  0  0  0
   18.6474   -2.1643   17.6768 C   0  0  0  0  0  0  0  0  0  0  0  0
   19.6202   -1.1628   17.0570 C   0  0  0  0  0  0  0  0  0  0  0  0
   19.6237   -1.2955   15.5714 C   0  0  0  0  0  0  0  0  0  0  0  0
   20.2488   -2.2926   14.7965 C   0  0  0  0  0  0  0  0  0  0  0  0
   19.8610   -2.0463   13.5016 C   0  0  0  0  0  0  0  0  0  0  0  0
   20.1163   -2.7098   12.3339 N   0  0  0  0  0  0  0  0  0  0  0  0
   19.5228   -2.2408   11.2741 C   0  0  0  0  0  0  0  0  0  0  0  0
   18.6170   -1.0508   11.2296 C   0  0  0  0  0  0  0  0  0  0  0  0
   17.8290   -0.5527    9.6341 Br  0  0  0  0  0  0  0  0  0  0  0  0
   18.4325   -0.4305   12.4022 C   0  0  0  0  0  0  0  0  0  0  0  0
   19.0445   -0.9149   13.5508 N   0  0  0  0  0  0  0  0  0  0  0  0
   18.8992   -0.4535   14.8208 N   0  0  0  0  0  0  0  0  0  0  0  0
   17.2393   -1.8603   17.0663 N   0  0  0  0  0  0  0  0  0  0  0  0
   16.0267   -2.5387   17.2034 C   0  0  0  0  0  0  0  0  0  0  0  0
   15.9202   -3.6101   18.0921 C   0  0  0  0  0  0  0  0  0  0  0  0
   14.7213   -4.3017   18.2434 C   0  0  0  0  0  0  0  0  0  0  0  0
   13.6112   -3.9186   17.5142 C   0  0  0  0  0  0  0  0  0  0  0  0
   13.6930   -2.8376   16.6281 C   0  0  0  0  0  0  0  0  0  0  0  0
   14.9073   -2.1519   16.4461 C   0  0  0  0  0  0  0  0  0  0  0  0
   14.9212   -0.9713   15.5106 C   0  0  0  0  0  0  0  0  0  0  0  0
   13.8553   -1.0860   14.4276 C   0  0  0  0  0  0  0  0  0  0  0  0
   12.5099   -1.3961   14.9263 N   0  0  0  0  0  0  0  0  0  0  0  0
   11.6331   -1.8280   13.8200 C   0  0  0  0  0  0  0  0  0  0  0  0
   11.9090   -3.2291   13.2118 C   0  0  0  0  0  0  0  0  0  0  0  0
   13.2239   -3.4778   13.1271 F   0  0  0  0  0  0  0  0  0  0  0  0
   11.4468   -3.3657   11.9669 F   0  0  0  0  0  0  0  0  0  0  0  0
   11.3198   -4.1928   13.9453 F   0  0  0  0  0  0  0  0  0  0  0  0
   12.4207   -2.3920   15.9880 C   0  0  0  0  0  0  0  0  0  0  0  0
  1  2  2  0
  2  3  1  0
  3  4  1  0
  4  5  1  0
  5  6  2  0
  6  7  1  0
  7  8  2  0
  8  9  1  0
  9 10  1  0
  9 11  2  0
 11 12  1  0
 12 13  1  0
  2 14  1  0
 14 15  1  0
 15 16  2  0
 16 17  1  0
 17 18  2  0
 18 19  1  0
 19 20  2  0
 20 21  1  0
 21 22  1  0
 22 23  1  0
 23 24  1  0
 24 25  1  0
 25 26  1  0
 25 27  1  0
 25 28  1  0
 23 29  1  0
 13  4  2  0
 20 15  1  0
 12  6  1  0
 29 19  1  0
M  END
>  <ref_mols>  (781) 
B0693a

>  <gnina_score>  (781) 
5.342

>  <smina_score_min>  (781) 
-2.353

>  <ref_pdb>  (781) 
B0693a

>  <inspiration_score>  (781) 
None

>  <inchikey>  (781) 
JMZHYJUHNDPETB-UHFFFAOYSA-N

>  <tags>  (781) 
BulkDock Fragalysis export,openbind_d68ev3c_c2_elabs_scored,openbind_d68ev3c_c2_elabs_scored_4.5plus,openbind_d68ev3c_c2_elabs,openbind_d68ev3c_c2_elabs_scored_5plus,syndirella_product,openbind_d68ev3c_c2_elabs_scored_top80percent,syndirella_placed

>  <smiles>  (781) 
O=C(Cc1cc2ncc(Br)cn2n1)Nc1cccc2c1CCN(CC(F)(F)F)C2

>  <subsites>  (781) 
None

>  <rmsd(smina/fragmenstein)>  (781) 
1.061

>  <alias>  (781) 
None

>  <energy_score>  (781) 
-40.008326

>  <HIPPO Pose ID>  (781) 
86151

>  <distance_score>  (781) 
1.285132

>  <HIPPO Compound ID>  (781) 
119996

>  <gnina_score_min>  (781) 
5.473

>  <name>  (781) 
P86151

>  <exports>  (781) 
['/opt/xchem-fragalysis-2/maxwin/BulkDock/OUTPUTS/openbind_d68ev3c_c2_elabs_1LOTQJ3.sdf', '/opt/xchem-fragalysis-2/maxwin/BulkDock/OUTPUTS/openbind_d68ev3c_c2_elabs_1LSYEHW.sdf', '/opt/xchem-fragalysis-2/maxwin/BulkDock/OUTPUTS/openbind_d68ev3c_c2_elabs_1LSYI5W.sdf']

$$$$
P86156
     RDKit          3D

 29 32  0  0  0  0  0  0  0  0999 V2000
   19.2628   -0.1904   12.2417 C   0  0  0  0  0  0  0  0  0  0  0  0
   19.3282   -0.8967   13.4983 N   0  0  0  0  0  0  0  0  0  0  0  0
   18.7957   -0.3317   14.6042 N   0  0  0  0  0  0  0  0  0  0  0  0
   19.0736   -1.2012   15.5894 C   0  0  0  0  0  0  0  0  0  0  0  0
   18.6841   -0.8824   16.9903 C   0  0  0  0  0  0  0  0  0  0  0  0
   17.5720   -1.7878   17.5061 C   0  0  0  0  0  0  0  0  0  0  0  0
   17.6689   -2.3839   18.5109 O   0  0  0  0  0  0  0  0  0  0  0  0
   16.3672   -1.6586   16.5172 N   0  0  0  0  0  0  0  0  0  0  0  0
   15.1209   -2.2900   16.5191 C   0  0  0  0  0  0  0  0  0  0  0  0
   14.7877   -3.1696   17.5527 C   0  0  0  0  0  0  0  0  0  0  0  0
   13.5456   -3.7986   17.5773 C   0  0  0  0  0  0  0  0  0  0  0  0
   12.6220   -3.5493   16.5694 C   0  0  0  0  0  0  0  0  0  0  0  0
   12.9230   -2.6627   15.5288 C   0  0  0  0  0  0  0  0  0  0  0  0
   14.1944   -2.0437   15.4853 C   0  0  0  0  0  0  0  0  0  0  0  0
   14.5159   -1.1040   14.3424 C   0  0  0  0  0  0  0  0  0  0  0  0
   13.4662   -1.1142   13.2187 C   0  0  0  0  0  0  0  0  0  0  0  0
   12.0664   -1.2089   13.6776 N   0  0  0  0  0  0  0  0  0  0  0  0
   11.6621   -0.0013   14.4510 C   0  0  0  0  0  0  0  0  0  0  0  0
   10.2695    0.0923   15.1159 C   0  0  0  0  0  0  0  0  0  0  0  0
   10.0745   -0.8501   16.0724 F   0  0  0  0  0  0  0  0  0  0  0  0
   10.1383    1.2932   15.7358 F   0  0  0  0  0  0  0  0  0  0  0  0
    9.2535    0.0039   14.2381 F   0  0  0  0  0  0  0  0  0  0  0  0
   11.9102   -2.4666   14.4216 C   0  0  0  0  0  0  0  0  0  0  0  0
   19.7137   -2.3574   15.0908 C   0  0  0  0  0  0  0  0  0  0  0  0
   19.8634   -2.1253   13.7411 C   0  0  0  0  0  0  0  0  0  0  0  0
   20.4773   -3.0555   12.7562 C   0  0  0  0  0  0  0  0  0  0  0  0
   21.2545   -4.1601   13.4998 C   0  0  0  0  0  0  0  0  0  0  0  0
   20.4866   -4.6984   14.7232 C   0  0  0  0  0  0  0  0  0  0  0  0
   20.1968   -3.5951   15.7607 C   0  0  0  0  0  0  0  0  0  0  0  0
  1  2  1  0
  2  3  1  0
  3  4  2  0
  4  5  1  0
  5  6  1  0
  6  7  2  0
  6  8  1  0
  8  9  1  0
  9 10  2  0
 10 11  1  0
 11 12  2  0
 12 13  1  0
 13 14  2  0
 14 15  1  0
 15 16  1  0
 16 17  1  0
 17 18  1  0
 18 19  1  0
 19 20  1  0
 19 21  1  0
 19 22  1  0
 17 23  1  0
  4 24  1  0
 24 25  2  0
 25 26  1  0
 26 27  1  0
 27 28  1  0
 28 29  1  0
 25  2  1  0
 14  9  1  0
 29 24  1  0
 23 13  1  0
M  END
>  <ref_mols>  (782) 
B0693a

>  <gnina_score>  (782) 
5.125

>  <smina_score_min>  (782) 
-4.819

>  <ref_pdb>  (782) 
B0693a

>  <inspiration_score>  (782) 
None

>  <inchikey>  (782) 
HFUZPPOSEXKMOX-UHFFFAOYSA-N

>  <tags>  (782) 
BulkDock Fragalysis export,openbind_d68ev3c_c2_elabs_scored,openbind_d68ev3c_c2_elabs_scored_4.5plus,openbind_d68ev3c_c2_elabs,openbind_d68ev3c_c2_elabs_scored_5plus,syndirella_product,openbind_d68ev3c_c2_elabs_scored_top80percent,syndirella_placed

>  <smiles>  (782) 
Cn1nc(CC(=O)Nc2cccc3c2CCN(CC(F)(F)F)C3)c2c1CCCC2

>  <subsites>  (782) 
None

>  <rmsd(smina/fragmenstein)>  (782) 
3.047

>  <alias>  (782) 
None

>  <energy_score>  (782) 
-52.628276

>  <HIPPO Pose ID>  (782) 
86156

>  <distance_score>  (782) 
0.396909

>  <HIPPO Compound ID>  (782) 
120008

>  <gnina_score_min>  (782) 
5.024

>  <name>  (782) 
P86156

>  <exports>  (782) 
['/opt/xchem-fragalysis-2/maxwin/BulkDock/OUTPUTS/openbind_d68ev3c_c2_elabs_1LOTQJ3.sdf', '/opt/xchem-fragalysis-2/maxwin/BulkDock/OUTPUTS/openbind_d68ev3c_c2_elabs_1LSYEHW.sdf', '/opt/xchem-fragalysis-2/maxwin/BulkDock/OUTPUTS/openbind_d68ev3c_c2_elabs_1LSYI5W.sdf']

$$$$
P86163
     RDKit          3D

 29 32  0  0  0  0  0  0  0  0999 V2000
   18.9300   -3.1619   18.2972 O   0  0  0  0  0  0  0  0  0  0  0  0
   18.5906   -2.2875   17.6024 C   0  0  0  0  0  0  0  0  0  0  0  0
   17.1940   -1.9382   17.0413 N   0  0  0  0  0  0  0  0  0  0  0  0
   15.9819   -2.6221   17.1373 C   0  0  0  0  0  0  0  0  0  0  0  0
   15.8715   -3.7331   17.9741 C   0  0  0  0  0  0  0  0  0  0  0  0
   14.6649   -4.4130   18.1069 C   0  0  0  0  0  0  0  0  0  0  0  0
   13.5512   -3.9809   17.4109 C   0  0  0  0  0  0  0  0  0  0  0  0
   13.6393   -2.8639   16.5727 C   0  0  0  0  0  0  0  0  0  0  0  0
   14.8619   -2.1890   16.4079 C   0  0  0  0  0  0  0  0  0  0  0  0
   14.8853   -0.9694   15.5247 C   0  0  0  0  0  0  0  0  0  0  0  0
   13.8084   -1.0193   14.4473 C   0  0  0  0  0  0  0  0  0  0  0  0
   12.4606   -1.3590   14.9244 N   0  0  0  0  0  0  0  0  0  0  0  0
   11.6177   -1.8126   13.8044 C   0  0  0  0  0  0  0  0  0  0  0  0
   11.9241   -3.2158   13.2173 C   0  0  0  0  0  0  0  0  0  0  0  0
   13.2433   -3.4428   13.1402 F   0  0  0  0  0  0  0  0  0  0  0  0
   11.4632   -3.3812   11.9723 F   0  0  0  0  0  0  0  0  0  0  0  0
   11.3481   -4.1795   13.9614 F   0  0  0  0  0  0  0  0  0  0  0  0
   12.3666   -2.3480   15.9909 C   0  0  0  0  0  0  0  0  0  0  0  0
   19.5965   -1.2956   17.0949 C   0  0  0  0  0  0  0  0  0  0  0  0
   19.6612   -1.2682   15.5349 C   0  0  0  0  0  0  0  0  0  0  0  0
   20.2730   -2.2635   14.7544 C   0  0  0  0  0  0  0  0  0  0  0  0
   20.0502   -1.8680   13.4574 C   0  0  0  0  0  0  0  0  0  0  0  0
   19.3417   -0.6964   13.5238 N   0  0  0  0  0  0  0  0  0  0  0  0
   18.8635    0.0930   12.3922 C   0  0  0  0  0  0  0  0  0  0  0  0
   17.6362   -0.3323   11.9831 F   0  0  0  0  0  0  0  0  0  0  0  0
   19.6918   -0.0172   11.3185 F   0  0  0  0  0  0  0  0  0  0  0  0
   19.0598   -0.3247   14.8019 N   0  0  0  0  0  0  0  0  0  0  0  0
   19.7760    0.0084   17.8503 C   0  0  0  0  0  0  0  0  0  0  0  0
   20.8691   -1.0169   17.8694 C   0  0  0  0  0  0  0  0  0  0  0  0
  1  2  2  0
  2  3  1  0
  3  4  1  0
  4  5  2  0
  5  6  1  0
  6  7  2  0
  7  8  1  0
  8  9  2  0
  9 10  1  0
 10 11  1  0
 11 12  1  0
 12 13  1  0
 13 14  1  0
 14 15  1  0
 14 16  1  0
 14 17  1  0
 12 18  1  0
  2 19  1  0
 19 20  1  0
 20 21  1  0
 21 22  2  0
 22 23  1  0
 23 24  1  0
 24 25  1  0
 24 26  1  0
 23 27  1  0
 19 28  1  0
 28 29  1  0
  9  4  1  0
 29 19  1  0
 18  8  1  0
 27 20  2  0
M  END
>  <ref_mols>  (783) 
B0693a

>  <gnina_score>  (783) 
5.027

>  <smina_score_min>  (783) 
-2.451

>  <ref_pdb>  (783) 
B0693a

>  <inspiration_score>  (783) 
None

>  <inchikey>  (783) 
UBENIRFMOARITA-UHFFFAOYSA-N

>  <tags>  (783) 
BulkDock Fragalysis export,openbind_d68ev3c_c2_elabs_scored,openbind_d68ev3c_c2_elabs_scored_4.5plus,openbind_d68ev3c_c2_elabs,openbind_d68ev3c_c2_elabs_scored_5plus,syndirella_product,openbind_d68ev3c_c2_elabs_scored_top80percent,syndirella_placed

>  <smiles>  (783) 
O=C(Nc1cccc2c1CCN(CC(F)(F)F)C2)C1(c2ccn(C(F)F)n2)CC1

>  <subsites>  (783) 
None

>  <rmsd(smina/fragmenstein)>  (783) 
1.191

>  <alias>  (783) 
None

>  <energy_score>  (783) 
-29.532601

>  <HIPPO Pose ID>  (783) 
86163

>  <distance_score>  (783) 
1.240567

>  <HIPPO Compound ID>  (783) 
120024

>  <gnina_score_min>  (783) 
5.161

>  <name>  (783) 
P86163

>  <exports>  (783) 
['/opt/xchem-fragalysis-2/maxwin/BulkDock/OUTPUTS/openbind_d68ev3c_c2_elabs_1LOTQJ3.sdf', '/opt/xchem-fragalysis-2/maxwin/BulkDock/OUTPUTS/openbind_d68ev3c_c2_elabs_1LSYEHW.sdf', '/opt/xchem-fragalysis-2/maxwin/BulkDock/OUTPUTS/openbind_d68ev3c_c2_elabs_1LSYI5W.sdf']

$$$$
P86164
     RDKit          3D

 29 32  0  0  0  0  0  0  0  0999 V2000
   10.9322    1.6516   13.1080 C   0  0  0  0  0  0  0  0  0  0  0  0
   11.0836    1.0650   14.5078 C   0  0  0  0  0  0  0  0  0  0  0  0
    9.8571    0.2958   14.9918 C   0  0  0  0  0  0  0  0  0  0  0  0
   11.2228    2.1786   15.3998 O   0  0  0  0  0  0  0  0  0  0  0  0
   12.3789    0.2147   14.5537 C   0  0  0  0  0  0  0  0  0  0  0  0
   12.4189   -1.0020   13.7022 N   0  0  0  0  0  0  0  0  0  0  0  0
   13.7896   -1.2165   13.1909 C   0  0  0  0  0  0  0  0  0  0  0  0
   14.8481   -1.3449   14.2983 C   0  0  0  0  0  0  0  0  0  0  0  0
   14.3943   -2.1969   15.4663 C   0  0  0  0  0  0  0  0  0  0  0  0
   13.0516   -2.6359   15.5147 C   0  0  0  0  0  0  0  0  0  0  0  0
   12.6476   -3.4971   16.5407 C   0  0  0  0  0  0  0  0  0  0  0  0
   13.5387   -3.8724   17.5413 C   0  0  0  0  0  0  0  0  0  0  0  0
   14.8472   -3.3932   17.5274 C   0  0  0  0  0  0  0  0  0  0  0  0
   15.2805   -2.5502   16.5030 C   0  0  0  0  0  0  0  0  0  0  0  0
   16.5807   -2.0421   16.4993 N   0  0  0  0  0  0  0  0  0  0  0  0
   17.7445   -2.2543   17.4944 C   0  0  0  0  0  0  0  0  0  0  0  0
   17.8228   -2.9473   18.4308 O   0  0  0  0  0  0  0  0  0  0  0  0
   18.8994   -1.3493   17.1394 C   0  0  0  0  0  0  0  0  0  0  0  0
   19.2755   -1.3816   15.6212 C   0  0  0  0  0  0  0  0  0  0  0  0
   20.0783   -2.3638   15.0180 C   0  0  0  0  0  0  0  0  0  0  0  0
   20.1002   -2.0199   13.6869 C   0  0  0  0  0  0  0  0  0  0  0  0
   19.3369   -0.8876   13.5638 N   0  0  0  0  0  0  0  0  0  0  0  0
   19.0427   -0.1649   12.3290 C   0  0  0  0  0  0  0  0  0  0  0  0
   19.9966   -0.3778   11.3827 F   0  0  0  0  0  0  0  0  0  0  0  0
   17.8609   -0.5785   11.7928 F   0  0  0  0  0  0  0  0  0  0  0  0
   18.7935   -0.4922   14.7458 N   0  0  0  0  0  0  0  0  0  0  0  0
   20.0135   -1.0898   18.1374 C   0  0  0  0  0  0  0  0  0  0  0  0
   19.0036   -0.0172   17.8646 C   0  0  0  0  0  0  0  0  0  0  0  0
   12.0506   -2.2251   14.4511 C   0  0  0  0  0  0  0  0  0  0  0  0
  1  2  1  0
  2  3  1  0
  2  4  1  0
  2  5  1  0
  5  6  1  0
  6  7  1  0
  7  8  1  0
  8  9  1  0
  9 10  2  0
 10 11  1  0
 11 12  2  0
 12 13  1  0
 13 14  2  0
 14 15  1  0
 15 16  1  0
 16 17  2  0
 16 18  1  0
 18 19  1  0
 19 20  1  0
 20 21  2  0
 21 22  1  0
 22 23  1  0
 23 24  1  0
 23 25  1  0
 22 26  1  0
 18 27  1  0
 27 28  1  0
 10 29  1  0
 29  6  1  0
 14  9  1  0
 28 18  1  0
 26 19  2  0
M  END
>  <ref_mols>  (784) 
B0693a

>  <gnina_score>  (784) 
4.915

>  <smina_score_min>  (784) 
-4.605

>  <ref_pdb>  (784) 
B0693a

>  <inspiration_score>  (784) 
None

>  <inchikey>  (784) 
YCISBMHGENEQPJ-UHFFFAOYSA-N

>  <tags>  (784) 
BulkDock Fragalysis export,openbind_d68ev3c_c2_elabs_scored,openbind_d68ev3c_c2_elabs_scored_4.5plus,openbind_d68ev3c_c2_elabs,openbind_d68ev3c_c2_elabs_scored_5plus,syndirella_product,openbind_d68ev3c_c2_elabs_scored_top80percent,syndirella_placed

>  <smiles>  (784) 
CC(C)(O)CN1CCc2c(cccc2NC(=O)C2(c3ccn(C(F)F)n3)CC2)C1

>  <subsites>  (784) 
None

>  <rmsd(smina/fragmenstein)>  (784) 
0.961

>  <alias>  (784) 
None

>  <energy_score>  (784) 
-56.716031

>  <HIPPO Pose ID>  (784) 
86164

>  <distance_score>  (784) 
0.469327

>  <HIPPO Compound ID>  (784) 
120025

>  <gnina_score_min>  (784) 
5.039

>  <name>  (784) 
P86164

>  <exports>  (784) 
['/opt/xchem-fragalysis-2/maxwin/BulkDock/OUTPUTS/openbind_d68ev3c_c2_elabs_1LOTQJ3.sdf', '/opt/xchem-fragalysis-2/maxwin/BulkDock/OUTPUTS/openbind_d68ev3c_c2_elabs_1LSYEHW.sdf', '/opt/xchem-fragalysis-2/maxwin/BulkDock/OUTPUTS/openbind_d68ev3c_c2_elabs_1LSYI5W.sdf']

$$$$
P86168
     RDKit          3D

 29 32  0  0  0  0  0  0  0  0999 V2000
    8.8591    2.4177   16.8156 C   0  0  0  0  0  0  0  0  0  0  0  0
    9.6632    1.4523   16.0068 C   0  0  0  0  0  0  0  0  0  0  0  0
   10.5602    1.8880   15.0485 C   0  0  0  0  0  0  0  0  0  0  0  0
   11.3015    0.9473   14.3290 C   0  0  0  0  0  0  0  0  0  0  0  0
   11.1622   -0.4099   14.5887 C   0  0  0  0  0  0  0  0  0  0  0  0
   11.9177   -1.3814   13.9174 N   0  0  0  0  0  0  0  0  0  0  0  0
   13.2556   -1.0810   13.3976 C   0  0  0  0  0  0  0  0  0  0  0  0
   14.2956   -1.0219   14.5205 C   0  0  0  0  0  0  0  0  0  0  0  0
   14.1154   -2.0835   15.5893 C   0  0  0  0  0  0  0  0  0  0  0  0
   12.9035   -2.8184   15.6380 C   0  0  0  0  0  0  0  0  0  0  0  0
   12.6850   -3.7244   16.6821 C   0  0  0  0  0  0  0  0  0  0  0  0
   13.6426   -3.9097   17.6708 C   0  0  0  0  0  0  0  0  0  0  0  0
   14.8439   -3.2081   17.6153 C   0  0  0  0  0  0  0  0  0  0  0  0
   15.0911   -2.2967   16.5851 C   0  0  0  0  0  0  0  0  0  0  0  0
   16.3108   -1.6157   16.5406 N   0  0  0  0  0  0  0  0  0  0  0  0
   17.4942   -1.5810   17.5673 C   0  0  0  0  0  0  0  0  0  0  0  0
   17.6526   -2.1787   18.5643 O   0  0  0  0  0  0  0  0  0  0  0  0
   18.5392   -0.5452   17.0471 C   0  0  0  0  0  0  0  0  0  0  0  0
   17.9138    0.8655   17.1072 C   0  0  0  0  0  0  0  0  0  0  0  0
   19.7595   -0.5375   17.9975 C   0  0  0  0  0  0  0  0  0  0  0  0
   18.9969   -0.9477   15.6558 C   0  0  0  0  0  0  0  0  0  0  0  0
   19.6038   -2.1694   15.2598 C   0  0  0  0  0  0  0  0  0  0  0  0
   19.8555   -2.0312   13.9165 C   0  0  0  0  0  0  0  0  0  0  0  0
   19.4142   -0.7885   13.5800 N   0  0  0  0  0  0  0  0  0  0  0  0
   19.4864   -0.1640   12.2815 C   0  0  0  0  0  0  0  0  0  0  0  0
   18.8413   -0.1282   14.6040 N   0  0  0  0  0  0  0  0  0  0  0  0
   11.8612   -2.7054   14.5387 C   0  0  0  0  0  0  0  0  0  0  0  0
   10.2368   -0.7806   15.5139 N   0  0  0  0  0  0  0  0  0  0  0  0
    9.4818    0.1371   16.2240 N   0  0  0  0  0  0  0  0  0  0  0  0
  1  2  1  0
  2  3  2  0
  3  4  1  0
  4  5  2  0
  5  6  1  0
  6  7  1  0
  7  8  1  0
  8  9  1  0
  9 10  2  0
 10 11  1  0
 11 12  2  0
 12 13  1  0
 13 14  2  0
 14 15  1  0
 15 16  1  0
 16 17  2  0
 16 18  1  0
 18 19  1  0
 18 20  1  0
 18 21  1  0
 21 22  1  0
 22 23  2  0
 23 24  1  0
 24 25  1  0
 24 26  1  0
 10 27  1  0
  5 28  1  0
 28 29  2  0
 29  2  1  0
 27  6  1  0
 14  9  1  0
 26 21  2  0
M  END
>  <ref_mols>  (785) 
B0693a

>  <gnina_score>  (785) 
5.186

>  <smina_score_min>  (785) 
-5.77

>  <ref_pdb>  (785) 
B0693a

>  <inspiration_score>  (785) 
None

>  <inchikey>  (785) 
XAFZKXJGOAXGEM-UHFFFAOYSA-N

>  <tags>  (785) 
BulkDock Fragalysis export,openbind_d68ev3c_c2_elabs_scored,openbind_d68ev3c_c2_elabs_scored_4.5plus,openbind_d68ev3c_c2_elabs,openbind_d68ev3c_c2_elabs_scored_5plus,syndirella_product,openbind_d68ev3c_c2_elabs_scored_top80percent,syndirella_placed

>  <smiles>  (785) 
Cc1ccc(N2CCc3c(cccc3NC(=O)C(C)(C)c3ccn(C)n3)C2)nn1

>  <subsites>  (785) 
None

>  <rmsd(smina/fragmenstein)>  (785) 
1.245

>  <alias>  (785) 
None

>  <energy_score>  (785) 
-50.457721

>  <HIPPO Pose ID>  (785) 
86168

>  <distance_score>  (785) 
0.474315

>  <HIPPO Compound ID>  (785) 
120034

>  <gnina_score_min>  (785) 
5.071

>  <name>  (785) 
P86168

>  <exports>  (785) 
['/opt/xchem-fragalysis-2/maxwin/BulkDock/OUTPUTS/openbind_d68ev3c_c2_elabs_1LOTQJ3.sdf', '/opt/xchem-fragalysis-2/maxwin/BulkDock/OUTPUTS/openbind_d68ev3c_c2_elabs_1LSYEHW.sdf', '/opt/xchem-fragalysis-2/maxwin/BulkDock/OUTPUTS/openbind_d68ev3c_c2_elabs_1LSYI5W.sdf']

$$$$
P86169
     RDKit          3D

 29 31  0  0  0  0  0  0  0  0999 V2000
   15.3991   -2.2801   12.6729 C   0  0  0  0  0  0  0  0  0  0  0  0
   13.8840   -2.3032   12.7416 C   0  0  0  0  0  0  0  0  0  0  0  0
   13.1433   -0.6737   12.9109 S   0  0  0  0  0  0  0  0  0  0  0  0
   11.7048   -0.7709   12.8037 O   0  0  0  0  0  0  0  0  0  0  0  0
   13.8937    0.3092   12.1597 O   0  0  0  0  0  0  0  0  0  0  0  0
   13.3997   -0.4399   14.5348 N   0  0  0  0  0  0  0  0  0  0  0  0
   14.7145    0.0933   14.8743 C   0  0  0  0  0  0  0  0  0  0  0  0
   15.4184   -0.5633   16.0336 C   0  0  0  0  0  0  0  0  0  0  0  0
   14.9724   -1.9517   16.4021 C   0  0  0  0  0  0  0  0  0  0  0  0
   13.6308   -2.3122   16.1809 C   0  0  0  0  0  0  0  0  0  0  0  0
   13.1345   -3.5054   16.7141 C   0  0  0  0  0  0  0  0  0  0  0  0
   13.9815   -4.3515   17.4172 C   0  0  0  0  0  0  0  0  0  0  0  0
   15.3333   -4.0411   17.5619 C   0  0  0  0  0  0  0  0  0  0  0  0
   15.8377   -2.8477   17.0569 C   0  0  0  0  0  0  0  0  0  0  0  0
   17.1982   -2.5461   17.1246 N   0  0  0  0  0  0  0  0  0  0  0  0
   18.4045   -3.4128   17.5972 C   0  0  0  0  0  0  0  0  0  0  0  0
   18.4296   -4.4815   18.0730 O   0  0  0  0  0  0  0  0  0  0  0  0
   19.6600   -2.5871   17.2991 C   0  0  0  0  0  0  0  0  0  0  0  0
   19.6852   -2.0884   15.8822 C   0  0  0  0  0  0  0  0  0  0  0  0
   19.3624   -0.8079   15.6103 N   0  0  0  0  0  0  0  0  0  0  0  0
   19.5254   -0.7066   14.2717 N   0  0  0  0  0  0  0  0  0  0  0  0
   19.3107    0.5685   13.6226 C   0  0  0  0  0  0  0  0  0  0  0  0
   20.4993    1.4757   13.8140 C   0  0  0  0  0  0  0  0  0  0  0  0
   20.1726    2.7283   13.3976 F   0  0  0  0  0  0  0  0  0  0  0  0
   21.5210    1.0683   13.0165 F   0  0  0  0  0  0  0  0  0  0  0  0
   19.8419   -1.8887   13.6741 C   0  0  0  0  0  0  0  0  0  0  0  0
   19.9557   -2.7976   14.6933 C   0  0  0  0  0  0  0  0  0  0  0  0
   20.4209   -4.7801   14.4629 I   0  0  0  0  0  0  0  0  0  0  0  0
   12.7181   -1.4146   15.4008 C   0  0  0  0  0  0  0  0  0  0  0  0
  1  2  1  0
  2  3  1  0
  3  4  2  0
  3  5  2  0
  3  6  1  0
  6  7  1  0
  7  8  1  0
  8  9  1  0
  9 10  2  0
 10 11  1  0
 11 12  2  0
 12 13  1  0
 13 14  2  0
 14 15  1  0
 15 16  1  0
 16 17  2  0
 16 18  1  0
 18 19  1  0
 19 20  2  0
 20 21  1  0
 21 22  1  0
 22 23  1  0
 23 24  1  0
 23 25  1  0
 21 26  1  0
 26 27  2  0
 27 28  1  0
 10 29  1  0
 29  6  1  0
 14  9  1  0
 27 19  1  0
M  END
>  <ref_mols>  (786) 
B0693a

>  <gnina_score>  (786) 
5.619

>  <smina_score_min>  (786) 
-3.776

>  <ref_pdb>  (786) 
B0693a

>  <inspiration_score>  (786) 
None

>  <inchikey>  (786) 
PDSCOARRCYFVOX-UHFFFAOYSA-N

>  <tags>  (786) 
BulkDock Fragalysis export,openbind_d68ev3c_c2_elabs_scored,openbind_d68ev3c_c2_elabs_scored_4.5plus,openbind_d68ev3c_c2_elabs,openbind_d68ev3c_c2_elabs_scored_5plus,syndirella_product,openbind_d68ev3c_c2_elabs_scored_top80percent,syndirella_placed

>  <smiles>  (786) 
CCS(=O)(=O)N1CCc2c(cccc2NC(=O)Cc2nn(CC(F)F)cc2I)C1

>  <subsites>  (786) 
None

>  <rmsd(smina/fragmenstein)>  (786) 
3.236

>  <alias>  (786) 
None

>  <energy_score>  (786) 
-44.936475

>  <HIPPO Pose ID>  (786) 
86169

>  <distance_score>  (786) 
1.462753

>  <HIPPO Compound ID>  (786) 
120036

>  <gnina_score_min>  (786) 
5.405

>  <name>  (786) 
P86169

>  <exports>  (786) 
['/opt/xchem-fragalysis-2/maxwin/BulkDock/OUTPUTS/openbind_d68ev3c_c2_elabs_1LOTQJ3.sdf', '/opt/xchem-fragalysis-2/maxwin/BulkDock/OUTPUTS/openbind_d68ev3c_c2_elabs_1LSYEHW.sdf', '/opt/xchem-fragalysis-2/maxwin/BulkDock/OUTPUTS/openbind_d68ev3c_c2_elabs_1LSYI5W.sdf']

$$$$
P86186
     RDKit          3D

 29 31  0  0  0  0  0  0  0  0999 V2000
   12.4102    1.6648   12.2558 C   0  0  0  0  0  0  0  0  0  0  0  0
   11.4240    1.2247   13.3349 C   0  0  0  0  0  0  0  0  0  0  0  0
   11.0497    2.4385   14.1940 C   0  0  0  0  0  0  0  0  0  0  0  0
   10.2266    0.8034   12.6618 O   0  0  0  0  0  0  0  0  0  0  0  0
   11.9359    0.0821   14.2642 C   0  0  0  0  0  0  0  0  0  0  0  0
   12.2333   -1.1879   13.5627 N   0  0  0  0  0  0  0  0  0  0  0  0
   13.6425   -1.2875   13.1281 C   0  0  0  0  0  0  0  0  0  0  0  0
   14.6732   -1.2613   14.2670 C   0  0  0  0  0  0  0  0  0  0  0  0
   14.2674   -2.1020   15.4558 C   0  0  0  0  0  0  0  0  0  0  0  0
   12.9566   -2.6268   15.5067 C   0  0  0  0  0  0  0  0  0  0  0  0
   12.6026   -3.4856   16.5541 C   0  0  0  0  0  0  0  0  0  0  0  0
   13.5061   -3.7769   17.5704 C   0  0  0  0  0  0  0  0  0  0  0  0
   14.7804   -3.2162   17.5499 C   0  0  0  0  0  0  0  0  0  0  0  0
   15.1698   -2.3783   16.5027 C   0  0  0  0  0  0  0  0  0  0  0  0
   16.4493   -1.8189   16.4929 N   0  0  0  0  0  0  0  0  0  0  0  0
   17.6471   -2.0085   17.4795 C   0  0  0  0  0  0  0  0  0  0  0  0
   17.7644   -2.7205   18.4026 O   0  0  0  0  0  0  0  0  0  0  0  0
   18.7370   -1.0306   17.0571 C   0  0  0  0  0  0  0  0  0  0  0  0
   19.1867   -1.2563   15.6538 C   0  0  0  0  0  0  0  0  0  0  0  0
   18.7866   -0.4084   14.6881 N   0  0  0  0  0  0  0  0  0  0  0  0
   19.4134   -0.8582   13.5798 N   0  0  0  0  0  0  0  0  0  0  0  0
   19.2536   -0.1442   12.3320 C   0  0  0  0  0  0  0  0  0  0  0  0
   20.0940    1.1071   12.3157 C   0  0  0  0  0  0  0  0  0  0  0  0
   21.4015    0.7810   12.1419 F   0  0  0  0  0  0  0  0  0  0  0  0
   19.7468    1.8591   11.2370 F   0  0  0  0  0  0  0  0  0  0  0  0
   20.1165   -2.0070   13.7833 C   0  0  0  0  0  0  0  0  0  0  0  0
   19.9944   -2.2818   15.1203 C   0  0  0  0  0  0  0  0  0  0  0  0
   20.8532   -3.8706   16.0875 I   0  0  0  0  0  0  0  0  0  0  0  0
   11.9520   -2.3702   14.4025 C   0  0  0  0  0  0  0  0  0  0  0  0
  1  2  1  0
  2  3  1  0
  2  4  1  0
  2  5  1  0
  5  6  1  0
  6  7  1  0
  7  8  1  0
  8  9  1  0
  9 10  2  0
 10 11  1  0
 11 12  2  0
 12 13  1  0
 13 14  2  0
 14 15  1  0
 15 16  1  0
 16 17  2  0
 16 18  1  0
 18 19  1  0
 19 20  2  0
 20 21  1  0
 21 22  1  0
 22 23  1  0
 23 24  1  0
 23 25  1  0
 21 26  1  0
 26 27  2  0
 27 28  1  0
 10 29  1  0
 29  6  1  0
 14  9  1  0
 27 19  1  0
M  END
>  <ref_mols>  (787) 
B0693a

>  <gnina_score>  (787) 
5.103

>  <smina_score_min>  (787) 
-4.745

>  <ref_pdb>  (787) 
B0693a

>  <inspiration_score>  (787) 
None

>  <inchikey>  (787) 
GDEHVBSKHJVNLD-UHFFFAOYSA-N

>  <tags>  (787) 
BulkDock Fragalysis export,openbind_d68ev3c_c2_elabs_scored,openbind_d68ev3c_c2_elabs_scored_4.5plus,openbind_d68ev3c_c2_elabs,openbind_d68ev3c_c2_elabs_scored_5plus,syndirella_product,openbind_d68ev3c_c2_elabs_scored_top80percent,syndirella_placed

>  <smiles>  (787) 
CC(C)(O)CN1CCc2c(cccc2NC(=O)Cc2nn(CC(F)F)cc2I)C1

>  <subsites>  (787) 
None

>  <rmsd(smina/fragmenstein)>  (787) 
1.822

>  <alias>  (787) 
None

>  <energy_score>  (787) 
-74.880932

>  <HIPPO Pose ID>  (787) 
86186

>  <distance_score>  (787) 
0.369787

>  <HIPPO Compound ID>  (787) 
120060

>  <gnina_score_min>  (787) 
5.024

>  <name>  (787) 
P86186

>  <exports>  (787) 
['/opt/xchem-fragalysis-2/maxwin/BulkDock/OUTPUTS/openbind_d68ev3c_c2_elabs_1LOTQJ3.sdf', '/opt/xchem-fragalysis-2/maxwin/BulkDock/OUTPUTS/openbind_d68ev3c_c2_elabs_1LSYEHW.sdf', '/opt/xchem-fragalysis-2/maxwin/BulkDock/OUTPUTS/openbind_d68ev3c_c2_elabs_1LSYI5W.sdf']

$$$$
P86187
     RDKit          3D

 29 31  0  0  0  0  0  0  0  0999 V2000
   11.8465   -3.8933   12.7128 C   0  0  0  0  0  0  0  0  0  0  0  0
   12.6844   -2.7310   13.1179 C   0  0  0  0  0  0  0  0  0  0  0  0
   11.7610   -1.4155   13.9492 S   0  0  0  0  0  0  0  0  0  0  0  0
   11.7842   -0.2197   13.1382 O   0  0  0  0  0  0  0  0  0  0  0  0
   10.5514   -1.9134   14.5702 O   0  0  0  0  0  0  0  0  0  0  0  0
   12.8350   -1.2086   15.2401 N   0  0  0  0  0  0  0  0  0  0  0  0
   14.1841   -0.7511   14.8332 C   0  0  0  0  0  0  0  0  0  0  0  0
   15.2292   -0.8883   15.9214 C   0  0  0  0  0  0  0  0  0  0  0  0
   15.1894   -2.2038   16.6556 C   0  0  0  0  0  0  0  0  0  0  0  0
   13.9629   -2.8762   16.7755 C   0  0  0  0  0  0  0  0  0  0  0  0
   13.8455   -4.0367   17.5512 C   0  0  0  0  0  0  0  0  0  0  0  0
   14.9487   -4.5307   18.2175 C   0  0  0  0  0  0  0  0  0  0  0  0
   16.1722   -3.8779   18.1031 C   0  0  0  0  0  0  0  0  0  0  0  0
   16.3065   -2.7227   17.3310 C   0  0  0  0  0  0  0  0  0  0  0  0
   17.5512   -2.1040   17.2135 N   0  0  0  0  0  0  0  0  0  0  0  0
   18.9596   -2.5558   17.7166 C   0  0  0  0  0  0  0  0  0  0  0  0
   19.2724   -3.4758   18.3710 O   0  0  0  0  0  0  0  0  0  0  0  0
   19.9623   -1.5575   17.1563 C   0  0  0  0  0  0  0  0  0  0  0  0
   19.8614   -1.4531   15.6674 C   0  0  0  0  0  0  0  0  0  0  0  0
   19.2765   -0.3738   15.1241 N   0  0  0  0  0  0  0  0  0  0  0  0
   19.4568   -0.5388   13.8042 N   0  0  0  0  0  0  0  0  0  0  0  0
   20.0299   -1.7300   13.4842 C   0  0  0  0  0  0  0  0  0  0  0  0
   20.2847   -2.3830   14.6719 C   0  0  0  0  0  0  0  0  0  0  0  0
   20.9410   -3.7185   14.8611 C   0  0  0  0  0  0  0  0  0  0  0  0
   20.1254   -4.9691   14.4267 C   0  0  0  0  0  0  0  0  0  0  0  0
   18.7719   -5.0507   15.1508 C   0  0  0  0  0  0  0  0  0  0  0  0
   20.9486   -6.2199   14.8016 C   0  0  0  0  0  0  0  0  0  0  0  0
   19.8851   -5.0005   12.9071 C   0  0  0  0  0  0  0  0  0  0  0  0
   12.7175   -2.3775   16.1388 C   0  0  0  0  0  0  0  0  0  0  0  0
  1  2  1  0
  2  3  1  0
  3  4  2  0
  3  5  2  0
  3  6  1  0
  6  7  1  0
  7  8  1  0
  8  9  1  0
  9 10  2  0
 10 11  1  0
 11 12  2  0
 12 13  1  0
 13 14  2  0
 14 15  1  0
 15 16  1  0
 16 17  2  0
 16 18  1  0
 18 19  1  0
 19 20  2  0
 20 21  1  0
 21 22  1  0
 22 23  2  0
 23 24  1  0
 24 25  1  0
 25 26  1  0
 25 27  1  0
 25 28  1  0
 10 29  1  0
 29  6  1  0
 14  9  1  0
 23 19  1  0
M  END
>  <ref_mols>  (788) 
B0693a

>  <gnina_score>  (788) 
5.515

>  <smina_score_min>  (788) 
-3.294

>  <ref_pdb>  (788) 
B0693a

>  <inspiration_score>  (788) 
None

>  <inchikey>  (788) 
FHKOFVNPHCHCFN-UHFFFAOYSA-N

>  <tags>  (788) 
BulkDock Fragalysis export,openbind_d68ev3c_c2_elabs_scored,openbind_d68ev3c_c2_elabs_scored_4.5plus,openbind_d68ev3c_c2_elabs,openbind_d68ev3c_c2_elabs_scored_5plus,syndirella_product,openbind_d68ev3c_c2_elabs_scored_top80percent,syndirella_placed

>  <smiles>  (788) 
CCS(=O)(=O)N1CCc2c(cccc2NC(=O)Cc2n[nH]cc2CC(C)(C)C)C1

>  <subsites>  (788) 
None

>  <rmsd(smina/fragmenstein)>  (788) 
2.395

>  <alias>  (788) 
None

>  <energy_score>  (788) 
-72.3129

>  <HIPPO Pose ID>  (788) 
86187

>  <distance_score>  (788) 
1.573902

>  <HIPPO Compound ID>  (788) 
120061

>  <gnina_score_min>  (788) 
5.2

>  <name>  (788) 
P86187

>  <exports>  (788) 
['/opt/xchem-fragalysis-2/maxwin/BulkDock/OUTPUTS/openbind_d68ev3c_c2_elabs_1LOTQJ3.sdf', '/opt/xchem-fragalysis-2/maxwin/BulkDock/OUTPUTS/openbind_d68ev3c_c2_elabs_1LSYEHW.sdf', '/opt/xchem-fragalysis-2/maxwin/BulkDock/OUTPUTS/openbind_d68ev3c_c2_elabs_1LSYI5W.sdf']

$$$$
P86192
     RDKit          3D

 29 31  0  0  0  0  0  0  0  0999 V2000
   20.0184   -2.9857   12.4621 C   0  0  0  0  0  0  0  0  0  0  0  0
   19.6671   -2.1803   13.6590 C   0  0  0  0  0  0  0  0  0  0  0  0
   19.4282   -2.5328   14.9680 C   0  0  0  0  0  0  0  0  0  0  0  0
   19.4630   -4.2671   15.6793 Br  0  0  0  0  0  0  0  0  0  0  0  0
   19.1361   -1.3332   15.6654 C   0  0  0  0  0  0  0  0  0  0  0  0
   18.8055   -1.1022   17.1346 C   0  0  0  0  0  0  0  0  0  0  0  0
   20.0559   -1.3805   17.9979 C   0  0  0  0  0  0  0  0  0  0  0  0
   18.3751    0.3550   17.4335 C   0  0  0  0  0  0  0  0  0  0  0  0
   17.6347   -2.0289   17.5854 C   0  0  0  0  0  0  0  0  0  0  0  0
   17.7137   -2.7251   18.5261 O   0  0  0  0  0  0  0  0  0  0  0  0
   16.4320   -1.7662   16.6157 N   0  0  0  0  0  0  0  0  0  0  0  0
   15.1684   -2.3578   16.5583 C   0  0  0  0  0  0  0  0  0  0  0  0
   14.7471   -3.2106   17.5797 C   0  0  0  0  0  0  0  0  0  0  0  0
   13.4730   -3.7723   17.5495 C   0  0  0  0  0  0  0  0  0  0  0  0
   12.5997   -3.4640   16.5109 C   0  0  0  0  0  0  0  0  0  0  0  0
   12.9891   -2.5962   15.4836 C   0  0  0  0  0  0  0  0  0  0  0  0
   14.3047   -2.0767   15.4806 C   0  0  0  0  0  0  0  0  0  0  0  0
   14.7522   -1.2205   14.3166 C   0  0  0  0  0  0  0  0  0  0  0  0
   13.7907   -1.2962   13.1249 C   0  0  0  0  0  0  0  0  0  0  0  0
   12.3748   -1.1658   13.5018 N   0  0  0  0  0  0  0  0  0  0  0  0
   12.1029    0.1524   14.1373 C   0  0  0  0  0  0  0  0  0  0  0  0
   10.6527    0.6578   14.1350 C   0  0  0  0  0  0  0  0  0  0  0  0
   10.1842    0.8292   12.8745 F   0  0  0  0  0  0  0  0  0  0  0  0
   10.5784    1.8718   14.7364 F   0  0  0  0  0  0  0  0  0  0  0  0
    9.8106   -0.1584   14.8067 F   0  0  0  0  0  0  0  0  0  0  0  0
   12.0094   -2.3066   14.3609 C   0  0  0  0  0  0  0  0  0  0  0  0
   19.1394   -0.2954   14.8106 N   0  0  0  0  0  0  0  0  0  0  0  0
   19.5364   -0.8173   13.6352 N   0  0  0  0  0  0  0  0  0  0  0  0
   19.7312    0.0632   12.5056 C   0  0  0  0  0  0  0  0  0  0  0  0
  1  2  1  0
  2  3  2  0
  3  4  1  0
  3  5  1  0
  5  6  1  0
  6  7  1  0
  6  8  1  0
  6  9  1  0
  9 10  2  0
  9 11  1  0
 11 12  1  0
 12 13  2  0
 13 14  1  0
 14 15  2  0
 15 16  1  0
 16 17  2  0
 17 18  1  0
 18 19  1  0
 19 20  1  0
 20 21  1  0
 21 22  1  0
 22 23  1  0
 22 24  1  0
 22 25  1  0
 20 26  1  0
  5 27  2  0
 27 28  1  0
 28 29  1  0
 28  2  1  0
 17 12  1  0
 26 16  1  0
M  END
>  <ref_mols>  (789) 
B0693a

>  <gnina_score>  (789) 
5.213

>  <smina_score_min>  (789) 
-4.771

>  <ref_pdb>  (789) 
B0693a

>  <inspiration_score>  (789) 
None

>  <inchikey>  (789) 
LQJOJCLIFRYEFJ-UHFFFAOYSA-N

>  <tags>  (789) 
BulkDock Fragalysis export,openbind_d68ev3c_c2_elabs_scored,openbind_d68ev3c_c2_elabs_scored_4.5plus,openbind_d68ev3c_c2_elabs,openbind_d68ev3c_c2_elabs_scored_5plus,syndirella_product,openbind_d68ev3c_c2_elabs_scored_top80percent,syndirella_placed

>  <smiles>  (789) 
Cc1c(Br)c(C(C)(C)C(=O)Nc2cccc3c2CCN(CC(F)(F)F)C3)nn1C

>  <subsites>  (789) 
None

>  <rmsd(smina/fragmenstein)>  (789) 
1.978

>  <alias>  (789) 
None

>  <energy_score>  (789) 
-52.177116

>  <HIPPO Pose ID>  (789) 
86192

>  <distance_score>  (789) 
0.3526

>  <HIPPO Compound ID>  (789) 
120069

>  <gnina_score_min>  (789) 
5.069

>  <name>  (789) 
P86192

>  <exports>  (789) 
['/opt/xchem-fragalysis-2/maxwin/BulkDock/OUTPUTS/openbind_d68ev3c_c2_elabs_1LOTQJ3.sdf', '/opt/xchem-fragalysis-2/maxwin/BulkDock/OUTPUTS/openbind_d68ev3c_c2_elabs_1LSYEHW.sdf', '/opt/xchem-fragalysis-2/maxwin/BulkDock/OUTPUTS/openbind_d68ev3c_c2_elabs_1LSYI5W.sdf']

$$$$
P86193
     RDKit          3D

 29 31  0  0  0  0  0  0  0  0999 V2000
   19.7923   -3.3101   12.4101 C   0  0  0  0  0  0  0  0  0  0  0  0
   19.4551   -2.2929   13.4381 C   0  0  0  0  0  0  0  0  0  0  0  0
   19.2983   -2.3787   14.8026 C   0  0  0  0  0  0  0  0  0  0  0  0
   19.4609   -3.9281   15.8461 Br  0  0  0  0  0  0  0  0  0  0  0  0
   18.9663   -1.0759   15.2564 C   0  0  0  0  0  0  0  0  0  0  0  0
   18.6605   -0.5711   16.6628 C   0  0  0  0  0  0  0  0  0  0  0  0
   18.1757    0.8998   16.6850 C   0  0  0  0  0  0  0  0  0  0  0  0
   19.9395   -0.6261   17.5268 C   0  0  0  0  0  0  0  0  0  0  0  0
   17.5311   -1.4441   17.3006 C   0  0  0  0  0  0  0  0  0  0  0  0
   17.7074   -1.9399   18.3804 O   0  0  0  0  0  0  0  0  0  0  0  0
   16.3797   -1.4874   16.4138 N   0  0  0  0  0  0  0  0  0  0  0  0
   15.1764   -2.1894   16.5091 C   0  0  0  0  0  0  0  0  0  0  0  0
   14.9461   -3.0592   17.5791 C   0  0  0  0  0  0  0  0  0  0  0  0
   13.7566   -3.7783   17.6666 C   0  0  0  0  0  0  0  0  0  0  0  0
   12.7861   -3.6336   16.6834 C   0  0  0  0  0  0  0  0  0  0  0  0
   12.9852   -2.7560   15.6093 C   0  0  0  0  0  0  0  0  0  0  0  0
   14.1947   -2.0347   15.5086 C   0  0  0  0  0  0  0  0  0  0  0  0
   14.3814   -1.0736   14.3520 C   0  0  0  0  0  0  0  0  0  0  0  0
   13.2693   -1.1423   13.2901 C   0  0  0  0  0  0  0  0  0  0  0  0
   11.9104   -1.3741   13.8262 N   0  0  0  0  0  0  0  0  0  0  0  0
   11.4165   -0.1879   14.5591 C   0  0  0  0  0  0  0  0  0  0  0  0
   10.1140   -0.2408   15.4255 C   0  0  0  0  0  0  0  0  0  0  0  0
    8.9107   -0.8469   14.7635 C   0  0  0  0  0  0  0  0  0  0  0  0
    9.7594    1.1809   15.8962 C   0  0  0  0  0  0  0  0  0  0  0  0
   10.2631   -1.0477   16.5834 O   0  0  0  0  0  0  0  0  0  0  0  0
   11.9249   -2.6553   14.5353 C   0  0  0  0  0  0  0  0  0  0  0  0
   18.8786   -0.2351   14.2113 N   0  0  0  0  0  0  0  0  0  0  0  0
   19.2477   -0.9710   13.1461 N   0  0  0  0  0  0  0  0  0  0  0  0
   19.3418   -0.3353   11.8513 C   0  0  0  0  0  0  0  0  0  0  0  0
  1  2  1  0
  2  3  2  0
  3  4  1  0
  3  5  1  0
  5  6  1  0
  6  7  1  0
  6  8  1  0
  6  9  1  0
  9 10  2  0
  9 11  1  0
 11 12  1  0
 12 13  2  0
 13 14  1  0
 14 15  2  0
 15 16  1  0
 16 17  2  0
 17 18  1  0
 18 19  1  0
 19 20  1  0
 20 21  1  0
 21 22  1  0
 22 23  1  0
 22 24  1  0
 22 25  1  0
 20 26  1  0
  5 27  2  0
 27 28  1  0
 28 29  1  0
 28  2  1  0
 17 12  1  0
 26 16  1  0
M  END
>  <ref_mols>  (790) 
B0693a

>  <gnina_score>  (790) 
5.38

>  <smina_score_min>  (790) 
-3.843

>  <ref_pdb>  (790) 
B0693a

>  <inspiration_score>  (790) 
None

>  <inchikey>  (790) 
WCEUAKQRPJASAR-UHFFFAOYSA-N

>  <tags>  (790) 
BulkDock Fragalysis export,openbind_d68ev3c_c2_elabs_scored,openbind_d68ev3c_c2_elabs_scored_4.5plus,openbind_d68ev3c_c2_elabs,openbind_d68ev3c_c2_elabs_scored_5plus,syndirella_product,openbind_d68ev3c_c2_elabs_scored_top80percent,syndirella_placed

>  <smiles>  (790) 
Cc1c(Br)c(C(C)(C)C(=O)Nc2cccc3c2CCN(CC(C)(C)O)C3)nn1C

>  <subsites>  (790) 
None

>  <rmsd(smina/fragmenstein)>  (790) 
2.0

>  <alias>  (790) 
None

>  <energy_score>  (790) 
-63.505048

>  <HIPPO Pose ID>  (790) 
86193

>  <distance_score>  (790) 
0.564788

>  <HIPPO Compound ID>  (790) 
120070

>  <gnina_score_min>  (790) 
5.257

>  <name>  (790) 
P86193

>  <exports>  (790) 
['/opt/xchem-fragalysis-2/maxwin/BulkDock/OUTPUTS/openbind_d68ev3c_c2_elabs_1LOTQJ3.sdf', '/opt/xchem-fragalysis-2/maxwin/BulkDock/OUTPUTS/openbind_d68ev3c_c2_elabs_1LSYEHW.sdf', '/opt/xchem-fragalysis-2/maxwin/BulkDock/OUTPUTS/openbind_d68ev3c_c2_elabs_1LSYI5W.sdf']

$$$$
P86196
     RDKit          3D

 29 33  0  0  0  0  0  0  0  0999 V2000
   10.1622    3.6645   15.5394 C   0  0  0  0  0  0  0  0  0  0  0  0
   10.5854    2.3328   15.0118 C   0  0  0  0  0  0  0  0  0  0  0  0
    9.9554    1.1667   15.4014 C   0  0  0  0  0  0  0  0  0  0  0  0
   10.4165   -0.0516   14.8964 C   0  0  0  0  0  0  0  0  0  0  0  0
   11.5248   -0.1007   14.0569 C   0  0  0  0  0  0  0  0  0  0  0  0
   12.0850   -1.2984   13.6002 N   0  0  0  0  0  0  0  0  0  0  0  0
   13.4737   -1.1793   13.1212 C   0  0  0  0  0  0  0  0  0  0  0  0
   14.4452   -1.0638   14.3033 C   0  0  0  0  0  0  0  0  0  0  0  0
   14.1355   -2.0212   15.4427 C   0  0  0  0  0  0  0  0  0  0  0  0
   12.8815   -2.6808   15.4742 C   0  0  0  0  0  0  0  0  0  0  0  0
   12.5917   -3.5602   16.5258 C   0  0  0  0  0  0  0  0  0  0  0  0
   13.5103   -3.7736   17.5475 C   0  0  0  0  0  0  0  0  0  0  0  0
   14.7366   -3.1143   17.5292 C   0  0  0  0  0  0  0  0  0  0  0  0
   15.0554   -2.2357   16.4907 C   0  0  0  0  0  0  0  0  0  0  0  0
   16.2878   -1.5794   16.4839 N   0  0  0  0  0  0  0  0  0  0  0  0
   17.4326   -1.5603   17.5474 C   0  0  0  0  0  0  0  0  0  0  0  0
   17.5453   -2.1532   18.5517 O   0  0  0  0  0  0  0  0  0  0  0  0
   18.5164   -0.5772   17.0635 C   0  0  2  0  0  0  0  0  0  0  0  0
   18.0249    0.8921   17.1281 C   0  0  0  0  0  0  0  0  0  0  0  0
   18.8997    1.8520   16.2931 C   0  0  0  0  0  0  0  0  0  0  0  0
   18.9451    1.4618   14.8009 C   0  0  0  0  0  0  0  0  0  0  0  0
   19.1783    0.0033   14.6560 C   0  0  0  0  0  0  0  0  0  0  0  0
   19.6129   -0.7812   13.5755 C   0  0  0  0  0  0  0  0  0  0  0  0
   19.6735   -2.0795   13.8900 N   0  0  0  0  0  0  0  0  0  0  0  0
   19.3190   -2.1250   15.1879 N   0  0  0  0  0  0  0  0  0  0  0  0
   18.9730   -0.8985   15.6756 C   0  0  0  0  0  0  0  0  0  0  0  0
   11.8831   -2.5440   14.3395 C   0  0  0  0  0  0  0  0  0  0  0  0
   12.0489    1.0788   13.6541 N   0  0  0  0  0  0  0  0  0  0  0  0
   11.5857    2.2965   14.1202 N   0  0  0  0  0  0  0  0  0  0  0  0
  1  2  1  0
  2  3  2  0
  3  4  1  0
  4  5  2  0
  5  6  1  0
  6  7  1  0
  7  8  1  0
  8  9  1  0
  9 10  2  0
 10 11  1  0
 11 12  2  0
 12 13  1  0
 13 14  2  0
 14 15  1  0
 15 16  1  0
 16 17  2  0
 18 16  1  6
 18 19  1  0
 19 20  1  0
 20 21  1  0
 21 22  1  0
 22 23  1  0
 23 24  2  0
 24 25  1  0
 25 26  1  0
 10 27  1  0
  5 28  1  0
 28 29  2  0
 29  2  1  0
 27  6  1  0
 14  9  1  0
 26 18  1  0
 26 22  2  0
M  END
>  <ref_mols>  (791) 
B0693a

>  <gnina_score>  (791) 
5.214

>  <smina_score_min>  (791) 
-6.074

>  <ref_pdb>  (791) 
B0693a

>  <inspiration_score>  (791) 
None

>  <inchikey>  (791) 
WPWKCNSZEGQOAY-GOSISDBHSA-N

>  <tags>  (791) 
BulkDock Fragalysis export,openbind_d68ev3c_c2_elabs_scored,openbind_d68ev3c_c2_elabs_scored_4.5plus,openbind_d68ev3c_c2_elabs,openbind_d68ev3c_c2_elabs_scored_5plus,syndirella_product,openbind_d68ev3c_c2_elabs_scored_top80percent,syndirella_placed

>  <smiles>  (791) 
Cc1ccc(N2CCc3c(cccc3NC(=O)[C@@H]3CCCc4cn[nH]c43)C2)nn1

>  <subsites>  (791) 
None

>  <rmsd(smina/fragmenstein)>  (791) 
1.072

>  <alias>  (791) 
None

>  <energy_score>  (791) 
-56.748151

>  <HIPPO Pose ID>  (791) 
86196

>  <distance_score>  (791) 
0.408915

>  <HIPPO Compound ID>  (791) 
120073

>  <gnina_score_min>  (791) 
5.1

>  <name>  (791) 
P86196

>  <exports>  (791) 
['/opt/xchem-fragalysis-2/maxwin/BulkDock/OUTPUTS/openbind_d68ev3c_c2_elabs_1LOTQJ3.sdf', '/opt/xchem-fragalysis-2/maxwin/BulkDock/OUTPUTS/openbind_d68ev3c_c2_elabs_1LSYEHW.sdf', '/opt/xchem-fragalysis-2/maxwin/BulkDock/OUTPUTS/openbind_d68ev3c_c2_elabs_1LSYI5W.sdf']

$$$$
P86202
     RDKit          3D

 29 31  0  0  0  0  0  0  0  0999 V2000
   22.1528   -2.2160   17.2440 C   0  0  0  0  0  0  0  0  0  0  0  0
   21.8374   -3.4265   16.3498 C   0  0  0  0  0  0  0  0  0  0  0  0
   22.7623   -3.4016   15.1204 C   0  0  0  0  0  0  0  0  0  0  0  0
   22.1397   -4.7100   17.1512 C   0  0  0  0  0  0  0  0  0  0  0  0
   20.3394   -3.4617   15.9429 C   0  0  0  0  0  0  0  0  0  0  0  0
   19.8356   -2.2889   15.1580 C   0  0  0  0  0  0  0  0  0  0  0  0
   19.9502   -2.0815   13.7990 C   0  0  0  0  0  0  0  0  0  0  0  0
   19.3552   -0.8874   13.5339 N   0  0  0  0  0  0  0  0  0  0  0  0
   18.7742   -0.3330   14.6094 N   0  0  0  0  0  0  0  0  0  0  0  0
   19.0984   -1.1580   15.6166 C   0  0  0  0  0  0  0  0  0  0  0  0
   18.6584   -0.8191   17.0004 C   0  0  0  0  0  0  0  0  0  0  0  0
   17.5605   -1.7442   17.5092 C   0  0  0  0  0  0  0  0  0  0  0  0
   17.6609   -2.3372   18.5153 O   0  0  0  0  0  0  0  0  0  0  0  0
   16.3578   -1.6304   16.5165 N   0  0  0  0  0  0  0  0  0  0  0  0
   15.1185   -2.2758   16.5157 C   0  0  0  0  0  0  0  0  0  0  0  0
   14.7925   -3.1588   17.5490 C   0  0  0  0  0  0  0  0  0  0  0  0
   13.5542   -3.7954   17.5754 C   0  0  0  0  0  0  0  0  0  0  0  0
   12.6270   -3.5504   16.5697 C   0  0  0  0  0  0  0  0  0  0  0  0
   12.9212   -2.6617   15.5289 C   0  0  0  0  0  0  0  0  0  0  0  0
   14.1890   -2.0355   15.4833 C   0  0  0  0  0  0  0  0  0  0  0  0
   14.5024   -1.0926   14.3409 C   0  0  0  0  0  0  0  0  0  0  0  0
   13.4513   -1.1089   13.2188 C   0  0  0  0  0  0  0  0  0  0  0  0
   12.0529   -1.2116   13.6801 N   0  0  0  0  0  0  0  0  0  0  0  0
   11.6418   -0.0057   14.4526 C   0  0  0  0  0  0  0  0  0  0  0  0
   10.2524    0.0791   15.1258 C   0  0  0  0  0  0  0  0  0  0  0  0
   10.0705   -0.8624   16.0857 F   0  0  0  0  0  0  0  0  0  0  0  0
   10.1173    1.2804   15.7444 F   0  0  0  0  0  0  0  0  0  0  0  0
    9.2307   -0.0181   14.2557 F   0  0  0  0  0  0  0  0  0  0  0  0
   11.9047   -2.4700   14.4243 C   0  0  0  0  0  0  0  0  0  0  0  0
  1  2  1  0
  2  3  1  0
  2  4  1  0
  2  5  1  0
  5  6  1  0
  6  7  2  0
  7  8  1  0
  8  9  1  0
  9 10  2  0
 10 11  1  0
 11 12  1  0
 12 13  2  0
 12 14  1  0
 14 15  1  0
 15 16  2  0
 16 17  1  0
 17 18  2  0
 18 19  1  0
 19 20  2  0
 20 21  1  0
 21 22  1  0
 22 23  1  0
 23 24  1  0
 24 25  1  0
 25 26  1  0
 25 27  1  0
 25 28  1  0
 23 29  1  0
 10  6  1  0
 20 15  1  0
 29 19  1  0
M  END
>  <ref_mols>  (792) 
B0693a

>  <gnina_score>  (792) 
5.326

>  <smina_score_min>  (792) 
-4.349

>  <ref_pdb>  (792) 
B0693a

>  <inspiration_score>  (792) 
None

>  <inchikey>  (792) 
NYDUABUNDCNPGT-UHFFFAOYSA-N

>  <tags>  (792) 
BulkDock Fragalysis export,openbind_d68ev3c_c2_elabs_scored,openbind_d68ev3c_c2_elabs_scored_4.5plus,openbind_d68ev3c_c2_elabs,openbind_d68ev3c_c2_elabs_scored_5plus,syndirella_product,openbind_d68ev3c_c2_elabs_scored_top80percent,syndirella_placed

>  <smiles>  (792) 
CC(C)(C)Cc1c[nH]nc1CC(=O)Nc1cccc2c1CCN(CC(F)(F)F)C2

>  <subsites>  (792) 
None

>  <rmsd(smina/fragmenstein)>  (792) 
2.27

>  <alias>  (792) 
None

>  <energy_score>  (792) 
-73.393182

>  <HIPPO Pose ID>  (792) 
86202

>  <distance_score>  (792) 
0.409527

>  <HIPPO Compound ID>  (792) 
120084

>  <gnina_score_min>  (792) 
5.23

>  <name>  (792) 
P86202

>  <exports>  (792) 
['/opt/xchem-fragalysis-2/maxwin/BulkDock/OUTPUTS/openbind_d68ev3c_c2_elabs_1LOTQJ3.sdf', '/opt/xchem-fragalysis-2/maxwin/BulkDock/OUTPUTS/openbind_d68ev3c_c2_elabs_1LSYEHW.sdf', '/opt/xchem-fragalysis-2/maxwin/BulkDock/OUTPUTS/openbind_d68ev3c_c2_elabs_1LSYI5W.sdf']

$$$$
P86204
     RDKit          3D

 29 32  0  0  0  0  0  0  0  0999 V2000
    8.8989    2.5332   16.7961 C   0  0  0  0  0  0  0  0  0  0  0  0
    9.6927    1.5529   15.9958 C   0  0  0  0  0  0  0  0  0  0  0  0
   10.6148    1.9730   15.0546 C   0  0  0  0  0  0  0  0  0  0  0  0
   11.3484    1.0183   14.3452 C   0  0  0  0  0  0  0  0  0  0  0  0
   11.1848   -0.3371   14.6044 C   0  0  0  0  0  0  0  0  0  0  0  0
   11.9235   -1.3184   13.9292 N   0  0  0  0  0  0  0  0  0  0  0  0
   13.2672   -1.0404   13.4093 C   0  0  0  0  0  0  0  0  0  0  0  0
   14.3025   -0.9904   14.5378 C   0  0  0  0  0  0  0  0  0  0  0  0
   14.1055   -2.0510   15.6050 C   0  0  0  0  0  0  0  0  0  0  0  0
   12.8914   -2.7850   15.6364 C   0  0  0  0  0  0  0  0  0  0  0  0
   12.6680   -3.7085   16.6641 C   0  0  0  0  0  0  0  0  0  0  0  0
   13.6195   -3.9085   17.6559 C   0  0  0  0  0  0  0  0  0  0  0  0
   14.8171   -3.1993   17.6241 C   0  0  0  0  0  0  0  0  0  0  0  0
   15.0709   -2.2710   16.6104 C   0  0  0  0  0  0  0  0  0  0  0  0
   16.2777   -1.5641   16.6080 N   0  0  0  0  0  0  0  0  0  0  0  0
   17.5539   -1.7312   17.4973 C   0  0  0  0  0  0  0  0  0  0  0  0
   17.7537   -2.4338   18.4138 O   0  0  0  0  0  0  0  0  0  0  0  0
   18.5885   -0.7357   16.9889 C   0  0  0  0  0  0  0  0  0  0  0  0
   19.0191   -1.0594   15.6004 C   0  0  0  0  0  0  0  0  0  0  0  0
   19.7982   -2.1538   15.1592 C   0  0  0  0  0  0  0  0  0  0  0  0
   19.9004   -1.9955   13.7987 C   0  0  0  0  0  0  0  0  0  0  0  0
   19.2133   -0.8530   13.4899 N   0  0  0  0  0  0  0  0  0  0  0  0
   19.0275   -0.2804   12.1586 C   0  0  0  0  0  0  0  0  0  0  0  0
   19.9877   -0.6999   11.2909 F   0  0  0  0  0  0  0  0  0  0  0  0
   17.8300   -0.6546   11.6283 F   0  0  0  0  0  0  0  0  0  0  0  0
   18.6431   -0.2740   14.5802 N   0  0  0  0  0  0  0  0  0  0  0  0
   11.8473   -2.6480   14.5399 C   0  0  0  0  0  0  0  0  0  0  0  0
   10.2540   -0.6894   15.5318 N   0  0  0  0  0  0  0  0  0  0  0  0
    9.5038    0.2432   16.2324 N   0  0  0  0  0  0  0  0  0  0  0  0
  1  2  1  0
  2  3  2  0
  3  4  1  0
  4  5  2  0
  5  6  1  0
  6  7  1  0
  7  8  1  0
  8  9  1  0
  9 10  2  0
 10 11  1  0
 11 12  2  0
 12 13  1  0
 13 14  2  0
 14 15  1  0
 15 16  1  0
 16 17  2  0
 16 18  1  0
 18 19  1  0
 19 20  1  0
 20 21  2  0
 21 22  1  0
 22 23  1  0
 23 24  1  0
 23 25  1  0
 22 26  1  0
 10 27  1  0
  5 28  1  0
 28 29  2  0
 29  2  1  0
 27  6  1  0
 14  9  1  0
 26 19  2  0
M  END
>  <ref_mols>  (793) 
B0693a

>  <gnina_score>  (793) 
5.013

>  <smina_score_min>  (793) 
-5.511

>  <ref_pdb>  (793) 
B0693a

>  <inspiration_score>  (793) 
None

>  <inchikey>  (793) 
ZEEVRMNHWCXRBF-UHFFFAOYSA-N

>  <tags>  (793) 
BulkDock Fragalysis export,openbind_d68ev3c_c2_elabs_scored,openbind_d68ev3c_c2_elabs_scored_4.5plus,openbind_d68ev3c_c2_elabs,openbind_d68ev3c_c2_elabs_scored_5plus,syndirella_product,openbind_d68ev3c_c2_elabs_scored_top80percent,syndirella_placed

>  <smiles>  (793) 
Cc1ccc(N2CCc3c(cccc3NC(=O)Cc3ccn(C(F)F)n3)C2)nn1

>  <subsites>  (793) 
None

>  <rmsd(smina/fragmenstein)>  (793) 
2.043

>  <alias>  (793) 
None

>  <energy_score>  (793) 
-37.373757

>  <HIPPO Pose ID>  (793) 
86204

>  <distance_score>  (793) 
0.452289

>  <HIPPO Compound ID>  (793) 
120088

>  <gnina_score_min>  (793) 
5.026

>  <name>  (793) 
P86204

>  <exports>  (793) 
['/opt/xchem-fragalysis-2/maxwin/BulkDock/OUTPUTS/openbind_d68ev3c_c2_elabs_1LOTQJ3.sdf', '/opt/xchem-fragalysis-2/maxwin/BulkDock/OUTPUTS/openbind_d68ev3c_c2_elabs_1LSYEHW.sdf', '/opt/xchem-fragalysis-2/maxwin/BulkDock/OUTPUTS/openbind_d68ev3c_c2_elabs_1LSYI5W.sdf']

$$$$
P86208
     RDKit          3D

 29 32  0  0  0  0  0  0  0  0999 V2000
   11.6468   -2.8204   13.4086 C   0  0  0  0  0  0  0  0  0  0  0  0
   11.7023   -1.2985   13.4012 C   0  0  0  0  0  0  0  0  0  0  0  0
   11.5733   -0.5511   14.9679 S   0  0  0  0  0  0  0  0  0  0  0  0
   11.7530    0.8671   14.7563 O   0  0  0  0  0  0  0  0  0  0  0  0
   10.4217   -1.0576   15.6898 O   0  0  0  0  0  0  0  0  0  0  0  0
   12.9574   -1.2020   15.6445 N   0  0  0  0  0  0  0  0  0  0  0  0
   14.2264   -1.0068   14.9169 C   0  0  0  0  0  0  0  0  0  0  0  0
   15.3860   -1.1468   15.8766 C   0  0  0  0  0  0  0  0  0  0  0  0
   15.3011   -2.4060   16.7062 C   0  0  0  0  0  0  0  0  0  0  0  0
   14.0547   -3.0372   16.8958 C   0  0  0  0  0  0  0  0  0  0  0  0
   13.9419   -4.1747   17.6988 C   0  0  0  0  0  0  0  0  0  0  0  0
   15.0637   -4.6774   18.3309 C   0  0  0  0  0  0  0  0  0  0  0  0
   16.2995   -4.0558   18.1598 C   0  0  0  0  0  0  0  0  0  0  0  0
   16.4291   -2.9217   17.3614 C   0  0  0  0  0  0  0  0  0  0  0  0
   17.6647   -2.2968   17.2002 N   0  0  0  0  0  0  0  0  0  0  0  0
   19.0795   -2.7006   17.7203 C   0  0  0  0  0  0  0  0  0  0  0  0
   19.4069   -3.5757   18.4262 O   0  0  0  0  0  0  0  0  0  0  0  0
   20.0547   -1.6653   17.1684 C   0  0  0  0  0  0  0  0  0  0  0  0
   19.9423   -1.5276   15.6861 C   0  0  0  0  0  0  0  0  0  0  0  0
   20.4362   -2.4058   14.6972 C   0  0  0  0  0  0  0  0  0  0  0  0
   20.1123   -1.8144   13.5010 C   0  0  0  0  0  0  0  0  0  0  0  0
   19.4741   -0.6478   13.8121 N   0  0  0  0  0  0  0  0  0  0  0  0
   18.9963    0.3468   12.8607 C   0  0  0  0  0  0  0  0  0  0  0  0
   17.4660    0.3762   12.7624 C   0  0  0  0  0  0  0  0  0  0  0  0
   17.0530    1.5698   13.6101 C   0  0  0  0  0  0  0  0  0  0  0  0
   18.1318    2.5948   13.3057 C   0  0  0  0  0  0  0  0  0  0  0  0
   19.4229    1.7848   13.2097 C   0  0  0  0  0  0  0  0  0  0  0  0
   19.2796   -0.4946   15.1416 N   0  0  0  0  0  0  0  0  0  0  0  0
   12.8016   -2.5201   16.2720 C   0  0  0  0  0  0  0  0  0  0  0  0
  1  2  1  0
  2  3  1  0
  3  4  2  0
  3  5  2  0
  3  6  1  0
  6  7  1  0
  7  8  1  0
  8  9  1  0
  9 10  2  0
 10 11  1  0
 11 12  2  0
 12 13  1  0
 13 14  2  0
 14 15  1  0
 15 16  1  0
 16 17  2  0
 16 18  1  0
 18 19  1  0
 19 20  1  0
 20 21  2  0
 21 22  1  0
 22 23  1  0
 23 24  1  0
 24 25  1  0
 25 26  1  0
 26 27  1  0
 22 28  1  0
 10 29  1  0
 29  6  1  0
 14  9  1  0
 28 19  2  0
 27 23  1  0
M  END
>  <ref_mols>  (794) 
B0693a

>  <gnina_score>  (794) 
5.312

>  <smina_score_min>  (794) 
-3.198

>  <ref_pdb>  (794) 
B0693a

>  <inspiration_score>  (794) 
None

>  <inchikey>  (794) 
QXQOQJGYSWQHGP-UHFFFAOYSA-N

>  <tags>  (794) 
BulkDock Fragalysis export,openbind_d68ev3c_c2_elabs_scored,openbind_d68ev3c_c2_elabs_scored_4.5plus,openbind_d68ev3c_c2_elabs,openbind_d68ev3c_c2_elabs_scored_5plus,syndirella_product,openbind_d68ev3c_c2_elabs_scored_top80percent,syndirella_placed

>  <smiles>  (794) 
CCS(=O)(=O)N1CCc2c(cccc2NC(=O)Cc2ccn(C3CCCC3)n2)C1

>  <subsites>  (794) 
None

>  <rmsd(smina/fragmenstein)>  (794) 
1.763

>  <alias>  (794) 
None

>  <energy_score>  (794) 
-77.224397

>  <HIPPO Pose ID>  (794) 
86208

>  <distance_score>  (794) 
1.716648

>  <HIPPO Compound ID>  (794) 
120095

>  <gnina_score_min>  (794) 
5.018

>  <name>  (794) 
P86208

>  <exports>  (794) 
['/opt/xchem-fragalysis-2/maxwin/BulkDock/OUTPUTS/openbind_d68ev3c_c2_elabs_1LOTQJ3.sdf', '/opt/xchem-fragalysis-2/maxwin/BulkDock/OUTPUTS/openbind_d68ev3c_c2_elabs_1LSYEHW.sdf', '/opt/xchem-fragalysis-2/maxwin/BulkDock/OUTPUTS/openbind_d68ev3c_c2_elabs_1LSYI5W.sdf']

$$$$
P86210
     RDKit          3D

 29 32  0  0  0  0  0  0  0  0999 V2000
    9.7722    1.1813   15.8917 C   0  0  0  0  0  0  0  0  0  0  0  0
   10.1241   -0.2417   15.4223 C   0  0  0  0  0  0  0  0  0  0  0  0
    8.9186   -0.8439   14.7607 C   0  0  0  0  0  0  0  0  0  0  0  0
   10.2702   -1.0500   16.5798 O   0  0  0  0  0  0  0  0  0  0  0  0
   11.4278   -0.1917   14.5569 C   0  0  0  0  0  0  0  0  0  0  0  0
   11.9202   -1.3785   13.8239 N   0  0  0  0  0  0  0  0  0  0  0  0
   13.2801   -1.1480   13.2888 C   0  0  0  0  0  0  0  0  0  0  0  0
   14.3943   -1.0832   14.3493 C   0  0  0  0  0  0  0  0  0  0  0  0
   14.2053   -2.0404   15.5087 C   0  0  0  0  0  0  0  0  0  0  0  0
   12.9937   -2.7594   15.6093 C   0  0  0  0  0  0  0  0  0  0  0  0
   12.7897   -3.6316   16.6868 C   0  0  0  0  0  0  0  0  0  0  0  0
   13.7546   -3.7689   17.6763 C   0  0  0  0  0  0  0  0  0  0  0  0
   14.9438   -3.0487   17.5913 C   0  0  0  0  0  0  0  0  0  0  0  0
   15.1837   -2.1894   16.5143 C   0  0  0  0  0  0  0  0  0  0  0  0
   16.3862   -1.4805   16.4282 N   0  0  0  0  0  0  0  0  0  0  0  0
   17.5612   -1.4959   17.2763 C   0  0  0  0  0  0  0  0  0  0  0  0
   17.7722   -2.0626   18.3138 O   0  0  0  0  0  0  0  0  0  0  0  0
   18.6306   -0.5762   16.6907 C   0  0  0  0  0  0  0  0  0  0  0  0
   19.0543   -1.0363   15.3396 C   0  0  0  0  0  0  0  0  0  0  0  0
   20.1464   -1.8631   15.0034 C   0  0  0  0  0  0  0  0  0  0  0  0
   20.0805   -1.9988   13.6384 C   0  0  0  0  0  0  0  0  0  0  0  0
   18.9985   -1.2743   13.2289 N   0  0  0  0  0  0  0  0  0  0  0  0
   18.4933   -1.0832   11.8765 C   0  0  0  0  0  0  0  0  0  0  0  0
   18.6013   -2.3132   10.9692 C   0  0  0  0  0  0  0  0  0  0  0  0
   19.8544   -2.1123   10.1133 C   0  0  0  0  0  0  0  0  0  0  0  0
   20.4026   -0.7301   10.4526 C   0  0  0  0  0  0  0  0  0  0  0  0
   19.2467    0.0055   11.1140 C   0  0  0  0  0  0  0  0  0  0  0  0
   18.3421   -0.6878   14.2569 N   0  0  0  0  0  0  0  0  0  0  0  0
   11.9345   -2.6591   14.5339 C   0  0  0  0  0  0  0  0  0  0  0  0
  1  2  1  0
  2  3  1  0
  2  4  1  0
  2  5  1  0
  5  6  1  0
  6  7  1  0
  7  8  1  0
  8  9  1  0
  9 10  2  0
 10 11  1  0
 11 12  2  0
 12 13  1  0
 13 14  2  0
 14 15  1  0
 15 16  1  0
 16 17  2  0
 16 18  1  0
 18 19  1  0
 19 20  1  0
 20 21  2  0
 21 22  1  0
 22 23  1  0
 23 24  1  0
 24 25  1  0
 25 26  1  0
 26 27  1  0
 22 28  1  0
 10 29  1  0
 29  6  1  0
 14  9  1  0
 28 19  2  0
 27 23  1  0
M  END
>  <ref_mols>  (795) 
B0693a

>  <gnina_score>  (795) 
5.223

>  <smina_score_min>  (795) 
-3.63

>  <ref_pdb>  (795) 
B0693a

>  <inspiration_score>  (795) 
None

>  <inchikey>  (795) 
SLIHZRAMMMRMOO-UHFFFAOYSA-N

>  <tags>  (795) 
BulkDock Fragalysis export,openbind_d68ev3c_c2_elabs_scored,openbind_d68ev3c_c2_elabs_scored_4.5plus,openbind_d68ev3c_c2_elabs,openbind_d68ev3c_c2_elabs_scored_5plus,syndirella_product,openbind_d68ev3c_c2_elabs_scored_top80percent,syndirella_placed

>  <smiles>  (795) 
CC(C)(O)CN1CCc2c(cccc2NC(=O)Cc2ccn(C3CCCC3)n2)C1

>  <subsites>  (795) 
None

>  <rmsd(smina/fragmenstein)>  (795) 
2.005

>  <alias>  (795) 
None

>  <energy_score>  (795) 
-66.753383

>  <HIPPO Pose ID>  (795) 
86210

>  <distance_score>  (795) 
0.621482

>  <HIPPO Compound ID>  (795) 
120098

>  <gnina_score_min>  (795) 
5.13

>  <name>  (795) 
P86210

>  <exports>  (795) 
['/opt/xchem-fragalysis-2/maxwin/BulkDock/OUTPUTS/openbind_d68ev3c_c2_elabs_1LOTQJ3.sdf', '/opt/xchem-fragalysis-2/maxwin/BulkDock/OUTPUTS/openbind_d68ev3c_c2_elabs_1LSYEHW.sdf', '/opt/xchem-fragalysis-2/maxwin/BulkDock/OUTPUTS/openbind_d68ev3c_c2_elabs_1LSYI5W.sdf']

$$$$
P86272
     RDKit          3D

 28 31  0  0  0  0  0  0  0  0999 V2000
  -24.8219   -0.7465   13.7584 O   0  0  0  0  0  0  0  0  0  0  0  0
  -24.4403   -0.5310   14.8446 C   0  0  0  0  0  0  0  0  0  0  0  0
  -25.3310    0.1336   15.8978 C   0  0  0  0  0  0  0  0  0  0  0  0
  -26.5463   -0.7336   16.0905 C   0  0  0  0  0  0  0  0  0  0  0  0
  -27.7360   -0.4644   15.3972 C   0  0  0  0  0  0  0  0  0  0  0  0
  -28.8095   -1.3697   15.4315 C   0  0  0  0  0  0  0  0  0  0  0  0
  -28.7120   -2.5619   16.1516 C   0  0  0  0  0  0  0  0  0  0  0  0
  -27.5388   -2.8074   16.8313 C   0  0  0  0  0  0  0  0  0  0  0  0
  -26.4875   -1.9170   16.8099 C   0  0  0  0  0  0  0  0  0  0  0  0
  -25.4183   -2.3655   17.5250 O   0  0  0  0  0  0  0  0  0  0  0  0
  -25.9405   -3.6159   17.9971 C   0  0  0  0  0  0  0  0  0  0  0  0
  -25.9238   -3.5965   19.3538 F   0  0  0  0  0  0  0  0  0  0  0  0
  -25.1007   -4.6057   17.6014 F   0  0  0  0  0  0  0  0  0  0  0  0
  -27.2665   -3.9247   17.5580 O   0  0  0  0  0  0  0  0  0  0  0  0
  -23.0935   -0.9083   15.5360 N   0  0  0  0  0  0  0  0  0  0  0  0
  -22.0545   -1.6588   15.0900 C   0  0  0  0  0  0  0  0  0  0  0  0
  -20.7973   -1.5719   15.7710 C   0  0  0  0  0  0  0  0  0  0  0  0
  -19.7729   -2.3225   15.3571 C   0  0  0  0  0  0  0  0  0  0  0  0
  -19.9218   -3.3064   14.2413 C   0  0  0  0  0  0  0  0  0  0  0  0
  -18.9415   -4.0047   13.9904 O   0  0  0  0  0  0  0  0  0  0  0  0
  -21.1520   -3.2860   13.5537 N   0  0  0  0  0  0  0  0  0  0  0  0
  -21.3337   -4.0490   12.3273 C   0  0  0  0  0  0  0  0  0  0  0  0
  -20.5794   -5.1919   12.0251 C   0  0  0  0  0  0  0  0  0  0  0  0
  -20.7552   -5.9000   10.8282 C   0  0  0  0  0  0  0  0  0  0  0  0
  -21.6970   -5.4813    9.8981 C   0  0  0  0  0  0  0  0  0  0  0  0
  -22.4599   -4.3522   10.1649 C   0  0  0  0  0  0  0  0  0  0  0  0
  -22.2787   -3.6464   11.3618 C   0  0  0  0  0  0  0  0  0  0  0  0
  -22.1805   -2.4754   14.0350 C   0  0  0  0  0  0  0  0  0  0  0  0
  1  2  2  0
  2  3  1  0
  3  4  1  0
  4  5  2  0
  5  6  1  0
  6  7  2  0
  7  8  1  0
  8  9  2  0
  9 10  1  0
 10 11  1  0
 11 12  1  0
 11 13  1  0
 11 14  1  0
  2 15  1  0
 15 16  1  0
 16 17  1  0
 17 18  2  0
 18 19  1  0
 19 20  2  0
 19 21  1  0
 21 22  1  0
 22 23  2  0
 23 24  1  0
 24 25  2  0
 25 26  1  0
 26 27  2  0
 21 28  1  0
  9  4  1  0
 28 16  2  0
 14  8  1  0
 27 22  1  0
M  END
>  <ref_mols>  (796) 
B0469a

>  <gnina_score>  (796) 
5.153

>  <smina_score_min>  (796) 
-4.065

>  <ref_pdb>  (796) 
B0469a

>  <inspiration_score>  (796) 
None

>  <inchikey>  (796) 
KESJXZOXYQIDGH-UHFFFAOYSA-N

>  <tags>  (796) 
BulkDock Fragalysis export,openbind_d68ev3c_c2_elabs_scored,openbind_d68ev3c_c2_elabs_scored_4.5plus,openbind_d68ev3c_c2_elabs,openbind_d68ev3c_c2_elabs_scored_5plus,syndirella_product,openbind_d68ev3c_c2_elabs_scored_top80percent,syndirella_placed

>  <smiles>  (796) 
O=C(Cc1cccc2c1OC(F)(F)O2)Nc1ccc(=O)n(-c2ccccc2)c1

>  <subsites>  (796) 
None

>  <rmsd(smina/fragmenstein)>  (796) 
2.652

>  <alias>  (796) 
None

>  <energy_score>  (796) 
-25.612037

>  <HIPPO Pose ID>  (796) 
86272

>  <distance_score>  (796) 
0.839825

>  <HIPPO Compound ID>  (796) 
120190

>  <gnina_score_min>  (796) 
5.01

>  <name>  (796) 
P86272

>  <exports>  (796) 
['/opt/xchem-fragalysis-2/maxwin/BulkDock/OUTPUTS/openbind_d68ev3c_c2_elabs_1LOTQJ3.sdf', '/opt/xchem-fragalysis-2/maxwin/BulkDock/OUTPUTS/openbind_d68ev3c_c2_elabs_1LSYEHW.sdf', '/opt/xchem-fragalysis-2/maxwin/BulkDock/OUTPUTS/openbind_d68ev3c_c2_elabs_1LSYI5W.sdf']

$$$$
P86283
     RDKit          3D

 30 33  0  0  0  0  0  0  0  0999 V2000
  -24.8904   -1.0753   13.7976 O   0  0  0  0  0  0  0  0  0  0  0  0
  -24.4718   -0.6767   14.8177 C   0  0  0  0  0  0  0  0  0  0  0  0
  -23.0831   -0.8950   15.4948 N   0  0  0  0  0  0  0  0  0  0  0  0
  -22.0356   -1.6721   15.1240 C   0  0  0  0  0  0  0  0  0  0  0  0
  -20.7634   -1.4903   15.7736 C   0  0  0  0  0  0  0  0  0  0  0  0
  -19.7056   -2.2209   15.3964 C   0  0  0  0  0  0  0  0  0  0  0  0
  -19.8484   -3.2852   14.3633 C   0  0  0  0  0  0  0  0  0  0  0  0
  -18.8828   -3.9791   14.0604 O   0  0  0  0  0  0  0  0  0  0  0  0
  -21.1037   -3.4079   13.7881 N   0  0  0  0  0  0  0  0  0  0  0  0
  -21.3085   -4.4027   12.7350 C   0  0  0  0  0  0  0  0  0  0  0  0
  -21.3627   -3.8595   11.3263 C   0  0  0  0  0  0  0  0  0  0  0  0
  -20.9921   -2.5617   10.9622 C   0  0  0  0  0  0  0  0  0  0  0  0
  -21.0443   -2.1734    9.6257 C   0  0  0  0  0  0  0  0  0  0  0  0
  -21.4557   -3.1028    8.6862 C   0  0  0  0  0  0  0  0  0  0  0  0
  -21.8067   -4.3698    8.9897 N   0  0  0  0  0  0  0  0  0  0  0  0
  -21.7552   -4.7140   10.2972 C   0  0  0  0  0  0  0  0  0  0  0  0
  -22.1623   -2.6058   14.1704 C   0  0  0  0  0  0  0  0  0  0  0  0
  -25.3727    0.1293   15.7973 C   0  0  1  0  0  0  0  0  0  0  0  0
  -25.6819    1.3970   15.2269 O   0  0  0  0  0  0  0  0  0  0  0  0
  -26.6126   -0.7014   16.0558 C   0  0  0  0  0  0  0  0  0  0  0  0
  -27.8516   -0.4182   15.4584 C   0  0  0  0  0  0  0  0  0  0  0  0
  -28.9258   -1.3192   15.5568 C   0  0  0  0  0  0  0  0  0  0  0  0
  -28.7879   -2.5198   16.2546 C   0  0  0  0  0  0  0  0  0  0  0  0
  -27.5759   -2.7756   16.8558 C   0  0  0  0  0  0  0  0  0  0  0  0
  -26.5228   -1.8906   16.7698 C   0  0  0  0  0  0  0  0  0  0  0  0
  -25.4146   -2.3517   17.4167 O   0  0  0  0  0  0  0  0  0  0  0  0
  -25.9143   -3.6020   17.9160 C   0  0  0  0  0  0  0  0  0  0  0  0
  -25.1091   -4.5940   17.4594 F   0  0  0  0  0  0  0  0  0  0  0  0
  -25.8096   -3.5907   19.2683 F   0  0  0  0  0  0  0  0  0  0  0  0
  -27.2669   -3.8978   17.5595 O   0  0  0  0  0  0  0  0  0  0  0  0
  1  2  2  0
  2  3  1  0
  3  4  1  0
  4  5  1  0
  5  6  2  0
  6  7  1  0
  7  8  2  0
  7  9  1  0
  9 10  1  0
 10 11  1  0
 11 12  2  0
 12 13  1  0
 13 14  2  0
 14 15  1  0
 15 16  2  0
  9 17  1  0
  2 18  1  0
 18 19  1  6
 18 20  1  0
 20 21  2  0
 21 22  1  0
 22 23  2  0
 23 24  1  0
 24 25  2  0
 25 26  1  0
 26 27  1  0
 27 28  1  0
 27 29  1  0
 27 30  1  0
 17  4  2  0
 25 20  1  0
 16 11  1  0
 30 24  1  0
M  END
>  <ref_mols>  (797) 
B0469a

>  <gnina_score>  (797) 
5.189

>  <smina_score_min>  (797) 
-2.928

>  <ref_pdb>  (797) 
B0469a

>  <inspiration_score>  (797) 
None

>  <inchikey>  (797) 
IEIUXWZRNVECLY-KRWDZBQOSA-N

>  <tags>  (797) 
BulkDock Fragalysis export,openbind_d68ev3c_c2_elabs_scored,openbind_d68ev3c_c2_elabs_scored_4.5plus,openbind_d68ev3c_c2_elabs,openbind_d68ev3c_c2_elabs_scored_5plus,syndirella_product,openbind_d68ev3c_c2_elabs_scored_top80percent,syndirella_placed

>  <smiles>  (797) 
O=C(Nc1ccc(=O)n(Cc2cccnc2)c1)[C@@H](O)c1cccc2c1OC(F)(F)O2

>  <subsites>  (797) 
None

>  <rmsd(smina/fragmenstein)>  (797) 
1.137

>  <alias>  (797) 
None

>  <energy_score>  (797) 
-32.889727

>  <HIPPO Pose ID>  (797) 
86283

>  <distance_score>  (797) 
0.840628

>  <HIPPO Compound ID>  (797) 
120197

>  <gnina_score_min>  (797) 
5.169

>  <name>  (797) 
P86283

>  <exports>  (797) 
['/opt/xchem-fragalysis-2/maxwin/BulkDock/OUTPUTS/openbind_d68ev3c_c2_elabs_1LOTQJ3.sdf', '/opt/xchem-fragalysis-2/maxwin/BulkDock/OUTPUTS/openbind_d68ev3c_c2_elabs_1LSYEHW.sdf', '/opt/xchem-fragalysis-2/maxwin/BulkDock/OUTPUTS/openbind_d68ev3c_c2_elabs_1LSYI5W.sdf']

$$$$
P86284
     RDKit          3D

 30 33  0  0  0  0  0  0  0  0999 V2000
  -25.0656   -0.6649   12.2807 O   0  0  0  0  0  0  0  0  0  0  0  0
  -25.0443   -0.3860   13.4141 C   0  0  0  0  0  0  0  0  0  0  0  0
  -26.1921    0.2650   14.1917 C   0  0  0  0  0  0  0  0  0  0  0  0
  -27.1637   -0.7413   14.7561 C   0  0  0  0  0  0  0  0  0  0  0  0
  -28.4496   -0.7895   14.1946 C   0  0  0  0  0  0  0  0  0  0  0  0
  -29.4018   -1.7293   14.6150 C   0  0  0  0  0  0  0  0  0  0  0  0
  -29.0928   -2.6547   15.6047 C   0  0  0  0  0  0  0  0  0  0  0  0
  -27.8369   -2.5928   16.1614 C   0  0  0  0  0  0  0  0  0  0  0  0
  -26.8961   -1.6564   15.7699 C   0  0  0  0  0  0  0  0  0  0  0  0
  -25.7476   -1.7805   16.4933 O   0  0  0  0  0  0  0  0  0  0  0  0
  -26.0929   -2.8956   17.3359 C   0  0  0  0  0  0  0  0  0  0  0  0
  -25.1904   -3.8845   17.1348 F   0  0  0  0  0  0  0  0  0  0  0  0
  -26.0069   -2.4933   18.6253 F   0  0  0  0  0  0  0  0  0  0  0  0
  -27.3959   -3.4329   17.1325 O   0  0  0  0  0  0  0  0  0  0  0  0
  -23.9502   -0.6241   14.4871 N   0  0  0  0  0  0  0  0  0  0  0  0
  -22.7752   -1.2946   14.4121 C   0  0  0  0  0  0  0  0  0  0  0  0
  -22.1685   -1.8154   13.2264 C   0  0  0  0  0  0  0  0  0  0  0  0
  -21.0433   -2.5457   13.3082 C   0  0  0  0  0  0  0  0  0  0  0  0
  -20.4164   -2.8666   14.6255 C   0  0  0  0  0  0  0  0  0  0  0  0
  -19.4113   -3.5710   14.6351 O   0  0  0  0  0  0  0  0  0  0  0  0
  -21.0656   -2.3146   15.7326 N   0  0  0  0  0  0  0  0  0  0  0  0
  -20.5361   -2.4440   17.0927 C   0  0  0  0  0  0  0  0  0  0  0  0
  -21.6192   -2.4381   18.1748 C   0  0  0  0  0  0  0  0  0  0  0  0
  -22.3934   -3.5975   18.3353 C   0  0  0  0  0  0  0  0  0  0  0  0
  -23.3314   -3.7133   19.3632 C   0  0  0  0  0  0  0  0  0  0  0  0
  -23.5777   -2.6339   20.2012 C   0  0  0  0  0  0  0  0  0  0  0  0
  -22.9217   -1.4284   19.9764 C   0  0  0  0  0  0  0  0  0  0  0  0
  -21.9567   -1.3243   18.9658 C   0  0  0  0  0  0  0  0  0  0  0  0
  -21.2691    0.2394   18.7245 Cl  0  0  0  0  0  0  0  0  0  0  0  0
  -22.1797   -1.5247   15.5786 C   0  0  0  0  0  0  0  0  0  0  0  0
  1  2  2  0
  2  3  1  0
  3  4  1  0
  4  5  2  0
  5  6  1  0
  6  7  2  0
  7  8  1  0
  8  9  2  0
  9 10  1  0
 10 11  1  0
 11 12  1  0
 11 13  1  0
 11 14  1  0
  2 15  1  0
 15 16  1  0
 16 17  1  0
 17 18  2  0
 18 19  1  0
 19 20  2  0
 19 21  1  0
 21 22  1  0
 22 23  1  0
 23 24  2  0
 24 25  1  0
 25 26  2  0
 26 27  1  0
 27 28  2  0
 28 29  1  0
 21 30  1  0
  9  4  1  0
 30 16  2  0
 14  8  1  0
 28 23  1  0
M  END
>  <ref_mols>  (798) 
B0469a

>  <gnina_score>  (798) 
5.748

>  <smina_score_min>  (798) 
-3.635

>  <ref_pdb>  (798) 
B0469a

>  <inspiration_score>  (798) 
None

>  <inchikey>  (798) 
RRJIMVUKSVUDPQ-UHFFFAOYSA-N

>  <tags>  (798) 
BulkDock Fragalysis export,openbind_d68ev3c_c2_elabs_scored,openbind_d68ev3c_c2_elabs_scored_4.5plus,openbind_d68ev3c_c2_elabs,openbind_d68ev3c_c2_elabs_scored_5plus,syndirella_product,openbind_d68ev3c_c2_elabs_scored_top80percent,syndirella_placed

>  <smiles>  (798) 
O=C(Cc1cccc2c1OC(F)(F)O2)Nc1ccc(=O)n(Cc2ccccc2Cl)c1

>  <subsites>  (798) 
None

>  <rmsd(smina/fragmenstein)>  (798) 
1.583

>  <alias>  (798) 
None

>  <energy_score>  (798) 
-42.158635

>  <HIPPO Pose ID>  (798) 
86284

>  <distance_score>  (798) 
1.818228

>  <HIPPO Compound ID>  (798) 
120199

>  <gnina_score_min>  (798) 
5.333

>  <name>  (798) 
P86284

>  <exports>  (798) 
['/opt/xchem-fragalysis-2/maxwin/BulkDock/OUTPUTS/openbind_d68ev3c_c2_elabs_1LOTQJ3.sdf', '/opt/xchem-fragalysis-2/maxwin/BulkDock/OUTPUTS/openbind_d68ev3c_c2_elabs_1LSYEHW.sdf', '/opt/xchem-fragalysis-2/maxwin/BulkDock/OUTPUTS/openbind_d68ev3c_c2_elabs_1LSYI5W.sdf']

$$$$
P86299
     RDKit          3D

 19 19  0  0  0  0  0  0  0  0999 V2000
  -12.1864  -28.3570   28.3628 C   0  0  0  0  0  0  0  0  0  0  0  0
  -12.2780  -26.8809   28.1136 C   0  0  0  0  0  0  0  0  0  0  0  0
  -10.9130  -26.2158   27.9848 C   0  0  0  0  0  0  0  0  0  0  0  0
  -11.1195  -24.7598   27.9449 N   0  0  0  0  0  0  0  0  0  0  0  0
  -11.1690  -24.1668   26.5942 C   0  0  0  0  0  0  0  0  0  0  0  0
  -12.0315  -24.9561   25.6092 C   0  0  0  0  0  0  0  0  0  0  0  0
  -11.6434  -25.9618   25.1566 O   0  0  0  0  0  0  0  0  0  0  0  0
  -13.3863  -24.2316   25.4281 N   0  0  0  0  0  0  0  0  0  0  0  0
  -14.4688  -24.5327   24.6096 O   0  0  0  0  0  0  0  0  0  0  0  0
  -14.8616  -25.8931   24.7556 C   0  0  0  0  0  0  0  0  0  0  0  0
  -15.8244  -26.0666   25.9125 C   0  0  0  0  0  0  0  0  0  0  0  0
  -11.4619  -24.0411   29.0719 C   0  0  0  0  0  0  0  0  0  0  0  0
  -11.8608  -22.3609   29.0378 S   0  0  0  0  0  0  0  0  0  0  0  0
  -12.3288  -22.2118   30.6000 N   0  0  0  0  0  0  0  0  0  0  0  0
  -12.0878  -23.3536   31.2330 C   0  0  0  0  0  0  0  0  0  0  0  0
  -12.4269  -23.4378   32.6809 C   0  0  0  0  0  0  0  0  0  0  0  0
  -11.5295  -24.3935   30.4216 C   0  0  0  0  0  0  0  0  0  0  0  0
  -11.1148  -25.6418   30.9626 C   0  0  0  0  0  0  0  0  0  0  0  0
  -10.7778  -26.6716   31.3700 N   0  0  0  0  0  0  0  0  0  0  0  0
  1  2  1  0
  2  3  1  0
  3  4  1  0
  4  5  1  0
  5  6  1  0
  6  7  2  0
  6  8  1  0
  8  9  1  0
  9 10  1  0
 10 11  1  0
  4 12  1  0
 12 13  1  0
 13 14  1  0
 14 15  2  0
 15 16  1  0
 15 17  1  0
 17 18  1  0
 18 19  3  0
 17 12  2  0
M  END
>  <ref_mols>  (799) 
7gop-a

>  <gnina_score>  (799) 
5.221

>  <smina_score_min>  (799) 
-4.499

>  <ref_pdb>  (799) 
7gop-a

>  <inspiration_score>  (799) 
None

>  <inchikey>  (799) 
STMRSIPOVOAQBP-UHFFFAOYSA-N

>  <tags>  (799) 
BulkDock Fragalysis export,openbind_d68ev3c_c2_elabs_scored,openbind_d68ev3c_c2_elabs_scored_4.5plus,openbind_d68ev3c_c2_elabs,openbind_d68ev3c_c2_elabs_scored_5plus,syndirella_product,openbind_d68ev3c_c2_elabs_scored_top80percent,syndirella_placed

>  <smiles>  (799) 
CCCN(CC(=O)NOCC)c1snc(C)c1C#N

>  <subsites>  (799) 
None

>  <rmsd(smina/fragmenstein)>  (799) 
0.646

>  <alias>  (799) 
None

>  <energy_score>  (799) 
-21.674084

>  <HIPPO Pose ID>  (799) 
86299

>  <distance_score>  (799) 
1.071983

>  <HIPPO Compound ID>  (799) 
121531

>  <gnina_score_min>  (799) 
5.196

>  <name>  (799) 
P86299

>  <exports>  (799) 
['/opt/xchem-fragalysis-2/maxwin/BulkDock/OUTPUTS/openbind_d68ev3c_c2_elabs_1LOTQJ3.sdf', '/opt/xchem-fragalysis-2/maxwin/BulkDock/OUTPUTS/openbind_d68ev3c_c2_elabs_1LSYEHW.sdf', '/opt/xchem-fragalysis-2/maxwin/BulkDock/OUTPUTS/openbind_d68ev3c_c2_elabs_1LSYI5W.sdf']

$$$$
P86317
     RDKit          3D

 20 21  0  0  0  0  0  0  0  0999 V2000
  -14.1086  -25.4887   26.1663 C   0  0  0  0  0  0  0  0  0  0  0  0
  -13.1267  -24.3527   25.9678 C   0  0  0  0  0  0  0  0  0  0  0  0
  -11.6947  -24.6729   26.3767 C   0  0  0  0  0  0  0  0  0  0  0  0
  -11.5230  -25.0254   27.8155 N   0  0  0  0  0  0  0  0  0  0  0  0
  -11.6654  -24.0610   28.8112 C   0  0  0  0  0  0  0  0  0  0  0  0
  -11.7116  -22.3706   28.4212 S   0  0  0  0  0  0  0  0  0  0  0  0
  -12.0546  -21.7933   29.9115 N   0  0  0  0  0  0  0  0  0  0  0  0
  -12.0315  -22.7931   30.7777 C   0  0  0  0  0  0  0  0  0  0  0  0
  -12.2835  -22.5005   32.2218 C   0  0  0  0  0  0  0  0  0  0  0  0
  -11.7302  -24.0734   30.2133 C   0  0  0  0  0  0  0  0  0  0  0  0
  -11.4713  -25.1265   31.1269 C   0  0  0  0  0  0  0  0  0  0  0  0
  -11.1493  -25.8731   31.9511 N   0  0  0  0  0  0  0  0  0  0  0  0
  -10.7111  -26.2577   27.9726 C   0  0  2  0  0  0  0  0  0  0  0  0
  -11.6339  -27.4485   27.8699 C   0  0  0  0  0  0  0  0  0  0  0  0
  -12.0089  -27.9220   29.2285 C   0  0  0  0  0  0  0  0  0  0  0  0
  -10.8610  -28.1859   30.1361 C   0  0  0  0  0  0  0  0  0  0  0  0
  -10.9522  -29.0494   30.9972 O   0  0  0  0  0  0  0  0  0  0  0  0
   -9.7807  -27.3824   29.9754 N   0  0  0  0  0  0  0  0  0  0  0  0
   -9.7736  -26.2763   29.1693 C   0  0  0  0  0  0  0  0  0  0  0  0
   -9.0628  -25.3050   29.4168 O   0  0  0  0  0  0  0  0  0  0  0  0
  1  2  1  0
  2  3  1  0
  3  4  1  0
  4  5  1  0
  5  6  1  0
  6  7  1  0
  7  8  2  0
  8  9  1  0
  8 10  1  0
 10 11  1  0
 11 12  3  0
 13  4  1  1
 13 14  1  0
 14 15  1  0
 15 16  1  0
 16 17  2  0
 16 18  1  0
 18 19  1  0
 19 20  2  0
 10  5  2  0
 19 13  1  0
M  END
>  <ref_mols>  (800) 
7gop-a

>  <gnina_score>  (800) 
5.153

>  <smina_score_min>  (800) 
-2.939

>  <ref_pdb>  (800) 
7gop-a

>  <inspiration_score>  (800) 
None

>  <inchikey>  (800) 
ZAWHDYYLWKWXCI-SNVBAGLBSA-N

>  <tags>  (800) 
BulkDock Fragalysis export,openbind_d68ev3c_c2_elabs_scored,openbind_d68ev3c_c2_elabs_scored_4.5plus,openbind_d68ev3c_c2_elabs,openbind_d68ev3c_c2_elabs_scored_5plus,syndirella_product,openbind_d68ev3c_c2_elabs_scored_top80percent,syndirella_placed

>  <smiles>  (800) 
CCCN(c1snc(C)c1C#N)[C@@H]1CCC(=O)NC1=O

>  <subsites>  (800) 
None

>  <rmsd(smina/fragmenstein)>  (800) 
0.406

>  <alias>  (800) 
None

>  <energy_score>  (800) 
-30.794102

>  <HIPPO Pose ID>  (800) 
86317

>  <distance_score>  (800) 
0.748964

>  <HIPPO Compound ID>  (800) 
121565

>  <gnina_score_min>  (800) 
5.034

>  <name>  (800) 
P86317

>  <exports>  (800) 
['/opt/xchem-fragalysis-2/maxwin/BulkDock/OUTPUTS/openbind_d68ev3c_c2_elabs_1LOTQJ3.sdf', '/opt/xchem-fragalysis-2/maxwin/BulkDock/OUTPUTS/openbind_d68ev3c_c2_elabs_1LSYEHW.sdf', '/opt/xchem-fragalysis-2/maxwin/BulkDock/OUTPUTS/openbind_d68ev3c_c2_elabs_1LSYI5W.sdf']

$$$$
P86318
     RDKit          3D

 20 21  0  0  0  0  0  0  0  0999 V2000
  -10.8719  -28.2763   30.4958 C   0  0  0  0  0  0  0  0  0  0  0  0
  -11.4796  -27.5491   29.3109 C   0  0  0  0  0  0  0  0  0  0  0  0
  -10.5060  -26.5861   28.6425 C   0  0  0  0  0  0  0  0  0  0  0  0
  -11.2169  -25.4286   28.1060 N   0  0  0  0  0  0  0  0  0  0  0  0
  -11.4984  -24.3545   28.9355 C   0  0  0  0  0  0  0  0  0  0  0  0
  -11.8715  -22.7737   28.3363 S   0  0  0  0  0  0  0  0  0  0  0  0
  -12.2345  -22.0741   29.7823 N   0  0  0  0  0  0  0  0  0  0  0  0
  -12.0177  -22.9533   30.7522 C   0  0  0  0  0  0  0  0  0  0  0  0
  -12.3128  -22.5418   32.1561 C   0  0  0  0  0  0  0  0  0  0  0  0
  -11.4520  -24.1947   30.3239 C   0  0  0  0  0  0  0  0  0  0  0  0
  -10.8800  -25.0688   31.2881 C   0  0  0  0  0  0  0  0  0  0  0  0
  -10.3435  -25.6339   32.1454 N   0  0  0  0  0  0  0  0  0  0  0  0
  -11.9307  -25.6645   26.7960 C   0  0  2  0  0  0  0  0  0  0  0  0
  -11.3342  -24.7494   25.7368 C   0  0  0  0  0  0  0  0  0  0  0  0
  -13.5045  -25.5922   26.8741 C   0  0  0  0  0  0  0  0  0  0  0  0
  -14.0510  -25.3422   27.8770 O   0  0  0  0  0  0  0  0  0  0  0  0
  -14.0801  -25.8389   25.4439 N   0  0  0  0  0  0  0  0  0  0  0  0
  -15.4039  -25.7347   24.9571 C   0  0  0  0  0  0  0  0  0  0  0  0
  -16.3895  -26.8320   25.2516 C   0  0  0  0  0  0  0  0  0  0  0  0
  -16.0249  -26.5010   23.8353 C   0  0  0  0  0  0  0  0  0  0  0  0
  1  2  1  0
  2  3  1  0
  3  4  1  0
  4  5  1  0
  5  6  1  0
  6  7  1  0
  7  8  2  0
  8  9  1  0
  8 10  1  0
 10 11  1  0
 11 12  3  0
  4 13  1  0
 13 14  1  6
 13 15  1  0
 15 16  2  0
 15 17  1  0
 17 18  1  0
 18 19  1  0
 19 20  1  0
 10  5  2  0
 20 18  1  0
M  END
>  <ref_mols>  (801) 
7gop-a

>  <gnina_score>  (801) 
5.119

>  <smina_score_min>  (801) 
-4.867

>  <ref_pdb>  (801) 
7gop-a

>  <inspiration_score>  (801) 
None

>  <inchikey>  (801) 
XPXGRUJPMBMYRV-SNVBAGLBSA-N

>  <tags>  (801) 
BulkDock Fragalysis export,openbind_d68ev3c_c2_elabs_scored,openbind_d68ev3c_c2_elabs_scored_4.5plus,openbind_d68ev3c_c2_elabs,openbind_d68ev3c_c2_elabs_scored_5plus,syndirella_product,openbind_d68ev3c_c2_elabs_scored_top80percent,syndirella_placed

>  <smiles>  (801) 
CCCN(c1snc(C)c1C#N)[C@H](C)C(=O)NC1CC1

>  <subsites>  (801) 
None

>  <rmsd(smina/fragmenstein)>  (801) 
0.335

>  <alias>  (801) 
None

>  <energy_score>  (801) 
-17.985408

>  <HIPPO Pose ID>  (801) 
86318

>  <distance_score>  (801) 
1.093953

>  <HIPPO Compound ID>  (801) 
121567

>  <gnina_score_min>  (801) 
5.041

>  <name>  (801) 
P86318

>  <exports>  (801) 
['/opt/xchem-fragalysis-2/maxwin/BulkDock/OUTPUTS/openbind_d68ev3c_c2_elabs_1LOTQJ3.sdf', '/opt/xchem-fragalysis-2/maxwin/BulkDock/OUTPUTS/openbind_d68ev3c_c2_elabs_1LSYEHW.sdf', '/opt/xchem-fragalysis-2/maxwin/BulkDock/OUTPUTS/openbind_d68ev3c_c2_elabs_1LSYI5W.sdf']

$$$$
P86322
     RDKit          3D

 20 21  0  0  0  0  0  0  0  0999 V2000
  -14.6051  -25.8160   26.5442 C   0  0  0  0  0  0  0  0  0  0  0  0
  -13.4958  -25.0644   25.8579 C   0  0  0  0  0  0  0  0  0  0  0  0
  -12.5638  -24.2298   26.7403 C   0  0  0  0  0  0  0  0  0  0  0  0
  -12.3045  -24.7017   28.1522 N   0  0  0  0  0  0  0  0  0  0  0  0
  -12.1257  -23.7164   29.0985 C   0  0  0  0  0  0  0  0  0  0  0  0
  -11.5613  -22.1476   28.6386 S   0  0  0  0  0  0  0  0  0  0  0  0
  -11.6036  -21.4557   30.1127 N   0  0  0  0  0  0  0  0  0  0  0  0
  -12.0204  -22.3432   30.9976 C   0  0  0  0  0  0  0  0  0  0  0  0
  -12.1757  -21.9549   32.4293 C   0  0  0  0  0  0  0  0  0  0  0  0
  -12.2787  -23.6412   30.4794 C   0  0  0  0  0  0  0  0  0  0  0  0
  -12.5029  -24.6264   31.4660 C   0  0  0  0  0  0  0  0  0  0  0  0
  -12.4434  -25.2183   32.4600 N   0  0  0  0  0  0  0  0  0  0  0  0
  -11.6393  -26.0081   28.2790 C   0  0  1  0  0  0  0  0  0  0  0  0
  -10.6901  -26.3041   27.0959 C   0  0  0  0  0  0  0  0  0  0  0  0
  -10.8907  -26.2258   25.8983 O   0  0  0  0  0  0  0  0  0  0  0  0
   -9.5344  -26.8132   27.6266 N   0  0  0  0  0  0  0  0  0  0  0  0
   -9.9100  -27.3962   28.8479 C   0  0  0  0  0  0  0  0  0  0  0  0
  -10.7255  -26.3533   29.5145 C   0  0  0  0  0  0  0  0  0  0  0  0
   -9.7115  -25.3455   30.0476 C   0  0  0  0  0  0  0  0  0  0  0  0
  -11.3784  -27.1497   30.6182 C   0  0  0  0  0  0  0  0  0  0  0  0
  1  2  1  0
  2  3  1  0
  3  4  1  0
  4  5  1  0
  5  6  1  0
  6  7  1  0
  7  8  2  0
  8  9  1  0
  8 10  1  0
 10 11  1  0
 11 12  3  0
 13  4  1  1
 13 14  1  0
 14 15  2  0
 14 16  1  0
 16 17  1  0
 17 18  1  0
 18 19  1  0
 18 20  1  0
 10  5  2  0
 18 13  1  0
M  END
>  <ref_mols>  (802) 
7gop-a

>  <gnina_score>  (802) 
5.234

>  <smina_score_min>  (802) 
-2.639

>  <ref_pdb>  (802) 
7gop-a

>  <inspiration_score>  (802) 
None

>  <inchikey>  (802) 
MCHXWQKKBTXZQF-NSHDSACASA-N

>  <tags>  (802) 
BulkDock Fragalysis export,openbind_d68ev3c_c2_elabs_scored,openbind_d68ev3c_c2_elabs_scored_4.5plus,openbind_d68ev3c_c2_elabs,openbind_d68ev3c_c2_elabs_scored_5plus,syndirella_product,openbind_d68ev3c_c2_elabs_scored_top80percent,syndirella_placed

>  <smiles>  (802) 
CCCN(c1snc(C)c1C#N)[C@H]1C(=O)NCC1(C)C

>  <subsites>  (802) 
None

>  <rmsd(smina/fragmenstein)>  (802) 
0.754

>  <alias>  (802) 
None

>  <energy_score>  (802) 
-65.742932

>  <HIPPO Pose ID>  (802) 
86322

>  <distance_score>  (802) 
1.398183

>  <HIPPO Compound ID>  (802) 
121571

>  <gnina_score_min>  (802) 
5.065

>  <name>  (802) 
P86322

>  <exports>  (802) 
['/opt/xchem-fragalysis-2/maxwin/BulkDock/OUTPUTS/openbind_d68ev3c_c2_elabs_1LOTQJ3.sdf', '/opt/xchem-fragalysis-2/maxwin/BulkDock/OUTPUTS/openbind_d68ev3c_c2_elabs_1LSYEHW.sdf', '/opt/xchem-fragalysis-2/maxwin/BulkDock/OUTPUTS/openbind_d68ev3c_c2_elabs_1LSYI5W.sdf']

$$$$
P86328
     RDKit          3D

 21 21  0  0  0  0  0  0  0  0999 V2000
  -12.2538  -28.4031   28.3270 C   0  0  0  0  0  0  0  0  0  0  0  0
  -12.1891  -26.9594   27.9223 C   0  0  0  0  0  0  0  0  0  0  0  0
  -10.8303  -26.3138   28.1422 C   0  0  0  0  0  0  0  0  0  0  0  0
  -11.0172  -24.8603   28.2408 N   0  0  0  0  0  0  0  0  0  0  0  0
  -10.6709  -24.1218   27.0324 C   0  0  0  0  0  0  0  0  0  0  0  0
  -11.5539  -24.4297   25.8338 C   0  0  0  0  0  0  0  0  0  0  0  0
  -11.1286  -24.5105   24.7541 O   0  0  0  0  0  0  0  0  0  0  0  0
  -13.0073  -24.4889   26.3414 N   0  0  0  0  0  0  0  0  0  0  0  0
  -14.2278  -24.7532   25.6399 C   0  0  0  0  0  0  0  0  0  0  0  0
  -14.4038  -26.1538   25.1168 C   0  0  0  0  0  0  0  0  0  0  0  0
  -15.5648  -26.1249   24.1666 C   0  0  0  0  0  0  0  0  0  0  0  0
  -16.7113  -25.8078   24.4326 O   0  0  0  0  0  0  0  0  0  0  0  0
  -15.1879  -26.4423   22.9153 O   0  0  0  0  0  0  0  0  0  0  0  0
  -11.4686  -24.1961   29.3612 C   0  0  0  0  0  0  0  0  0  0  0  0
  -11.9930  -22.5420   29.3431 S   0  0  0  0  0  0  0  0  0  0  0  0
  -12.4905  -22.4477   30.8982 N   0  0  0  0  0  0  0  0  0  0  0  0
  -12.2037  -23.5940   31.5071 C   0  0  0  0  0  0  0  0  0  0  0  0
  -12.5502  -23.7148   32.9471 C   0  0  0  0  0  0  0  0  0  0  0  0
  -11.5969  -24.5952   30.6825 C   0  0  0  0  0  0  0  0  0  0  0  0
  -11.1559  -25.8566   31.1487 C   0  0  0  0  0  0  0  0  0  0  0  0
  -10.7913  -26.9142   31.4428 N   0  0  0  0  0  0  0  0  0  0  0  0
  1  2  1  0
  2  3  1  0
  3  4  1  0
  4  5  1  0
  5  6  1  0
  6  7  2  0
  6  8  1  0
  8  9  1  0
  9 10  1  0
 10 11  1  0
 11 12  2  0
 11 13  1  0
  4 14  1  0
 14 15  1  0
 15 16  1  0
 16 17  2  0
 17 18  1  0
 17 19  1  0
 19 20  1  0
 20 21  3  0
 19 14  2  0
M  END
>  <ref_mols>  (803) 
7gop-a

>  <gnina_score>  (803) 
5.155

>  <smina_score_min>  (803) 
-5.133

>  <ref_pdb>  (803) 
7gop-a

>  <inspiration_score>  (803) 
None

>  <inchikey>  (803) 
COBMRTQZTKPAAQ-UHFFFAOYSA-N

>  <tags>  (803) 
BulkDock Fragalysis export,openbind_d68ev3c_c2_elabs_scored,openbind_d68ev3c_c2_elabs_scored_4.5plus,openbind_d68ev3c_c2_elabs,openbind_d68ev3c_c2_elabs_scored_5plus,syndirella_product,openbind_d68ev3c_c2_elabs_scored_top80percent,syndirella_placed

>  <smiles>  (803) 
CCCN(CC(=O)NCCC(=O)O)c1snc(C)c1C#N

>  <subsites>  (803) 
None

>  <rmsd(smina/fragmenstein)>  (803) 
0.934

>  <alias>  (803) 
None

>  <energy_score>  (803) 
-47.384946

>  <HIPPO Pose ID>  (803) 
86328

>  <distance_score>  (803) 
1.107314

>  <HIPPO Compound ID>  (803) 
121582

>  <gnina_score_min>  (803) 
5.355

>  <name>  (803) 
P86328

>  <exports>  (803) 
['/opt/xchem-fragalysis-2/maxwin/BulkDock/OUTPUTS/openbind_d68ev3c_c2_elabs_1LOTQJ3.sdf', '/opt/xchem-fragalysis-2/maxwin/BulkDock/OUTPUTS/openbind_d68ev3c_c2_elabs_1LSYEHW.sdf', '/opt/xchem-fragalysis-2/maxwin/BulkDock/OUTPUTS/openbind_d68ev3c_c2_elabs_1LSYI5W.sdf']

$$$$
P86329
     RDKit          3D

 21 21  0  0  0  0  0  0  0  0999 V2000
   -9.5850  -26.8191   28.3988 C   0  0  0  0  0  0  0  0  0  0  0  0
  -10.6802  -26.7741   27.3806 C   0  0  0  0  0  0  0  0  0  0  0  0
  -10.9173  -25.3339   27.0066 C   0  0  0  0  0  0  0  0  0  0  0  0
  -12.2828  -25.0228   27.4223 N   0  0  0  0  0  0  0  0  0  0  0  0
  -12.2829  -24.1616   28.4978 C   0  0  0  0  0  0  0  0  0  0  0  0
  -11.9452  -22.4740   28.3509 S   0  0  0  0  0  0  0  0  0  0  0  0
  -12.0902  -22.0986   29.9554 N   0  0  0  0  0  0  0  0  0  0  0  0
  -12.1338  -23.2335   30.6495 C   0  0  0  0  0  0  0  0  0  0  0  0
  -12.1116  -23.1667   32.1402 C   0  0  0  0  0  0  0  0  0  0  0  0
  -12.1069  -24.4282   29.8588 C   0  0  0  0  0  0  0  0  0  0  0  0
  -11.8042  -25.6990   30.4354 C   0  0  0  0  0  0  0  0  0  0  0  0
  -11.4065  -26.6686   30.9357 N   0  0  0  0  0  0  0  0  0  0  0  0
  -13.2927  -25.0238   26.2671 C   0  0  1  0  0  0  0  0  0  0  0  0
  -13.0040  -26.2680   25.4075 C   0  0  0  0  0  0  0  0  0  0  0  0
  -14.8009  -25.2880   26.6562 C   0  0  0  0  0  0  0  0  0  0  0  0
  -15.1032  -25.5102   27.7631 O   0  0  0  0  0  0  0  0  0  0  0  0
  -15.6630  -25.2913   25.3521 N   0  0  0  0  0  0  0  0  0  0  0  0
  -17.0840  -25.4753   25.1686 C   0  0  0  0  0  0  0  0  0  0  0  0
  -17.5129  -26.8346   24.6190 C   0  0  0  0  0  0  0  0  0  0  0  0
  -17.0807  -27.0001   23.1686 C   0  0  0  0  0  0  0  0  0  0  0  0
  -17.0408  -27.9889   25.4994 C   0  0  0  0  0  0  0  0  0  0  0  0
  1  2  1  0
  2  3  1  0
  3  4  1  0
  4  5  1  0
  5  6  1  0
  6  7  1  0
  7  8  2  0
  8  9  1  0
  8 10  1  0
 10 11  1  0
 11 12  3  0
  4 13  1  0
 13 14  1  6
 13 15  1  0
 15 16  2  0
 15 17  1  0
 17 18  1  0
 18 19  1  0
 19 20  1  0
 19 21  1  0
 10  5  2  0
M  END
>  <ref_mols>  (804) 
7gop-a

>  <gnina_score>  (804) 
4.979

>  <smina_score_min>  (804) 
-3.117

>  <ref_pdb>  (804) 
7gop-a

>  <inspiration_score>  (804) 
None

>  <inchikey>  (804) 
CVONOTYOAHNPHY-LBPRGKRZSA-N

>  <tags>  (804) 
BulkDock Fragalysis export,openbind_d68ev3c_c2_elabs_scored,openbind_d68ev3c_c2_elabs_scored_4.5plus,openbind_d68ev3c_c2_elabs,openbind_d68ev3c_c2_elabs_scored_5plus,syndirella_product,openbind_d68ev3c_c2_elabs_scored_top80percent,syndirella_placed

>  <smiles>  (804) 
CCCN(c1snc(C)c1C#N)[C@@H](C)C(=O)NCC(C)C

>  <subsites>  (804) 
None

>  <rmsd(smina/fragmenstein)>  (804) 
0.455

>  <alias>  (804) 
None

>  <energy_score>  (804) 
-14.969003

>  <HIPPO Pose ID>  (804) 
86329

>  <distance_score>  (804) 
1.486051

>  <HIPPO Compound ID>  (804) 
121587

>  <gnina_score_min>  (804) 
5.116

>  <name>  (804) 
P86329

>  <exports>  (804) 
['/opt/xchem-fragalysis-2/maxwin/BulkDock/OUTPUTS/openbind_d68ev3c_c2_elabs_1LOTQJ3.sdf', '/opt/xchem-fragalysis-2/maxwin/BulkDock/OUTPUTS/openbind_d68ev3c_c2_elabs_1LSYEHW.sdf', '/opt/xchem-fragalysis-2/maxwin/BulkDock/OUTPUTS/openbind_d68ev3c_c2_elabs_1LSYI5W.sdf']

$$$$
P86341
     RDKit          3D

 21 22  0  0  0  0  0  0  0  0999 V2000
   -9.1122  -30.4364   23.2618 C   0  0  0  0  0  0  0  0  0  0  0  0
   -9.7354  -30.0734   24.6180 C   0  0  0  0  0  0  0  0  0  0  0  0
   -9.7240  -28.6531   24.9571 O   0  0  0  0  0  0  0  0  0  0  0  0
  -10.8884  -28.0141   25.3832 N   0  0  0  0  0  0  0  0  0  0  0  0
  -11.3682  -26.5739   25.1729 C   0  0  0  0  0  0  0  0  0  0  0  0
  -10.8360  -25.6665   24.6768 O   0  0  0  0  0  0  0  0  0  0  0  0
  -12.8215  -26.4158   25.6836 C   0  0  0  0  0  0  0  0  0  0  0  0
  -12.9050  -25.6645   26.9224 N   0  0  0  0  0  0  0  0  0  0  0  0
  -12.1703  -26.3467   28.0147 C   0  0  0  0  0  0  0  0  0  0  0  0
  -10.7139  -25.8972   28.2317 C   0  0  0  0  0  0  0  0  0  0  0  0
  -10.7305  -24.4359   28.3927 N   0  0  0  0  0  0  0  0  0  0  0  0
  -11.3173  -23.8879   29.5249 C   0  0  0  0  0  0  0  0  0  0  0  0
  -11.9004  -22.2601   29.5912 S   0  0  0  0  0  0  0  0  0  0  0  0
  -12.4954  -22.3023   31.1142 N   0  0  0  0  0  0  0  0  0  0  0  0
  -12.1963  -23.4766   31.6574 C   0  0  0  0  0  0  0  0  0  0  0  0
  -12.6217  -23.7109   33.0592 C   0  0  0  0  0  0  0  0  0  0  0  0
  -11.5047  -24.3936   30.8068 C   0  0  0  0  0  0  0  0  0  0  0  0
  -11.0955  -25.6923   31.2091 C   0  0  0  0  0  0  0  0  0  0  0  0
  -10.8126  -26.7940   31.4274 N   0  0  0  0  0  0  0  0  0  0  0  0
  -11.0919  -23.8396   27.0912 C   0  0  0  0  0  0  0  0  0  0  0  0
  -12.4988  -24.2682   26.6671 C   0  0  0  0  0  0  0  0  0  0  0  0
  1  2  1  0
  2  3  1  0
  3  4  1  0
  4  5  1  0
  5  6  2  0
  5  7  1  0
  7  8  1  0
  8  9  1  0
  9 10  1  0
 10 11  1  0
 11 12  1  0
 12 13  1  0
 13 14  1  0
 14 15  2  0
 15 16  1  0
 15 17  1  0
 17 18  1  0
 18 19  3  0
 11 20  1  0
 20 21  1  0
 21  8  1  0
 17 12  2  0
M  END
>  <ref_mols>  (805) 
7gop-a

>  <gnina_score>  (805) 
5.274

>  <smina_score_min>  (805) 
-1.28

>  <ref_pdb>  (805) 
7gop-a

>  <inspiration_score>  (805) 
None

>  <inchikey>  (805) 
SFGVSAZGELFIPY-UHFFFAOYSA-N

>  <tags>  (805) 
BulkDock Fragalysis export,openbind_d68ev3c_c2_elabs_scored,openbind_d68ev3c_c2_elabs_scored_4.5plus,openbind_d68ev3c_c2_elabs,openbind_d68ev3c_c2_elabs_scored_5plus,syndirella_product,openbind_d68ev3c_c2_elabs_scored_top80percent,syndirella_placed

>  <smiles>  (805) 
CCONC(=O)CN1CCN(c2snc(C)c2C#N)CC1

>  <subsites>  (805) 
None

>  <rmsd(smina/fragmenstein)>  (805) 
0.532

>  <alias>  (805) 
None

>  <energy_score>  (805) 
-2.839849

>  <HIPPO Pose ID>  (805) 
86341

>  <distance_score>  (805) 
0.970547

>  <HIPPO Compound ID>  (805) 
121608

>  <gnina_score_min>  (805) 
5.185

>  <name>  (805) 
P86341

>  <exports>  (805) 
['/opt/xchem-fragalysis-2/maxwin/BulkDock/OUTPUTS/openbind_d68ev3c_c2_elabs_1LOTQJ3.sdf', '/opt/xchem-fragalysis-2/maxwin/BulkDock/OUTPUTS/openbind_d68ev3c_c2_elabs_1LSYEHW.sdf', '/opt/xchem-fragalysis-2/maxwin/BulkDock/OUTPUTS/openbind_d68ev3c_c2_elabs_1LSYI5W.sdf']

$$$$
P86346
     RDKit          3D

 21 22  0  0  0  0  0  0  0  0999 V2000
  -16.3015  -26.4812   26.6332 C   0  0  0  0  0  0  0  0  0  0  0  0
  -15.0569  -25.7883   26.8257 N   0  0  0  0  0  0  0  0  0  0  0  0
  -13.8850  -25.7116   25.9998 C   0  0  0  0  0  0  0  0  0  0  0  0
  -13.6137  -26.2693   24.9759 O   0  0  0  0  0  0  0  0  0  0  0  0
  -12.9221  -24.6177   26.5841 C   0  0  2  0  0  0  0  0  0  0  0  0
  -11.7714  -24.3285   25.6267 C   0  0  0  0  0  0  0  0  0  0  0  0
  -12.5751  -24.8623   28.0512 N   0  0  0  0  0  0  0  0  0  0  0  0
  -11.7557  -25.9742   28.3462 C   0  0  0  0  0  0  0  0  0  0  0  0
  -10.5636  -26.1971   27.7090 C   0  0  0  0  0  0  0  0  0  0  0  0
   -9.5878  -26.9203   28.3492 C   0  0  0  0  0  0  0  0  0  0  0  0
   -9.7705  -27.4638   29.6198 C   0  0  0  0  0  0  0  0  0  0  0  0
  -10.9902  -27.3897   30.2057 C   0  0  0  0  0  0  0  0  0  0  0  0
  -11.9579  -26.6665   29.5425 C   0  0  0  0  0  0  0  0  0  0  0  0
  -12.2745  -23.7642   28.8709 C   0  0  0  0  0  0  0  0  0  0  0  0
  -11.6746  -22.2733   28.2481 S   0  0  0  0  0  0  0  0  0  0  0  0
  -11.5951  -21.4490   29.6596 N   0  0  0  0  0  0  0  0  0  0  0  0
  -11.8519  -22.2875   30.6476 C   0  0  0  0  0  0  0  0  0  0  0  0
  -11.7187  -21.8372   32.0555 C   0  0  0  0  0  0  0  0  0  0  0  0
  -12.2271  -23.6019   30.2619 C   0  0  0  0  0  0  0  0  0  0  0  0
  -12.4468  -24.5121   31.3349 C   0  0  0  0  0  0  0  0  0  0  0  0
  -12.5097  -25.0899   32.3380 N   0  0  0  0  0  0  0  0  0  0  0  0
  1  2  1  0
  2  3  1  0
  3  4  2  0
  3  5  1  0
  5  6  1  6
  5  7  1  0
  7  8  1  0
  8  9  2  0
  9 10  1  0
 10 11  2  0
 11 12  1  0
 12 13  2  0
  7 14  1  0
 14 15  1  0
 15 16  1  0
 16 17  2  0
 17 18  1  0
 17 19  1  0
 19 20  1  0
 20 21  3  0
 13  8  1  0
 19 14  2  0
M  END
>  <ref_mols>  (806) 
7gop-a

>  <gnina_score>  (806) 
5.279

>  <smina_score_min>  (806) 
-4.497

>  <ref_pdb>  (806) 
7gop-a

>  <inspiration_score>  (806) 
None

>  <inchikey>  (806) 
SRVIJYAOUGOQAY-NSHDSACASA-N

>  <tags>  (806) 
BulkDock Fragalysis export,openbind_d68ev3c_c2_elabs_scored,openbind_d68ev3c_c2_elabs_scored_4.5plus,openbind_d68ev3c_c2_elabs,openbind_d68ev3c_c2_elabs_scored_5plus,syndirella_product,openbind_d68ev3c_c2_elabs_scored_top80percent,syndirella_placed

>  <smiles>  (806) 
CNC(=O)[C@H](C)N(c1ccccc1)c1snc(C)c1C#N

>  <subsites>  (806) 
None

>  <rmsd(smina/fragmenstein)>  (806) 
0.733

>  <alias>  (806) 
None

>  <energy_score>  (806) 
-35.720989

>  <HIPPO Pose ID>  (806) 
86346

>  <distance_score>  (806) 
1.547824

>  <HIPPO Compound ID>  (806) 
121613

>  <gnina_score_min>  (806) 
5.278

>  <name>  (806) 
P86346

>  <exports>  (806) 
['/opt/xchem-fragalysis-2/maxwin/BulkDock/OUTPUTS/openbind_d68ev3c_c2_elabs_1LOTQJ3.sdf', '/opt/xchem-fragalysis-2/maxwin/BulkDock/OUTPUTS/openbind_d68ev3c_c2_elabs_1LSYEHW.sdf', '/opt/xchem-fragalysis-2/maxwin/BulkDock/OUTPUTS/openbind_d68ev3c_c2_elabs_1LSYI5W.sdf']

$$$$
P86350
     RDKit          3D

 22 24  0  0  0  0  0  0  0  0999 V2000
  -14.1821  -25.7437   26.1130 C   0  0  0  0  0  0  0  0  0  0  0  0
  -13.6600  -24.3736   25.7406 C   0  0  0  0  0  0  0  0  0  0  0  0
  -12.2445  -23.9868   26.1356 C   0  0  0  0  0  0  0  0  0  0  0  0
  -11.8529  -24.5184   27.4725 N   0  0  0  0  0  0  0  0  0  0  0  0
  -11.8697  -23.6775   28.5770 C   0  0  0  0  0  0  0  0  0  0  0  0
  -11.5340  -22.0159   28.4242 S   0  0  0  0  0  0  0  0  0  0  0  0
  -11.7212  -21.5593   29.9738 N   0  0  0  0  0  0  0  0  0  0  0  0
  -12.0028  -22.6277   30.6966 C   0  0  0  0  0  0  0  0  0  0  0  0
  -12.1862  -22.4848   32.1746 C   0  0  0  0  0  0  0  0  0  0  0  0
  -12.0633  -23.8510   29.9517 C   0  0  0  0  0  0  0  0  0  0  0  0
  -12.2167  -25.0122   30.7388 C   0  0  0  0  0  0  0  0  0  0  0  0
  -12.1732  -25.7373   31.6378 N   0  0  0  0  0  0  0  0  0  0  0  0
  -10.7210  -25.4621   27.2996 C   0  0  2  0  0  0  0  0  0  0  0  0
  -11.1880  -26.6238   26.3787 C   0  0  0  0  0  0  0  0  0  0  0  0
  -11.1905  -26.6565   25.1576 O   0  0  0  0  0  0  0  0  0  0  0  0
  -11.6765  -27.6044   27.2280 N   0  0  0  0  0  0  0  0  0  0  0  0
  -11.2404  -27.3766   28.5151 C   0  0  0  0  0  0  0  0  0  0  0  0
  -11.3709  -28.1731   29.6101 C   0  0  0  0  0  0  0  0  0  0  0  0
  -10.5165  -27.9013   30.6703 C   0  0  0  0  0  0  0  0  0  0  0  0
   -9.6624  -26.7850   30.6568 C   0  0  0  0  0  0  0  0  0  0  0  0
   -9.6649  -25.9117   29.5912 C   0  0  0  0  0  0  0  0  0  0  0  0
  -10.4700  -26.2269   28.5343 C   0  0  0  0  0  0  0  0  0  0  0  0
  1  2  1  0
  2  3  1  0
  3  4  1  0
  4  5  1  0
  5  6  1  0
  6  7  1  0
  7  8  2  0
  8  9  1  0
  8 10  1  0
 10 11  1  0
 11 12  3  0
 13  4  1  1
 13 14  1  0
 14 15  2  0
 14 16  1  0
 16 17  1  0
 17 18  2  0
 18 19  1  0
 19 20  2  0
 20 21  1  0
 21 22  2  0
 10  5  2  0
 22 13  1  0
 22 17  1  0
M  END
>  <ref_mols>  (807) 
7gop-a

>  <gnina_score>  (807) 
5.444

>  <smina_score_min>  (807) 
-3.342

>  <ref_pdb>  (807) 
7gop-a

>  <inspiration_score>  (807) 
None

>  <inchikey>  (807) 
LDWCBWLXCMCPKP-AWEZNQCLSA-N

>  <tags>  (807) 
BulkDock Fragalysis export,openbind_d68ev3c_c2_elabs_scored,openbind_d68ev3c_c2_elabs_scored_4.5plus,openbind_d68ev3c_c2_elabs,openbind_d68ev3c_c2_elabs_scored_5plus,syndirella_product,openbind_d68ev3c_c2_elabs_scored_top80percent,syndirella_placed

>  <smiles>  (807) 
CCCN(c1snc(C)c1C#N)[C@@H]1C(=O)Nc2ccccc21

>  <subsites>  (807) 
None

>  <rmsd(smina/fragmenstein)>  (807) 
0.366

>  <alias>  (807) 
None

>  <energy_score>  (807) 
-5.59025

>  <HIPPO Pose ID>  (807) 
86350

>  <distance_score>  (807) 
1.159098

>  <HIPPO Compound ID>  (807) 
121622

>  <gnina_score_min>  (807) 
5.462

>  <name>  (807) 
P86350

>  <exports>  (807) 
['/opt/xchem-fragalysis-2/maxwin/BulkDock/OUTPUTS/openbind_d68ev3c_c2_elabs_1LOTQJ3.sdf', '/opt/xchem-fragalysis-2/maxwin/BulkDock/OUTPUTS/openbind_d68ev3c_c2_elabs_1LSYEHW.sdf', '/opt/xchem-fragalysis-2/maxwin/BulkDock/OUTPUTS/openbind_d68ev3c_c2_elabs_1LSYI5W.sdf']

$$$$
P86356
     RDKit          3D

 22 24  0  0  0  0  0  0  0  0999 V2000
  -12.5082  -22.5578   32.7138 C   0  0  0  0  0  0  0  0  0  0  0  0
  -12.1232  -22.7553   31.2889 C   0  0  0  0  0  0  0  0  0  0  0  0
  -12.1027  -21.7058   30.4868 N   0  0  0  0  0  0  0  0  0  0  0  0
  -11.7645  -22.1685   28.9682 S   0  0  0  0  0  0  0  0  0  0  0  0
  -11.6872  -23.8588   29.2751 C   0  0  0  0  0  0  0  0  0  0  0  0
  -11.5085  -24.7620   28.2408 N   0  0  0  0  0  0  0  0  0  0  0  0
  -11.1450  -26.0689   28.5951 C   0  0  0  0  0  0  0  0  0  0  0  0
   -9.9507  -26.2354   29.2935 C   0  0  0  0  0  0  0  0  0  0  0  0
   -9.7917  -27.3115   30.1538 C   0  0  0  0  0  0  0  0  0  0  0  0
  -10.7870  -28.2574   30.2678 C   0  0  0  0  0  0  0  0  0  0  0  0
  -11.8329  -28.2437   29.3632 C   0  0  0  0  0  0  0  0  0  0  0  0
  -12.0122  -27.1513   28.5318 C   0  0  0  0  0  0  0  0  0  0  0  0
  -12.2125  -24.4751   26.9591 C   0  0  1  0  0  0  0  0  0  0  0  0
  -11.4618  -25.0630   25.7646 C   0  0  0  0  0  0  0  0  0  0  0  0
  -12.0902  -26.3730   25.2954 C   0  0  0  0  0  0  0  0  0  0  0  0
  -13.6234  -26.2868   25.1234 C   0  0  0  0  0  0  0  0  0  0  0  0
  -14.1510  -25.0637   25.6312 N   0  0  0  0  0  0  0  0  0  0  0  0
  -13.6773  -24.9247   26.9151 C   0  0  0  0  0  0  0  0  0  0  0  0
  -14.3829  -25.2829   27.8471 O   0  0  0  0  0  0  0  0  0  0  0  0
  -11.7270  -23.9733   30.6711 C   0  0  0  0  0  0  0  0  0  0  0  0
  -11.3739  -25.0618   31.5165 C   0  0  0  0  0  0  0  0  0  0  0  0
  -10.9565  -25.7521   32.3494 N   0  0  0  0  0  0  0  0  0  0  0  0
  1  2  1  0
  2  3  2  0
  3  4  1  0
  4  5  1  0
  5  6  1  0
  6  7  1  0
  7  8  2  0
  8  9  1  0
  9 10  2  0
 10 11  1  0
 11 12  2  0
 13  6  1  1
 13 14  1  0
 14 15  1  0
 15 16  1  0
 16 17  1  0
 17 18  1  0
 18 19  2  0
  5 20  2  0
 20 21  1  0
 21 22  3  0
 20  2  1  0
 12  7  1  0
 18 13  1  0
M  END
>  <ref_mols>  (808) 
7gop-a

>  <gnina_score>  (808) 
5.538

>  <smina_score_min>  (808) 
-4.6

>  <ref_pdb>  (808) 
7gop-a

>  <inspiration_score>  (808) 
None

>  <inchikey>  (808) 
IPDLRYCXPXRFTL-AWEZNQCLSA-N

>  <tags>  (808) 
BulkDock Fragalysis export,openbind_d68ev3c_c2_elabs_scored,openbind_d68ev3c_c2_elabs_scored_4.5plus,openbind_d68ev3c_c2_elabs,openbind_d68ev3c_c2_elabs_scored_5plus,syndirella_product,openbind_d68ev3c_c2_elabs_scored_top80percent,syndirella_placed

>  <smiles>  (808) 
Cc1nsc(N(c2ccccc2)[C@H]2CCCNC2=O)c1C#N

>  <subsites>  (808) 
None

>  <rmsd(smina/fragmenstein)>  (808) 
0.581

>  <alias>  (808) 
None

>  <energy_score>  (808) 
-1.253196

>  <HIPPO Pose ID>  (808) 
86356

>  <distance_score>  (808) 
0.883419

>  <HIPPO Compound ID>  (808) 
121629

>  <gnina_score_min>  (808) 
5.568

>  <name>  (808) 
P86356

>  <exports>  (808) 
['/opt/xchem-fragalysis-2/maxwin/BulkDock/OUTPUTS/openbind_d68ev3c_c2_elabs_1LOTQJ3.sdf', '/opt/xchem-fragalysis-2/maxwin/BulkDock/OUTPUTS/openbind_d68ev3c_c2_elabs_1LSYEHW.sdf', '/opt/xchem-fragalysis-2/maxwin/BulkDock/OUTPUTS/openbind_d68ev3c_c2_elabs_1LSYI5W.sdf']

$$$$
P86358
     RDKit          3D

 22 23  0  0  0  0  0  0  0  0999 V2000
  -10.5070  -28.2086   30.6331 C   0  0  0  0  0  0  0  0  0  0  0  0
  -10.2063  -27.1384   29.6055 C   0  0  0  0  0  0  0  0  0  0  0  0
  -11.5058  -26.6808   28.9899 C   0  0  0  0  0  0  0  0  0  0  0  0
  -11.4036  -25.3559   28.4151 N   0  0  0  0  0  0  0  0  0  0  0  0
  -10.9589  -25.2518   27.0190 C   0  0  0  0  0  0  0  0  0  0  0  0
  -12.0759  -24.9296   26.0018 C   0  0  0  0  0  0  0  0  0  0  0  0
  -11.9705  -24.0628   25.2251 O   0  0  0  0  0  0  0  0  0  0  0  0
  -13.1943  -25.9957   26.1757 N   0  0  0  0  0  0  0  0  0  0  0  0
  -14.3658  -26.2714   25.3671 C   0  0  0  0  0  0  0  0  0  0  0  0
  -15.3510  -27.1948   26.1133 C   0  0  0  0  0  0  0  0  0  0  0  0
  -16.5471  -26.4411   26.6714 C   0  0  0  0  0  0  0  0  0  0  0  0
  -17.3668  -25.8736   25.5268 C   0  0  0  0  0  0  0  0  0  0  0  0
  -16.4983  -25.2839   24.4184 C   0  0  0  0  0  0  0  0  0  0  0  0
  -15.0336  -25.0364   24.7970 C   0  0  0  0  0  0  0  0  0  0  0  0
  -11.5874  -24.2437   29.2022 C   0  0  0  0  0  0  0  0  0  0  0  0
  -11.8203  -22.6561   28.5550 S   0  0  0  0  0  0  0  0  0  0  0  0
  -12.2000  -21.9199   29.9765 N   0  0  0  0  0  0  0  0  0  0  0  0
  -12.0770  -22.7905   30.9705 C   0  0  0  0  0  0  0  0  0  0  0  0
  -12.3998  -22.3437   32.3555 C   0  0  0  0  0  0  0  0  0  0  0  0
  -11.6007  -24.0762   30.5876 C   0  0  0  0  0  0  0  0  0  0  0  0
  -11.1348  -24.9804   31.5829 C   0  0  0  0  0  0  0  0  0  0  0  0
  -10.6835  -25.5920   32.4585 N   0  0  0  0  0  0  0  0  0  0  0  0
  1  2  1  0
  2  3  1  0
  3  4  1  0
  4  5  1  0
  5  6  1  0
  6  7  2  0
  6  8  1  0
  8  9  1  0
  9 10  1  0
 10 11  1  0
 11 12  1  0
 12 13  1  0
 13 14  1  0
  4 15  1  0
 15 16  1  0
 16 17  1  0
 17 18  2  0
 18 19  1  0
 18 20  1  0
 20 21  1  0
 21 22  3  0
 14  9  1  0
 20 15  2  0
M  END
>  <ref_mols>  (809) 
7gop-a

>  <gnina_score>  (809) 
5.017

>  <smina_score_min>  (809) 
-4.082

>  <ref_pdb>  (809) 
7gop-a

>  <inspiration_score>  (809) 
None

>  <inchikey>  (809) 
OYZWGTNBGWQNMM-UHFFFAOYSA-N

>  <tags>  (809) 
BulkDock Fragalysis export,openbind_d68ev3c_c2_elabs_scored,openbind_d68ev3c_c2_elabs_scored_4.5plus,openbind_d68ev3c_c2_elabs,openbind_d68ev3c_c2_elabs_scored_5plus,syndirella_product,openbind_d68ev3c_c2_elabs_scored_top80percent,syndirella_placed

>  <smiles>  (809) 
CCCN(CC(=O)NC1CCCCC1)c1snc(C)c1C#N

>  <subsites>  (809) 
None

>  <rmsd(smina/fragmenstein)>  (809) 
0.354

>  <alias>  (809) 
None

>  <energy_score>  (809) 
-28.642987

>  <HIPPO Pose ID>  (809) 
86358

>  <distance_score>  (809) 
0.981819

>  <HIPPO Compound ID>  (809) 
121633

>  <gnina_score_min>  (809) 
5.032

>  <name>  (809) 
P86358

>  <exports>  (809) 
['/opt/xchem-fragalysis-2/maxwin/BulkDock/OUTPUTS/openbind_d68ev3c_c2_elabs_1LOTQJ3.sdf', '/opt/xchem-fragalysis-2/maxwin/BulkDock/OUTPUTS/openbind_d68ev3c_c2_elabs_1LSYEHW.sdf', '/opt/xchem-fragalysis-2/maxwin/BulkDock/OUTPUTS/openbind_d68ev3c_c2_elabs_1LSYI5W.sdf']

$$$$
P86359
     RDKit          3D

 22 22  0  0  0  0  0  0  0  0999 V2000
  -16.4767  -29.9467   27.6155 C   0  0  0  0  0  0  0  0  0  0  0  0
  -15.9677  -28.7492   26.8278 C   0  0  0  0  0  0  0  0  0  0  0  0
  -16.8441  -27.5260   27.0359 C   0  0  0  0  0  0  0  0  0  0  0  0
  -16.3741  -26.2467   26.3284 C   0  0  2  0  0  0  0  0  0  0  0  0
  -16.7038  -26.2871   24.8323 C   0  0  0  0  0  0  0  0  0  0  0  0
  -15.0043  -25.7632   26.5404 N   0  0  0  0  0  0  0  0  0  0  0  0
  -13.7207  -25.9660   25.6901 C   0  0  0  0  0  0  0  0  0  0  0  0
  -13.5408  -26.6131   24.7326 O   0  0  0  0  0  0  0  0  0  0  0  0
  -12.5451  -25.0507   26.1904 C   0  0  1  0  0  0  0  0  0  0  0  0
  -12.9235  -23.6751   25.7082 C   0  0  0  0  0  0  0  0  0  0  0  0
  -12.0020  -25.2441   27.6128 N   0  0  0  0  0  0  0  0  0  0  0  0
  -10.7083  -25.9812   27.4789 C   0  0  0  0  0  0  0  0  0  0  0  0
  -10.3573  -26.8886   28.6214 C   0  0  0  0  0  0  0  0  0  0  0  0
  -11.5093  -27.8197   28.9470 C   0  0  0  0  0  0  0  0  0  0  0  0
  -11.9746  -24.2376   28.6001 C   0  0  0  0  0  0  0  0  0  0  0  0
  -11.7380  -22.5441   28.2915 S   0  0  0  0  0  0  0  0  0  0  0  0
  -12.0284  -21.9787   29.8052 N   0  0  0  0  0  0  0  0  0  0  0  0
  -12.0586  -23.0106   30.6345 C   0  0  0  0  0  0  0  0  0  0  0  0
  -12.1679  -22.7611   32.1044 C   0  0  0  0  0  0  0  0  0  0  0  0
  -11.9148  -24.2922   30.0068 C   0  0  0  0  0  0  0  0  0  0  0  0
  -11.6520  -25.4048   30.8529 C   0  0  0  0  0  0  0  0  0  0  0  0
  -11.2679  -26.2093   31.5932 N   0  0  0  0  0  0  0  0  0  0  0  0
  1  2  1  0
  2  3  1  0
  3  4  1  0
  4  5  1  6
  4  6  1  0
  6  7  1  0
  7  8  2  0
  7  9  1  0
  9 10  1  1
  9 11  1  0
 11 12  1  0
 12 13  1  0
 13 14  1  0
 11 15  1  0
 15 16  1  0
 16 17  1  0
 17 18  2  0
 18 19  1  0
 18 20  1  0
 20 21  1  0
 21 22  3  0
 20 15  2  0
M  END
>  <ref_mols>  (810) 
7gop-a

>  <gnina_score>  (810) 
5.244

>  <smina_score_min>  (810) 
-4.428

>  <ref_pdb>  (810) 
7gop-a

>  <inspiration_score>  (810) 
None

>  <inchikey>  (810) 
JKPCQBBUTURRDB-WCQYABFASA-N

>  <tags>  (810) 
BulkDock Fragalysis export,openbind_d68ev3c_c2_elabs_scored,openbind_d68ev3c_c2_elabs_scored_4.5plus,openbind_d68ev3c_c2_elabs,openbind_d68ev3c_c2_elabs_scored_5plus,syndirella_product,openbind_d68ev3c_c2_elabs_scored_top80percent,syndirella_placed

>  <smiles>  (810) 
CCC[C@H](C)NC(=O)[C@@H](C)N(CCC)c1snc(C)c1C#N

>  <subsites>  (810) 
None

>  <rmsd(smina/fragmenstein)>  (810) 
0.798

>  <alias>  (810) 
None

>  <energy_score>  (810) 
-9.153772

>  <HIPPO Pose ID>  (810) 
86359

>  <distance_score>  (810) 
1.103378

>  <HIPPO Compound ID>  (810) 
121634

>  <gnina_score_min>  (810) 
5.497

>  <name>  (810) 
P86359

>  <exports>  (810) 
['/opt/xchem-fragalysis-2/maxwin/BulkDock/OUTPUTS/openbind_d68ev3c_c2_elabs_1LOTQJ3.sdf', '/opt/xchem-fragalysis-2/maxwin/BulkDock/OUTPUTS/openbind_d68ev3c_c2_elabs_1LSYEHW.sdf', '/opt/xchem-fragalysis-2/maxwin/BulkDock/OUTPUTS/openbind_d68ev3c_c2_elabs_1LSYI5W.sdf']

$$$$
P86360
     RDKit          3D

 22 23  0  0  0  0  0  0  0  0999 V2000
  -14.4649  -25.8476   26.6639 C   0  0  0  0  0  0  0  0  0  0  0  0
  -13.6598  -25.0067   25.7124 C   0  0  0  0  0  0  0  0  0  0  0  0
  -12.7044  -24.0081   26.3570 C   0  0  0  0  0  0  0  0  0  0  0  0
  -12.0573  -24.4570   27.6313 N   0  0  0  0  0  0  0  0  0  0  0  0
  -12.0091  -23.5209   28.6532 C   0  0  0  0  0  0  0  0  0  0  0  0
  -11.4211  -21.9674   28.3251 S   0  0  0  0  0  0  0  0  0  0  0  0
  -11.4580  -21.3558   29.8320 N   0  0  0  0  0  0  0  0  0  0  0  0
  -11.8799  -22.2940   30.6558 C   0  0  0  0  0  0  0  0  0  0  0  0
  -11.9429  -22.0163   32.1236 C   0  0  0  0  0  0  0  0  0  0  0  0
  -12.2273  -23.5310   30.0298 C   0  0  0  0  0  0  0  0  0  0  0  0
  -12.6364  -24.5020   30.9626 C   0  0  0  0  0  0  0  0  0  0  0  0
  -12.8011  -24.9504   32.0196 N   0  0  0  0  0  0  0  0  0  0  0  0
  -10.7063  -25.0345   27.3037 C   0  0  1  0  0  0  0  0  0  0  0  0
  -10.0657  -25.5901   28.5634 C   0  0  0  0  0  0  0  0  0  0  0  0
  -11.0050  -26.7465   28.7653 C   0  0  2  0  0  0  0  0  0  0  0  0
  -10.7425  -27.6484   29.9452 C   0  0  0  0  0  0  0  0  0  0  0  0
   -9.3155  -27.9749   30.2343 C   0  0  0  0  0  0  0  0  0  0  0  0
  -11.7532  -28.7664   29.7659 C   0  0  0  0  0  0  0  0  0  0  0  0
  -11.0630  -26.9513   31.2329 C   0  0  0  0  0  0  0  0  0  0  0  0
  -11.0153  -27.3357   27.4484 N   0  0  0  0  0  0  0  0  0  0  0  0
  -10.9111  -26.3281   26.5153 C   0  0  0  0  0  0  0  0  0  0  0  0
  -11.0492  -26.4640   25.3126 O   0  0  0  0  0  0  0  0  0  0  0  0
  1  2  1  0
  2  3  1  0
  3  4  1  0
  4  5  1  0
  5  6  1  0
  6  7  1  0
  7  8  2  0
  8  9  1  0
  8 10  1  0
 10 11  1  0
 11 12  3  0
 13  4  1  1
 13 14  1  0
 14 15  1  0
 15 16  1  1
 16 17  1  0
 16 18  1  0
 16 19  1  0
 15 20  1  0
 20 21  1  0
 21 22  2  0
 10  5  2  0
 21 13  1  0
M  END
>  <ref_mols>  (811) 
7gop-a

>  <gnina_score>  (811) 
5.522

>  <smina_score_min>  (811) 
-2.349

>  <ref_pdb>  (811) 
7gop-a

>  <inspiration_score>  (811) 
None

>  <inchikey>  (811) 
DYTHVLAGNJGQIX-QWHCGFSZSA-N

>  <tags>  (811) 
BulkDock Fragalysis export,openbind_d68ev3c_c2_elabs_scored,openbind_d68ev3c_c2_elabs_scored_4.5plus,openbind_d68ev3c_c2_elabs,openbind_d68ev3c_c2_elabs_scored_5plus,syndirella_product,openbind_d68ev3c_c2_elabs_scored_top80percent,syndirella_placed

>  <smiles>  (811) 
CCCN(c1snc(C)c1C#N)[C@H]1C[C@H](C(C)(C)C)NC1=O

>  <subsites>  (811) 
None

>  <rmsd(smina/fragmenstein)>  (811) 
0.659

>  <alias>  (811) 
None

>  <energy_score>  (811) 
-13.912688

>  <HIPPO Pose ID>  (811) 
86360

>  <distance_score>  (811) 
1.480218

>  <HIPPO Compound ID>  (811) 
121637

>  <gnina_score_min>  (811) 
5.58

>  <name>  (811) 
P86360

>  <exports>  (811) 
['/opt/xchem-fragalysis-2/maxwin/BulkDock/OUTPUTS/openbind_d68ev3c_c2_elabs_1LOTQJ3.sdf', '/opt/xchem-fragalysis-2/maxwin/BulkDock/OUTPUTS/openbind_d68ev3c_c2_elabs_1LSYEHW.sdf', '/opt/xchem-fragalysis-2/maxwin/BulkDock/OUTPUTS/openbind_d68ev3c_c2_elabs_1LSYI5W.sdf']

$$$$
P86361
     RDKit          3D

 22 23  0  0  0  0  0  0  0  0999 V2000
   -9.6448  -27.5246   30.2313 C   0  0  0  0  0  0  0  0  0  0  0  0
   -9.9095  -26.7232   28.9680 C   0  0  0  0  0  0  0  0  0  0  0  0
  -11.3818  -26.7024   28.6121 C   0  0  0  0  0  0  0  0  0  0  0  0
  -11.7518  -25.4003   28.0713 N   0  0  0  0  0  0  0  0  0  0  0  0
  -11.6388  -25.2605   26.6014 C   0  0  0  0  0  0  0  0  0  0  0  0
  -12.9938  -24.9773   25.9275 C   0  0  0  0  0  0  0  0  0  0  0  0
  -13.1571  -24.0744   25.2013 O   0  0  0  0  0  0  0  0  0  0  0  0
  -13.9582  -26.1379   26.3317 N   0  0  0  0  0  0  0  0  0  0  0  0
  -15.2337  -26.4583   25.8667 C   0  0  0  0  0  0  0  0  0  0  0  0
  -15.8691  -25.6843   24.9002 C   0  0  0  0  0  0  0  0  0  0  0  0
  -17.1427  -26.0318   24.4406 C   0  0  0  0  0  0  0  0  0  0  0  0
  -17.7860  -27.1609   24.9408 C   0  0  0  0  0  0  0  0  0  0  0  0
  -17.1527  -27.9473   25.8989 C   0  0  0  0  0  0  0  0  0  0  0  0
  -15.8785  -27.5995   26.3557 C   0  0  0  0  0  0  0  0  0  0  0  0
  -11.8013  -24.2879   28.8992 C   0  0  0  0  0  0  0  0  0  0  0  0
  -11.8242  -22.6569   28.3095 S   0  0  0  0  0  0  0  0  0  0  0  0
  -12.0590  -21.9070   29.7573 N   0  0  0  0  0  0  0  0  0  0  0  0
  -12.0278  -22.8150   30.7238 C   0  0  0  0  0  0  0  0  0  0  0  0
  -12.2177  -22.3705   32.1366 C   0  0  0  0  0  0  0  0  0  0  0  0
  -11.7763  -24.1504   30.2886 C   0  0  0  0  0  0  0  0  0  0  0  0
  -11.4800  -25.1393   31.2600 C   0  0  0  0  0  0  0  0  0  0  0  0
  -11.1401  -25.8211   32.1309 N   0  0  0  0  0  0  0  0  0  0  0  0
  1  2  1  0
  2  3  1  0
  3  4  1  0
  4  5  1  0
  5  6  1  0
  6  7  2  0
  6  8  1  0
  8  9  1  0
  9 10  2  0
 10 11  1  0
 11 12  2  0
 12 13  1  0
 13 14  2  0
  4 15  1  0
 15 16  1  0
 16 17  1  0
 17 18  2  0
 18 19  1  0
 18 20  1  0
 20 21  1  0
 21 22  3  0
 14  9  1  0
 20 15  2  0
M  END
>  <ref_mols>  (812) 
7gop-a

>  <gnina_score>  (812) 
5.033

>  <smina_score_min>  (812) 
-4.968

>  <ref_pdb>  (812) 
7gop-a

>  <inspiration_score>  (812) 
None

>  <inchikey>  (812) 
VEMPTCUVRPJEFK-UHFFFAOYSA-N

>  <tags>  (812) 
BulkDock Fragalysis export,openbind_d68ev3c_c2_elabs_scored,openbind_d68ev3c_c2_elabs_scored_4.5plus,openbind_d68ev3c_c2_elabs,openbind_d68ev3c_c2_elabs_scored_5plus,syndirella_product,openbind_d68ev3c_c2_elabs_scored_top80percent,syndirella_placed

>  <smiles>  (812) 
CCCN(CC(=O)Nc1ccccc1)c1snc(C)c1C#N

>  <subsites>  (812) 
None

>  <rmsd(smina/fragmenstein)>  (812) 
0.561

>  <alias>  (812) 
None

>  <energy_score>  (812) 
-49.513698

>  <HIPPO Pose ID>  (812) 
86361

>  <distance_score>  (812) 
0.748691

>  <HIPPO Compound ID>  (812) 
121638

>  <gnina_score_min>  (812) 
5.003

>  <name>  (812) 
P86361

>  <exports>  (812) 
['/opt/xchem-fragalysis-2/maxwin/BulkDock/OUTPUTS/openbind_d68ev3c_c2_elabs_1LOTQJ3.sdf', '/opt/xchem-fragalysis-2/maxwin/BulkDock/OUTPUTS/openbind_d68ev3c_c2_elabs_1LSYEHW.sdf', '/opt/xchem-fragalysis-2/maxwin/BulkDock/OUTPUTS/openbind_d68ev3c_c2_elabs_1LSYI5W.sdf']

$$$$
P86362
     RDKit          3D

 22 23  0  0  0  0  0  0  0  0999 V2000
  -12.0540  -28.3719   28.3573 C   0  0  0  0  0  0  0  0  0  0  0  0
  -12.2553  -26.9538   27.9427 C   0  0  0  0  0  0  0  0  0  0  0  0
  -11.0037  -26.0999   27.7967 C   0  0  0  0  0  0  0  0  0  0  0  0
  -11.3973  -24.6759   27.9005 N   0  0  0  0  0  0  0  0  0  0  0  0
  -11.3779  -23.8862   26.6405 C   0  0  0  0  0  0  0  0  0  0  0  0
  -12.5917  -24.0188   25.7093 C   0  0  0  0  0  0  0  0  0  0  0  0
  -12.5764  -23.5892   24.6252 O   0  0  0  0  0  0  0  0  0  0  0  0
  -13.6597  -24.8571   26.4361 N   0  0  0  0  0  0  0  0  0  0  0  0
  -14.8223  -25.3927   25.9806 C   0  0  0  0  0  0  0  0  0  0  0  0
  -15.3103  -25.3588   24.6659 C   0  0  0  0  0  0  0  0  0  0  0  0
  -16.4746  -26.0814   24.7108 C   0  0  0  0  0  0  0  0  0  0  0  0
  -17.5014  -26.4228   23.7124 C   0  0  0  0  0  0  0  0  0  0  0  0
  -16.6646  -26.5404   25.9776 O   0  0  0  0  0  0  0  0  0  0  0  0
  -15.6141  -26.1202   26.7795 N   0  0  0  0  0  0  0  0  0  0  0  0
  -11.6075  -24.0458   29.1170 C   0  0  0  0  0  0  0  0  0  0  0  0
  -11.9498  -22.3519   29.2468 S   0  0  0  0  0  0  0  0  0  0  0  0
  -12.3387  -22.3187   30.8333 N   0  0  0  0  0  0  0  0  0  0  0  0
  -12.0901  -23.5128   31.3563 C   0  0  0  0  0  0  0  0  0  0  0  0
  -12.3678  -23.7067   32.8052 C   0  0  0  0  0  0  0  0  0  0  0  0
  -11.5880  -24.4948   30.4375 C   0  0  0  0  0  0  0  0  0  0  0  0
  -11.1456  -25.7756   30.8649 C   0  0  0  0  0  0  0  0  0  0  0  0
  -10.7628  -26.8162   31.1976 N   0  0  0  0  0  0  0  0  0  0  0  0
  1  2  1  0
  2  3  1  0
  3  4  1  0
  4  5  1  0
  5  6  1  0
  6  7  2  0
  6  8  1  0
  8  9  1  0
  9 10  1  0
 10 11  2  0
 11 12  1  0
 11 13  1  0
 13 14  1  0
  4 15  1  0
 15 16  1  0
 16 17  1  0
 17 18  2  0
 18 19  1  0
 18 20  1  0
 20 21  1  0
 21 22  3  0
 14  9  2  0
 20 15  2  0
M  END
>  <ref_mols>  (813) 
7gop-a

>  <gnina_score>  (813) 
5.128

>  <smina_score_min>  (813) 
-5.386

>  <ref_pdb>  (813) 
7gop-a

>  <inspiration_score>  (813) 
None

>  <inchikey>  (813) 
OKEUNOGPNSAREI-UHFFFAOYSA-N

>  <tags>  (813) 
BulkDock Fragalysis export,openbind_d68ev3c_c2_elabs_scored,openbind_d68ev3c_c2_elabs_scored_4.5plus,openbind_d68ev3c_c2_elabs,openbind_d68ev3c_c2_elabs_scored_5plus,syndirella_product,openbind_d68ev3c_c2_elabs_scored_top80percent,syndirella_placed

>  <smiles>  (813) 
CCCN(CC(=O)Nc1cc(C)on1)c1snc(C)c1C#N

>  <subsites>  (813) 
None

>  <rmsd(smina/fragmenstein)>  (813) 
0.811

>  <alias>  (813) 
None

>  <energy_score>  (813) 
-57.065499

>  <HIPPO Pose ID>  (813) 
86362

>  <distance_score>  (813) 
0.733132

>  <HIPPO Compound ID>  (813) 
121639

>  <gnina_score_min>  (813) 
5.086

>  <name>  (813) 
P86362

>  <exports>  (813) 
['/opt/xchem-fragalysis-2/maxwin/BulkDock/OUTPUTS/openbind_d68ev3c_c2_elabs_1LOTQJ3.sdf', '/opt/xchem-fragalysis-2/maxwin/BulkDock/OUTPUTS/openbind_d68ev3c_c2_elabs_1LSYEHW.sdf', '/opt/xchem-fragalysis-2/maxwin/BulkDock/OUTPUTS/openbind_d68ev3c_c2_elabs_1LSYI5W.sdf']

$$$$
P86363
     RDKit          3D

 22 23  0  0  0  0  0  0  0  0999 V2000
   -9.4458  -27.3900   30.3961 C   0  0  0  0  0  0  0  0  0  0  0  0
   -9.7689  -26.5591   29.1656 C   0  0  0  0  0  0  0  0  0  0  0  0
  -11.1474  -26.8923   28.6872 C   0  0  0  0  0  0  0  0  0  0  0  0
  -11.8067  -25.7822   28.0261 N   0  0  0  0  0  0  0  0  0  0  0  0
  -11.9727  -24.5998   28.7516 C   0  0  0  0  0  0  0  0  0  0  0  0
  -11.8779  -23.0084   28.0487 S   0  0  0  0  0  0  0  0  0  0  0  0
  -12.1205  -22.1345   29.4323 N   0  0  0  0  0  0  0  0  0  0  0  0
  -12.1131  -22.9633   30.4671 C   0  0  0  0  0  0  0  0  0  0  0  0
  -12.1994  -22.3989   31.8504 C   0  0  0  0  0  0  0  0  0  0  0  0
  -11.9443  -24.3398   30.1307 C   0  0  0  0  0  0  0  0  0  0  0  0
  -11.6408  -25.2405   31.1839 C   0  0  0  0  0  0  0  0  0  0  0  0
  -11.2329  -25.8214   32.0981 N   0  0  0  0  0  0  0  0  0  0  0  0
  -12.5832  -26.2102   26.7992 C   0  0  2  0  0  0  0  0  0  0  0  0
  -12.9907  -25.0702   25.8744 C   0  0  0  0  0  0  0  0  0  0  0  0
  -13.8689  -27.0939   27.1090 C   0  0  0  0  0  0  0  0  0  0  0  0
  -14.9422  -26.6320   26.9549 O   0  0  0  0  0  0  0  0  0  0  0  0
  -13.4326  -28.4969   27.7010 N   0  0  0  0  0  0  0  0  0  0  0  0
  -14.1947  -29.5738   28.1034 C   0  0  0  0  0  0  0  0  0  0  0  0
  -15.5005  -29.6474   28.1257 N   0  0  0  0  0  0  0  0  0  0  0  0
  -15.7463  -30.8937   28.6208 C   0  0  0  0  0  0  0  0  0  0  0  0
  -14.6572  -31.6153   28.8925 N   0  0  0  0  0  0  0  0  0  0  0  0
  -13.6804  -30.7676   28.5365 N   0  0  0  0  0  0  0  0  0  0  0  0
  1  2  1  0
  2  3  1  0
  3  4  1  0
  4  5  1  0
  5  6  1  0
  6  7  1  0
  7  8  2  0
  8  9  1  0
  8 10  1  0
 10 11  1  0
 11 12  3  0
  4 13  1  0
 13 14  1  1
 13 15  1  0
 15 16  2  0
 15 17  1  0
 17 18  1  0
 18 19  2  0
 19 20  1  0
 20 21  2  0
 21 22  1  0
 10  5  2  0
 22 18  1  0
M  END
>  <ref_mols>  (814) 
7gop-a

>  <gnina_score>  (814) 
5.085

>  <smina_score_min>  (814) 
-3.523

>  <ref_pdb>  (814) 
7gop-a

>  <inspiration_score>  (814) 
None

>  <inchikey>  (814) 
RZHDXKSSNQQUOK-SECBINFHSA-N

>  <tags>  (814) 
BulkDock Fragalysis export,openbind_d68ev3c_c2_elabs_scored,openbind_d68ev3c_c2_elabs_scored_4.5plus,openbind_d68ev3c_c2_elabs,openbind_d68ev3c_c2_elabs_scored_5plus,syndirella_product,openbind_d68ev3c_c2_elabs_scored_top80percent,syndirella_placed

>  <smiles>  (814) 
CCCN(c1snc(C)c1C#N)[C@H](C)C(=O)Nc1ncn[nH]1

>  <subsites>  (814) 
None

>  <rmsd(smina/fragmenstein)>  (814) 
0.887

>  <alias>  (814) 
None

>  <energy_score>  (814) 
-59.944203

>  <HIPPO Pose ID>  (814) 
86363

>  <distance_score>  (814) 
1.641065

>  <HIPPO Compound ID>  (814) 
121641

>  <gnina_score_min>  (814) 
5.214

>  <name>  (814) 
P86363

>  <exports>  (814) 
['/opt/xchem-fragalysis-2/maxwin/BulkDock/OUTPUTS/openbind_d68ev3c_c2_elabs_1LOTQJ3.sdf', '/opt/xchem-fragalysis-2/maxwin/BulkDock/OUTPUTS/openbind_d68ev3c_c2_elabs_1LSYEHW.sdf', '/opt/xchem-fragalysis-2/maxwin/BulkDock/OUTPUTS/openbind_d68ev3c_c2_elabs_1LSYI5W.sdf']

$$$$
P86369
     RDKit          3D

 22 23  0  0  0  0  0  0  0  0999 V2000
   -9.8169  -26.9861   28.7805 C   0  0  0  0  0  0  0  0  0  0  0  0
  -11.1529  -27.1054   28.0896 C   0  0  0  0  0  0  0  0  0  0  0  0
  -11.2649  -25.9293   27.1574 C   0  0  0  0  0  0  0  0  0  0  0  0
  -12.3571  -25.0309   27.5536 N   0  0  0  0  0  0  0  0  0  0  0  0
  -12.1070  -24.1507   28.6092 C   0  0  0  0  0  0  0  0  0  0  0  0
  -11.8205  -22.4556   28.3974 S   0  0  0  0  0  0  0  0  0  0  0  0
  -11.9842  -22.0037   29.9696 N   0  0  0  0  0  0  0  0  0  0  0  0
  -11.9977  -23.1004   30.7160 C   0  0  0  0  0  0  0  0  0  0  0  0
  -12.0337  -22.9625   32.2012 C   0  0  0  0  0  0  0  0  0  0  0  0
  -11.9332  -24.3349   29.9874 C   0  0  0  0  0  0  0  0  0  0  0  0
  -11.6976  -25.5440   30.6976 C   0  0  0  0  0  0  0  0  0  0  0  0
  -11.3547  -26.4658   31.3104 N   0  0  0  0  0  0  0  0  0  0  0  0
  -13.1570  -24.5755   26.3523 C   0  0  1  0  0  0  0  0  0  0  0  0
  -12.3241  -23.8195   25.3224 C   0  0  0  0  0  0  0  0  0  0  0  0
  -13.9463  -25.7792   25.6966 C   0  0  0  0  0  0  0  0  0  0  0  0
  -13.5643  -26.3258   24.7366 O   0  0  0  0  0  0  0  0  0  0  0  0
  -15.2497  -25.9855   26.5229 N   0  0  0  0  0  0  0  0  0  0  0  0
  -16.3894  -26.8406   26.2793 C   0  0  0  0  0  0  0  0  0  0  0  0
  -16.1481  -28.3161   26.6258 C   0  0  0  0  0  0  0  0  0  0  0  0
  -17.3225  -28.7472   27.5021 C   0  0  0  0  0  0  0  0  0  0  0  0
  -18.4128  -27.7323   27.2080 C   0  0  0  0  0  0  0  0  0  0  0  0
  -17.6364  -26.4351   27.0597 C   0  0  0  0  0  0  0  0  0  0  0  0
  1  2  1  0
  2  3  1  0
  3  4  1  0
  4  5  1  0
  5  6  1  0
  6  7  1  0
  7  8  2  0
  8  9  1  0
  8 10  1  0
 10 11  1  0
 11 12  3  0
  4 13  1  0
 13 14  1  6
 13 15  1  0
 15 16  2  0
 15 17  1  0
 17 18  1  0
 18 19  1  0
 19 20  1  0
 20 21  1  0
 21 22  1  0
 10  5  2  0
 22 18  1  0
M  END
>  <ref_mols>  (815) 
7gop-a

>  <gnina_score>  (815) 
5.277

>  <smina_score_min>  (815) 
-4.789

>  <ref_pdb>  (815) 
7gop-a

>  <inspiration_score>  (815) 
None

>  <inchikey>  (815) 
WTNNRPLCPMIMIS-LBPRGKRZSA-N

>  <tags>  (815) 
BulkDock Fragalysis export,openbind_d68ev3c_c2_elabs_scored,openbind_d68ev3c_c2_elabs_scored_4.5plus,openbind_d68ev3c_c2_elabs,openbind_d68ev3c_c2_elabs_scored_5plus,syndirella_product,openbind_d68ev3c_c2_elabs_scored_top80percent,syndirella_placed

>  <smiles>  (815) 
CCCN(c1snc(C)c1C#N)[C@@H](C)C(=O)NC1CCCC1

>  <subsites>  (815) 
None

>  <rmsd(smina/fragmenstein)>  (815) 
0.324

>  <alias>  (815) 
None

>  <energy_score>  (815) 
-29.264611

>  <HIPPO Pose ID>  (815) 
86369

>  <distance_score>  (815) 
1.157552

>  <HIPPO Compound ID>  (815) 
121644

>  <gnina_score_min>  (815) 
5.271

>  <name>  (815) 
P86369

>  <exports>  (815) 
['/opt/xchem-fragalysis-2/maxwin/BulkDock/OUTPUTS/openbind_d68ev3c_c2_elabs_1LOTQJ3.sdf', '/opt/xchem-fragalysis-2/maxwin/BulkDock/OUTPUTS/openbind_d68ev3c_c2_elabs_1LSYEHW.sdf', '/opt/xchem-fragalysis-2/maxwin/BulkDock/OUTPUTS/openbind_d68ev3c_c2_elabs_1LSYI5W.sdf']

$$$$
P86370
     RDKit          3D

 22 22  0  0  0  0  0  0  0  0999 V2000
  -12.1576  -28.4528   28.4699 C   0  0  0  0  0  0  0  0  0  0  0  0
  -12.2804  -26.9725   28.3141 C   0  0  0  0  0  0  0  0  0  0  0  0
  -10.9616  -26.2539   28.0765 C   0  0  0  0  0  0  0  0  0  0  0  0
  -11.2646  -24.8092   27.9784 N   0  0  0  0  0  0  0  0  0  0  0  0
  -11.5237  -24.0712   29.1345 C   0  0  0  0  0  0  0  0  0  0  0  0
  -11.8470  -22.3717   29.2035 S   0  0  0  0  0  0  0  0  0  0  0  0
  -12.3138  -22.2661   30.7624 N   0  0  0  0  0  0  0  0  0  0  0  0
  -12.0775  -23.4307   31.3475 C   0  0  0  0  0  0  0  0  0  0  0  0
  -12.4106  -23.5651   32.7915 C   0  0  0  0  0  0  0  0  0  0  0  0
  -11.5278  -24.4398   30.4899 C   0  0  0  0  0  0  0  0  0  0  0  0
  -11.0812  -25.6843   31.0119 C   0  0  0  0  0  0  0  0  0  0  0  0
  -10.7139  -26.7071   31.4098 N   0  0  0  0  0  0  0  0  0  0  0  0
  -11.4013  -24.3524   26.5579 C   0  0  2  0  0  0  0  0  0  0  0  0
  -12.0333  -23.0112   26.2855 C   0  0  0  0  0  0  0  0  0  0  0  0
  -12.1289  -25.4102   25.6481 C   0  0  0  0  0  0  0  0  0  0  0  0
  -11.5064  -26.1876   25.0333 O   0  0  0  0  0  0  0  0  0  0  0  0
  -13.6674  -25.1762   25.7149 N   0  0  0  0  0  0  0  0  0  0  0  0
  -14.7372  -25.7844   24.9713 C   0  0  0  0  0  0  0  0  0  0  0  0
  -15.7125  -26.4846   25.9017 C   0  0  0  0  0  0  0  0  0  0  0  0
  -15.7699  -26.3286   27.1181 O   0  0  0  0  0  0  0  0  0  0  0  0
  -16.5473  -27.2932   25.1849 O   0  0  0  0  0  0  0  0  0  0  0  0
  -17.5124  -27.9817   25.9809 C   0  0  0  0  0  0  0  0  0  0  0  0
  1  2  1  0
  2  3  1  0
  3  4  1  0
  4  5  1  0
  5  6  1  0
  6  7  1  0
  7  8  2  0
  8  9  1  0
  8 10  1  0
 10 11  1  0
 11 12  3  0
  4 13  1  0
 13 14  1  1
 13 15  1  0
 15 16  2  0
 15 17  1  0
 17 18  1  0
 18 19  1  0
 19 20  2  0
 19 21  1  0
 21 22  1  0
 10  5  2  0
M  END
>  <ref_mols>  (816) 
7gop-a

>  <gnina_score>  (816) 
5.359

>  <smina_score_min>  (816) 
-4.605

>  <ref_pdb>  (816) 
7gop-a

>  <inspiration_score>  (816) 
None

>  <inchikey>  (816) 
SRKPORVNHHAHMO-SNVBAGLBSA-N

>  <tags>  (816) 
BulkDock Fragalysis export,openbind_d68ev3c_c2_elabs_scored,openbind_d68ev3c_c2_elabs_scored_4.5plus,openbind_d68ev3c_c2_elabs,openbind_d68ev3c_c2_elabs_scored_5plus,syndirella_product,openbind_d68ev3c_c2_elabs_scored_top80percent,syndirella_placed

>  <smiles>  (816) 
CCCN(c1snc(C)c1C#N)[C@H](C)C(=O)NCC(=O)OC

>  <subsites>  (816) 
None

>  <rmsd(smina/fragmenstein)>  (816) 
0.478

>  <alias>  (816) 
None

>  <energy_score>  (816) 
-28.936834

>  <HIPPO Pose ID>  (816) 
86370

>  <distance_score>  (816) 
1.032882

>  <HIPPO Compound ID>  (816) 
121646

>  <gnina_score_min>  (816) 
5.301

>  <name>  (816) 
P86370

>  <exports>  (816) 
['/opt/xchem-fragalysis-2/maxwin/BulkDock/OUTPUTS/openbind_d68ev3c_c2_elabs_1LOTQJ3.sdf', '/opt/xchem-fragalysis-2/maxwin/BulkDock/OUTPUTS/openbind_d68ev3c_c2_elabs_1LSYEHW.sdf', '/opt/xchem-fragalysis-2/maxwin/BulkDock/OUTPUTS/openbind_d68ev3c_c2_elabs_1LSYI5W.sdf']

$$$$
P86391
     RDKit          3D

 22 23  0  0  0  0  0  0  0  0999 V2000
  -16.0920  -26.0630   25.8420 C   0  0  0  0  0  0  0  0  0  0  0  0
  -14.9683  -25.3819   25.0904 C   0  0  0  0  0  0  0  0  0  0  0  0
  -13.7374  -25.4012   25.8319 N   0  0  0  0  0  0  0  0  0  0  0  0
  -12.4797  -24.4924   25.7245 C   0  0  0  0  0  0  0  0  0  0  0  0
  -12.2852  -23.5434   25.0708 O   0  0  0  0  0  0  0  0  0  0  0  0
  -11.3603  -25.1102   26.5957 C   0  0  2  0  0  0  0  0  0  0  0  0
  -11.0703  -26.4605   25.9139 C   0  0  0  0  0  0  0  0  0  0  0  0
  -11.7193  -25.2248   28.0347 N   0  0  0  0  0  0  0  0  0  0  0  0
  -11.2155  -26.3962   28.6293 C   0  0  0  0  0  0  0  0  0  0  0  0
  -10.0036  -26.3785   29.3114 C   0  0  0  0  0  0  0  0  0  0  0  0
   -9.7610  -27.3451   30.2683 C   0  0  0  0  0  0  0  0  0  0  0  0
  -10.6835  -28.3508   30.4898 C   0  0  0  0  0  0  0  0  0  0  0  0
  -11.7721  -28.4869   29.6396 C   0  0  0  0  0  0  0  0  0  0  0  0
  -12.0299  -27.5181   28.6940 C   0  0  0  0  0  0  0  0  0  0  0  0
  -11.7929  -24.1082   28.8647 C   0  0  0  0  0  0  0  0  0  0  0  0
  -11.7608  -22.4831   28.3046 S   0  0  0  0  0  0  0  0  0  0  0  0
  -11.9917  -21.7457   29.7577 N   0  0  0  0  0  0  0  0  0  0  0  0
  -12.0311  -22.6647   30.7132 C   0  0  0  0  0  0  0  0  0  0  0  0
  -12.2201  -22.2382   32.1327 C   0  0  0  0  0  0  0  0  0  0  0  0
  -11.8440  -24.0027   30.2650 C   0  0  0  0  0  0  0  0  0  0  0  0
  -11.6262  -25.0064   31.2553 C   0  0  0  0  0  0  0  0  0  0  0  0
  -11.3005  -25.6375   32.1712 N   0  0  0  0  0  0  0  0  0  0  0  0
  1  2  1  0
  2  3  1  0
  3  4  1  0
  4  5  2  0
  4  6  1  0
  6  7  1  6
  6  8  1  0
  8  9  1  0
  9 10  2  0
 10 11  1  0
 11 12  2  0
 12 13  1  0
 13 14  2  0
  8 15  1  0
 15 16  1  0
 16 17  1  0
 17 18  2  0
 18 19  1  0
 18 20  1  0
 20 21  1  0
 21 22  3  0
 14  9  1  0
 20 15  2  0
M  END
>  <ref_mols>  (817) 
7gop-a

>  <gnina_score>  (817) 
5.149

>  <smina_score_min>  (817) 
-4.538

>  <ref_pdb>  (817) 
7gop-a

>  <inspiration_score>  (817) 
None

>  <inchikey>  (817) 
BGBOYDBCBWIFOY-LBPRGKRZSA-N

>  <tags>  (817) 
BulkDock Fragalysis export,openbind_d68ev3c_c2_elabs_scored,openbind_d68ev3c_c2_elabs_scored_4.5plus,openbind_d68ev3c_c2_elabs,openbind_d68ev3c_c2_elabs_scored_5plus,syndirella_product,openbind_d68ev3c_c2_elabs_scored_top80percent,syndirella_placed

>  <smiles>  (817) 
CCNC(=O)[C@H](C)N(c1ccccc1)c1snc(C)c1C#N

>  <subsites>  (817) 
None

>  <rmsd(smina/fragmenstein)>  (817) 
0.388

>  <alias>  (817) 
None

>  <energy_score>  (817) 
-3.65146

>  <HIPPO Pose ID>  (817) 
86391

>  <distance_score>  (817) 
0.957207

>  <HIPPO Compound ID>  (817) 
121674

>  <gnina_score_min>  (817) 
5.054

>  <name>  (817) 
P86391

>  <exports>  (817) 
['/opt/xchem-fragalysis-2/maxwin/BulkDock/OUTPUTS/openbind_d68ev3c_c2_elabs_1LOTQJ3.sdf', '/opt/xchem-fragalysis-2/maxwin/BulkDock/OUTPUTS/openbind_d68ev3c_c2_elabs_1LSYEHW.sdf', '/opt/xchem-fragalysis-2/maxwin/BulkDock/OUTPUTS/openbind_d68ev3c_c2_elabs_1LSYI5W.sdf']

$$$$
P86395
     RDKit          3D

 23 24  0  0  0  0  0  0  0  0999 V2000
  -12.2702  -28.4949   28.3809 C   0  0  0  0  0  0  0  0  0  0  0  0
  -11.4610  -27.5584   29.2465 C   0  0  0  0  0  0  0  0  0  0  0  0
  -10.6101  -26.5634   28.4572 C   0  0  0  0  0  0  0  0  0  0  0  0
  -11.4030  -25.4037   28.0194 N   0  0  0  0  0  0  0  0  0  0  0  0
  -11.3147  -25.1166   26.5611 C   0  0  0  0  0  0  0  0  0  0  0  0
  -12.6505  -24.8029   25.8573 C   0  0  0  0  0  0  0  0  0  0  0  0
  -12.8021  -23.8546   25.1901 O   0  0  0  0  0  0  0  0  0  0  0  0
  -13.6056  -26.0011   26.1403 N   0  0  0  0  0  0  0  0  0  0  0  0
  -14.9279  -26.2182   25.7484 C   0  0  0  0  0  0  0  0  0  0  0  0
  -15.6040  -27.3475   26.2238 C   0  0  0  0  0  0  0  0  0  0  0  0
  -16.9224  -27.6176   25.8434 C   0  0  0  0  0  0  0  0  0  0  0  0
  -17.5834  -26.7671   24.9588 C   0  0  0  0  0  0  0  0  0  0  0  0
  -19.0094  -27.0165   24.5703 C   0  0  0  0  0  0  0  0  0  0  0  0
  -16.9081  -25.6387   24.4871 C   0  0  0  0  0  0  0  0  0  0  0  0
  -15.5855  -25.3729   24.8685 C   0  0  0  0  0  0  0  0  0  0  0  0
  -11.5781  -24.3503   28.9158 C   0  0  0  0  0  0  0  0  0  0  0  0
  -11.8723  -22.7121   28.4230 S   0  0  0  0  0  0  0  0  0  0  0  0
  -12.2069  -22.0955   29.9113 N   0  0  0  0  0  0  0  0  0  0  0  0
  -11.9968  -23.0339   30.8251 C   0  0  0  0  0  0  0  0  0  0  0  0
  -12.2540  -22.6992   32.2559 C   0  0  0  0  0  0  0  0  0  0  0  0
  -11.5142  -24.2792   30.3128 C   0  0  0  0  0  0  0  0  0  0  0  0
  -11.0183  -25.2766   31.1978 C   0  0  0  0  0  0  0  0  0  0  0  0
  -10.5736  -26.0523   31.9331 N   0  0  0  0  0  0  0  0  0  0  0  0
  1  2  1  0
  2  3  1  0
  3  4  1  0
  4  5  1  0
  5  6  1  0
  6  7  2  0
  6  8  1  0
  8  9  1  0
  9 10  2  0
 10 11  1  0
 11 12  2  0
 12 13  1  0
 12 14  1  0
 14 15  2  0
  4 16  1  0
 16 17  1  0
 17 18  1  0
 18 19  2  0
 19 20  1  0
 19 21  1  0
 21 22  1  0
 22 23  3  0
 15  9  1  0
 21 16  2  0
M  END
>  <ref_mols>  (818) 
7gop-a

>  <gnina_score>  (818) 
5.101

>  <smina_score_min>  (818) 
-5.301

>  <ref_pdb>  (818) 
7gop-a

>  <inspiration_score>  (818) 
None

>  <inchikey>  (818) 
XDFDHRKXFLJEKV-UHFFFAOYSA-N

>  <tags>  (818) 
BulkDock Fragalysis export,openbind_d68ev3c_c2_elabs_scored,openbind_d68ev3c_c2_elabs_scored_4.5plus,openbind_d68ev3c_c2_elabs,openbind_d68ev3c_c2_elabs_scored_5plus,syndirella_product,openbind_d68ev3c_c2_elabs_scored_top80percent,syndirella_placed

>  <smiles>  (818) 
CCCN(CC(=O)Nc1ccc(C)cc1)c1snc(C)c1C#N

>  <subsites>  (818) 
None

>  <rmsd(smina/fragmenstein)>  (818) 
0.652

>  <alias>  (818) 
None

>  <energy_score>  (818) 
-44.402487

>  <HIPPO Pose ID>  (818) 
86395

>  <distance_score>  (818) 
0.576558

>  <HIPPO Compound ID>  (818) 
121684

>  <gnina_score_min>  (818) 
5.212

>  <name>  (818) 
P86395

>  <exports>  (818) 
['/opt/xchem-fragalysis-2/maxwin/BulkDock/OUTPUTS/openbind_d68ev3c_c2_elabs_1LOTQJ3.sdf', '/opt/xchem-fragalysis-2/maxwin/BulkDock/OUTPUTS/openbind_d68ev3c_c2_elabs_1LSYEHW.sdf', '/opt/xchem-fragalysis-2/maxwin/BulkDock/OUTPUTS/openbind_d68ev3c_c2_elabs_1LSYI5W.sdf']

$$$$
P86396
     RDKit          3D

 23 24  0  0  0  0  0  0  0  0999 V2000
  -11.5066  -27.8132   28.8997 C   0  0  0  0  0  0  0  0  0  0  0  0
  -10.3451  -26.8872   28.5888 C   0  0  0  0  0  0  0  0  0  0  0  0
  -10.6752  -25.9786   27.4411 C   0  0  0  0  0  0  0  0  0  0  0  0
  -11.9688  -25.2460   27.5602 N   0  0  0  0  0  0  0  0  0  0  0  0
  -11.9568  -24.2375   28.5451 C   0  0  0  0  0  0  0  0  0  0  0  0
  -11.7339  -22.5456   28.2306 S   0  0  0  0  0  0  0  0  0  0  0  0
  -12.0203  -21.9771   29.7451 N   0  0  0  0  0  0  0  0  0  0  0  0
  -12.0506  -23.0064   30.5777 C   0  0  0  0  0  0  0  0  0  0  0  0
  -12.1590  -22.7528   32.0478 C   0  0  0  0  0  0  0  0  0  0  0  0
  -11.9080  -24.2902   29.9536 C   0  0  0  0  0  0  0  0  0  0  0  0
  -11.6578  -25.4019   30.8071 C   0  0  0  0  0  0  0  0  0  0  0  0
  -11.2849  -26.2068   31.5531 N   0  0  0  0  0  0  0  0  0  0  0  0
  -12.5254  -25.0864   26.1276 C   0  0  2  0  0  0  0  0  0  0  0  0
  -12.9731  -23.7242   25.6632 C   0  0  0  0  0  0  0  0  0  0  0  0
  -13.7070  -26.0339   25.7190 C   0  0  0  0  0  0  0  0  0  0  0  0
  -13.7444  -26.5023   24.6503 O   0  0  0  0  0  0  0  0  0  0  0  0
  -14.7316  -26.0965   26.8778 N   0  0  0  0  0  0  0  0  0  0  0  0
  -16.0197  -26.6527   26.9264 N   0  0  0  0  0  0  0  0  0  0  0  0
  -16.9427  -26.0460   25.9601 C   0  0  0  0  0  0  0  0  0  0  0  0
  -17.3814  -26.9120   24.7848 C   0  0  0  0  0  0  0  0  0  0  0  0
  -17.9083  -28.2436   25.2785 C   0  0  0  0  0  0  0  0  0  0  0  0
  -16.7902  -28.9565   26.0089 C   0  0  0  0  0  0  0  0  0  0  0  0
  -16.1505  -28.1065   27.1067 C   0  0  0  0  0  0  0  0  0  0  0  0
  1  2  1  0
  2  3  1  0
  3  4  1  0
  4  5  1  0
  5  6  1  0
  6  7  1  0
  7  8  2  0
  8  9  1  0
  8 10  1  0
 10 11  1  0
 11 12  3  0
  4 13  1  0
 13 14  1  1
 13 15  1  0
 15 16  2  0
 15 17  1  0
 17 18  1  0
 18 19  1  0
 19 20  1  0
 20 21  1  0
 21 22  1  0
 22 23  1  0
 10  5  2  0
 23 18  1  0
M  END
>  <ref_mols>  (819) 
7gop-a

>  <gnina_score>  (819) 
5.171

>  <smina_score_min>  (819) 
-4.431

>  <ref_pdb>  (819) 
7gop-a

>  <inspiration_score>  (819) 
None

>  <inchikey>  (819) 
OZRMIEAYQOMBDJ-CYBMUJFWSA-N

>  <tags>  (819) 
BulkDock Fragalysis export,openbind_d68ev3c_c2_elabs_scored,openbind_d68ev3c_c2_elabs_scored_4.5plus,openbind_d68ev3c_c2_elabs,openbind_d68ev3c_c2_elabs_scored_5plus,syndirella_product,openbind_d68ev3c_c2_elabs_scored_top80percent,syndirella_placed

>  <smiles>  (819) 
CCCN(c1snc(C)c1C#N)[C@H](C)C(=O)NN1CCCCC1

>  <subsites>  (819) 
None

>  <rmsd(smina/fragmenstein)>  (819) 
0.753

>  <alias>  (819) 
None

>  <energy_score>  (819) 
-34.832899

>  <HIPPO Pose ID>  (819) 
86396

>  <distance_score>  (819) 
1.089205

>  <HIPPO Compound ID>  (819) 
121685

>  <gnina_score_min>  (819) 
5.491

>  <name>  (819) 
P86396

>  <exports>  (819) 
['/opt/xchem-fragalysis-2/maxwin/BulkDock/OUTPUTS/openbind_d68ev3c_c2_elabs_1LOTQJ3.sdf', '/opt/xchem-fragalysis-2/maxwin/BulkDock/OUTPUTS/openbind_d68ev3c_c2_elabs_1LSYEHW.sdf', '/opt/xchem-fragalysis-2/maxwin/BulkDock/OUTPUTS/openbind_d68ev3c_c2_elabs_1LSYI5W.sdf']

$$$$
P86399
     RDKit          3D

 23 24  0  0  0  0  0  0  0  0999 V2000
  -14.0340  -24.8256   25.6159 C   0  0  0  0  0  0  0  0  0  0  0  0
  -12.9706  -23.7838   25.8634 C   0  0  0  0  0  0  0  0  0  0  0  0
  -11.5696  -24.1463   26.3117 C   0  0  0  0  0  0  0  0  0  0  0  0
  -11.3873  -24.5402   27.7193 N   0  0  0  0  0  0  0  0  0  0  0  0
  -11.5806  -23.7019   28.7989 C   0  0  0  0  0  0  0  0  0  0  0  0
  -11.6241  -22.0121   28.5704 S   0  0  0  0  0  0  0  0  0  0  0  0
  -11.9319  -21.5626   30.0975 N   0  0  0  0  0  0  0  0  0  0  0  0
  -11.9812  -22.6319   30.8673 C   0  0  0  0  0  0  0  0  0  0  0  0
  -12.2872  -22.4685   32.3204 C   0  0  0  0  0  0  0  0  0  0  0  0
  -11.7057  -23.8569   30.1876 C   0  0  0  0  0  0  0  0  0  0  0  0
  -11.5783  -24.9903   31.0216 C   0  0  0  0  0  0  0  0  0  0  0  0
  -11.4916  -25.7734   31.8676 N   0  0  0  0  0  0  0  0  0  0  0  0
  -11.0428  -25.9318   27.8505 C   0  0  1  0  0  0  0  0  0  0  0  0
  -10.0888  -26.2992   28.9170 C   0  0  0  0  0  0  0  0  0  0  0  0
   -9.1792  -25.5842   29.2989 O   0  0  0  0  0  0  0  0  0  0  0  0
  -10.4972  -27.5518   29.3820 N   0  0  0  0  0  0  0  0  0  0  0  0
   -9.8768  -27.9960   30.6027 C   0  0  0  0  0  0  0  0  0  0  0  0
  -11.9195  -27.7158   29.1687 C   0  0  2  0  0  0  0  0  0  0  0  0
  -12.4527  -29.1171   28.8598 C   0  0  0  0  0  0  0  0  0  0  0  0
  -12.3104  -26.6507   28.1837 C   0  0  2  0  0  0  0  0  0  0  0  0
  -12.9533  -27.1481   26.9629 C   0  0  0  0  0  0  0  0  0  0  0  0
  -14.0814  -27.6265   26.9294 O   0  0  0  0  0  0  0  0  0  0  0  0
  -12.1479  -27.0879   25.8860 O   0  0  0  0  0  0  0  0  0  0  0  0
  1  2  1  0
  2  3  1  0
  3  4  1  0
  4  5  1  0
  5  6  1  0
  6  7  1  0
  7  8  2  0
  8  9  1  0
  8 10  1  0
 10 11  1  0
 11 12  3  0
 13  4  1  1
 13 14  1  0
 14 15  2  0
 14 16  1  0
 16 17  1  0
 16 18  1  0
 18 19  1  6
 18 20  1  0
 20 21  1  6
 21 22  2  0
 21 23  1  0
 10  5  2  0
 20 13  1  0
M  END
>  <ref_mols>  (820) 
7gop-a

>  <gnina_score>  (820) 
5.236

>  <smina_score_min>  (820) 
-0.455

>  <ref_pdb>  (820) 
7gop-a

>  <inspiration_score>  (820) 
None

>  <inchikey>  (820) 
PBICONVTLHJQEZ-ADEWGFFLSA-N

>  <tags>  (820) 
BulkDock Fragalysis export,openbind_d68ev3c_c2_elabs_scored,openbind_d68ev3c_c2_elabs_scored_4.5plus,openbind_d68ev3c_c2_elabs,openbind_d68ev3c_c2_elabs_scored_5plus,syndirella_product,openbind_d68ev3c_c2_elabs_scored_top80percent,syndirella_placed

>  <smiles>  (820) 
CCCN(c1snc(C)c1C#N)[C@H]1C(=O)N(C)[C@H](C)[C@@H]1C(=O)O

>  <subsites>  (820) 
None

>  <rmsd(smina/fragmenstein)>  (820) 
0.482

>  <alias>  (820) 
None

>  <energy_score>  (820) 
-25.944413

>  <HIPPO Pose ID>  (820) 
86399

>  <distance_score>  (820) 
1.034903

>  <HIPPO Compound ID>  (820) 
121686

>  <gnina_score_min>  (820) 
5.156

>  <name>  (820) 
P86399

>  <exports>  (820) 
['/opt/xchem-fragalysis-2/maxwin/BulkDock/OUTPUTS/openbind_d68ev3c_c2_elabs_1LOTQJ3.sdf', '/opt/xchem-fragalysis-2/maxwin/BulkDock/OUTPUTS/openbind_d68ev3c_c2_elabs_1LSYEHW.sdf', '/opt/xchem-fragalysis-2/maxwin/BulkDock/OUTPUTS/openbind_d68ev3c_c2_elabs_1LSYI5W.sdf']

$$$$
P86405
     RDKit          3D

 23 24  0  0  0  0  0  0  0  0999 V2000
  -10.8302  -28.2001   30.4788 C   0  0  0  0  0  0  0  0  0  0  0  0
  -11.4666  -27.4966   29.2935 C   0  0  0  0  0  0  0  0  0  0  0  0
  -10.5289  -26.5399   28.5633 C   0  0  0  0  0  0  0  0  0  0  0  0
  -11.2193  -25.3317   28.1030 N   0  0  0  0  0  0  0  0  0  0  0  0
  -11.8077  -25.3746   26.7363 C   0  0  0  0  0  0  0  0  0  0  0  0
  -13.2128  -26.0644   26.6351 C   0  0  0  0  0  0  0  0  0  0  0  0
  -13.4893  -27.0154   27.2560 O   0  0  0  0  0  0  0  0  0  0  0  0
  -14.0163  -25.3098   25.5339 N   0  0  0  0  0  0  0  0  0  0  0  0
  -15.2827  -25.6304   24.9076 C   0  0  0  0  0  0  0  0  0  0  0  0
  -16.4132  -26.1400   25.8201 C   0  0  0  0  0  0  0  0  0  0  0  0
  -16.4003  -27.6620   26.0173 C   0  0  0  0  0  0  0  0  0  0  0  0
  -17.4667  -28.1258   27.0155 C   0  0  0  0  0  0  0  0  0  0  0  0
  -18.6466  -27.1639   27.1359 C   0  0  0  0  0  0  0  0  0  0  0  0
  -18.9730  -26.5190   25.7980 C   0  0  0  0  0  0  0  0  0  0  0  0
  -17.7820  -25.7594   25.2047 C   0  0  0  0  0  0  0  0  0  0  0  0
  -11.5033  -24.3076   28.9799 C   0  0  0  0  0  0  0  0  0  0  0  0
  -11.9042  -22.7148   28.4383 S   0  0  0  0  0  0  0  0  0  0  0  0
  -12.3216  -22.0940   29.9016 N   0  0  0  0  0  0  0  0  0  0  0  0
  -12.0448  -22.9870   30.8435 C   0  0  0  0  0  0  0  0  0  0  0  0
  -12.3415  -22.6279   32.2610 C   0  0  0  0  0  0  0  0  0  0  0  0
  -11.4289  -24.1885   30.3697 C   0  0  0  0  0  0  0  0  0  0  0  0
  -10.7827  -25.0566   31.2913 C   0  0  0  0  0  0  0  0  0  0  0  0
  -10.1956  -25.6068   32.1247 N   0  0  0  0  0  0  0  0  0  0  0  0
  1  2  1  0
  2  3  1  0
  3  4  1  0
  4  5  1  0
  5  6  1  0
  6  7  2  0
  6  8  1  0
  8  9  1  0
  9 10  1  0
 10 11  1  0
 11 12  1  0
 12 13  1  0
 13 14  1  0
 14 15  1  0
  4 16  1  0
 16 17  1  0
 17 18  1  0
 18 19  2  0
 19 20  1  0
 19 21  1  0
 21 22  1  0
 22 23  3  0
 15 10  1  0
 21 16  2  0
M  END
>  <ref_mols>  (821) 
7gop-a

>  <gnina_score>  (821) 
5.242

>  <smina_score_min>  (821) 
-4.907

>  <ref_pdb>  (821) 
7gop-a

>  <inspiration_score>  (821) 
None

>  <inchikey>  (821) 
KXIJIGFSTHHXFD-UHFFFAOYSA-N

>  <tags>  (821) 
BulkDock Fragalysis export,openbind_d68ev3c_c2_elabs_scored,openbind_d68ev3c_c2_elabs_scored_4.5plus,openbind_d68ev3c_c2_elabs,openbind_d68ev3c_c2_elabs_scored_5plus,syndirella_product,openbind_d68ev3c_c2_elabs_scored_top80percent,syndirella_placed

>  <smiles>  (821) 
CCCN(CC(=O)NCC1CCCCC1)c1snc(C)c1C#N

>  <subsites>  (821) 
None

>  <rmsd(smina/fragmenstein)>  (821) 
0.604

>  <alias>  (821) 
None

>  <energy_score>  (821) 
-28.31706

>  <HIPPO Pose ID>  (821) 
86405

>  <distance_score>  (821) 
1.199127

>  <HIPPO Compound ID>  (821) 
121695

>  <gnina_score_min>  (821) 
5.213

>  <name>  (821) 
P86405

>  <exports>  (821) 
['/opt/xchem-fragalysis-2/maxwin/BulkDock/OUTPUTS/openbind_d68ev3c_c2_elabs_1LOTQJ3.sdf', '/opt/xchem-fragalysis-2/maxwin/BulkDock/OUTPUTS/openbind_d68ev3c_c2_elabs_1LSYEHW.sdf', '/opt/xchem-fragalysis-2/maxwin/BulkDock/OUTPUTS/openbind_d68ev3c_c2_elabs_1LSYI5W.sdf']

$$$$
P86408
     RDKit          3D

 23 24  0  0  0  0  0  0  0  0999 V2000
  -13.8549  -25.4607   25.9668 C   0  0  0  0  0  0  0  0  0  0  0  0
  -12.9003  -24.2856   25.9916 C   0  0  0  0  0  0  0  0  0  0  0  0
  -11.5119  -24.5232   26.5805 C   0  0  0  0  0  0  0  0  0  0  0  0
  -11.5039  -25.0234   27.9711 N   0  0  0  0  0  0  0  0  0  0  0  0
  -11.6526  -24.1258   29.0289 C   0  0  0  0  0  0  0  0  0  0  0  0
  -11.8433  -22.4158   28.7769 S   0  0  0  0  0  0  0  0  0  0  0  0
  -12.2306  -22.0083   30.3120 N   0  0  0  0  0  0  0  0  0  0  0  0
  -12.0780  -23.0666   31.0921 C   0  0  0  0  0  0  0  0  0  0  0  0
  -12.3757  -22.9234   32.5452 C   0  0  0  0  0  0  0  0  0  0  0  0
  -11.6178  -24.2450   30.4251 C   0  0  0  0  0  0  0  0  0  0  0  0
  -11.1662  -25.3542   31.1896 C   0  0  0  0  0  0  0  0  0  0  0  0
  -10.7567  -26.2329   31.8215 N   0  0  0  0  0  0  0  0  0  0  0  0
  -11.2261  -26.4670   28.2107 C   0  0  1  0  0  0  0  0  0  0  0  0
   -9.8528  -26.6511   28.8324 C   0  0  0  0  0  0  0  0  0  0  0  0
  -12.4411  -27.1510   28.8766 C   0  0  0  0  0  0  0  0  0  0  0  0
  -12.3979  -28.6754   28.6676 C   0  0  1  0  0  0  0  0  0  0  0  0
  -13.6167  -29.8098   28.5786 C   0  0  0  0  0  0  0  0  0  0  0  0
  -14.1395  -30.3470   29.9416 C   0  0  0  0  0  0  0  0  0  0  0  0
  -13.0802  -31.1495   27.9943 C   0  0  0  0  0  0  0  0  0  0  0  0
  -14.8678  -29.3790   27.7579 C   0  0  0  0  0  0  0  0  0  0  0  0
  -11.7218  -28.6039   27.4207 N   0  0  0  0  0  0  0  0  0  0  0  0
  -11.2007  -27.3928   27.0164 C   0  0  0  0  0  0  0  0  0  0  0  0
  -10.7080  -27.2352   25.9114 O   0  0  0  0  0  0  0  0  0  0  0  0
  1  2  1  0
  2  3  1  0
  3  4  1  0
  4  5  1  0
  5  6  1  0
  6  7  1  0
  7  8  2  0
  8  9  1  0
  8 10  1  0
 10 11  1  0
 11 12  3  0
 13  4  1  0
 13 14  1  1
 13 15  1  0
 15 16  1  0
 16 17  1  6
 17 18  1  0
 17 19  1  0
 17 20  1  0
 16 21  1  0
 21 22  1  0
 22 23  2  0
 10  5  2  0
 22 13  1  0
M  END
>  <ref_mols>  (822) 
7gop-a

>  <gnina_score>  (822) 
5.427

>  <smina_score_min>  (822) 
-2.12

>  <ref_pdb>  (822) 
7gop-a

>  <inspiration_score>  (822) 
None

>  <inchikey>  (822) 
KNQBGFCEKGAWFQ-GUYCJALGSA-N

>  <tags>  (822) 
BulkDock Fragalysis export,openbind_d68ev3c_c2_elabs_scored,openbind_d68ev3c_c2_elabs_scored_4.5plus,openbind_d68ev3c_c2_elabs,openbind_d68ev3c_c2_elabs_scored_5plus,syndirella_product,openbind_d68ev3c_c2_elabs_scored_top80percent,syndirella_placed

>  <smiles>  (822) 
CCCN(c1snc(C)c1C#N)[C@@]1(C)C[C@@H](C(C)(C)C)NC1=O

>  <subsites>  (822) 
None

>  <rmsd(smina/fragmenstein)>  (822) 
0.586

>  <alias>  (822) 
None

>  <energy_score>  (822) 
-25.694185

>  <HIPPO Pose ID>  (822) 
86408

>  <distance_score>  (822) 
0.571154

>  <HIPPO Compound ID>  (822) 
121698

>  <gnina_score_min>  (822) 
5.346

>  <name>  (822) 
P86408

>  <exports>  (822) 
['/opt/xchem-fragalysis-2/maxwin/BulkDock/OUTPUTS/openbind_d68ev3c_c2_elabs_1LOTQJ3.sdf', '/opt/xchem-fragalysis-2/maxwin/BulkDock/OUTPUTS/openbind_d68ev3c_c2_elabs_1LSYEHW.sdf', '/opt/xchem-fragalysis-2/maxwin/BulkDock/OUTPUTS/openbind_d68ev3c_c2_elabs_1LSYI5W.sdf']

$$$$
P86410
     RDKit          3D

 23 24  0  0  0  0  0  0  0  0999 V2000
  -12.2314  -22.2906   32.0831 C   0  0  0  0  0  0  0  0  0  0  0  0
  -12.0237  -22.6905   30.6576 C   0  0  0  0  0  0  0  0  0  0  0  0
  -12.0194  -21.7548   29.7166 N   0  0  0  0  0  0  0  0  0  0  0  0
  -11.7669  -22.4622   28.2517 S   0  0  0  0  0  0  0  0  0  0  0  0
  -11.7194  -24.0892   28.7875 C   0  0  0  0  0  0  0  0  0  0  0  0
  -11.5649  -25.1612   27.9328 N   0  0  0  0  0  0  0  0  0  0  0  0
  -11.7270  -25.1177   26.4683 C   0  0  0  0  0  0  0  0  0  0  0  0
  -13.1807  -25.0959   25.9568 C   0  0  0  0  0  0  0  0  0  0  0  0
  -13.5825  -24.0968   25.3675 O   0  0  0  0  0  0  0  0  0  0  0  0
  -13.9900  -26.2516   26.0773 N   0  0  0  0  0  0  0  0  0  0  0  0
  -15.5120  -26.1928   26.2441 S   0  0  0  0  0  0  0  0  0  0  0  0
  -16.2646  -25.5540   24.7606 C   0  0  0  0  0  0  0  0  0  0  0  0
  -16.1185  -27.8649   26.2220 C   0  0  0  0  0  0  0  0  0  0  0  0
  -16.1417  -25.6303   27.4222 O   0  0  0  0  0  0  0  0  0  0  0  0
  -11.1524  -26.3944   28.4465 C   0  0  0  0  0  0  0  0  0  0  0  0
  -12.0149  -27.4799   28.4526 C   0  0  0  0  0  0  0  0  0  0  0  0
  -11.8710  -28.4496   29.4263 C   0  0  0  0  0  0  0  0  0  0  0  0
  -10.8326  -28.3653   30.3475 C   0  0  0  0  0  0  0  0  0  0  0  0
   -9.8398  -27.4209   30.1713 C   0  0  0  0  0  0  0  0  0  0  0  0
   -9.9873  -26.4427   29.2055 C   0  0  0  0  0  0  0  0  0  0  0  0
  -11.7833  -24.0151   30.1883 C   0  0  0  0  0  0  0  0  0  0  0  0
  -11.5576  -25.0310   31.1649 C   0  0  0  0  0  0  0  0  0  0  0  0
  -11.2521  -25.6672   32.0851 N   0  0  0  0  0  0  0  0  0  0  0  0
  1  2  1  0
  2  3  2  0
  3  4  1  0
  4  5  1  0
  5  6  1  0
  6  7  1  0
  7  8  1  0
  8  9  2  0
  8 10  1  0
 10 11  2  0
 11 12  1  0
 11 13  1  0
 11 14  2  0
  6 15  1  0
 15 16  2  0
 16 17  1  0
 17 18  2  0
 18 19  1  0
 19 20  2  0
  5 21  2  0
 21 22  1  0
 22 23  3  0
 21  2  1  0
 20 15  1  0
M  END
>  <ref_mols>  (823) 
7gop-a

>  <gnina_score>  (823) 
5.212

>  <smina_score_min>  (823) 
-4.557

>  <ref_pdb>  (823) 
7gop-a

>  <inspiration_score>  (823) 
None

>  <inchikey>  (823) 
XGXCQXGERMRNDF-UHFFFAOYSA-N

>  <tags>  (823) 
BulkDock Fragalysis export,openbind_d68ev3c_c2_elabs_scored,openbind_d68ev3c_c2_elabs_scored_4.5plus,openbind_d68ev3c_c2_elabs,openbind_d68ev3c_c2_elabs_scored_5plus,syndirella_product,openbind_d68ev3c_c2_elabs_scored_top80percent,syndirella_placed

>  <smiles>  (823) 
Cc1nsc(N(CC(=O)N=S(C)(C)=O)c2ccccc2)c1C#N

>  <subsites>  (823) 
None

>  <rmsd(smina/fragmenstein)>  (823) 
0.503

>  <alias>  (823) 
None

>  <energy_score>  (823) 
-55.677217

>  <HIPPO Pose ID>  (823) 
86410

>  <distance_score>  (823) 
0.795087

>  <HIPPO Compound ID>  (823) 
121705

>  <gnina_score_min>  (823) 
5.076

>  <name>  (823) 
P86410

>  <exports>  (823) 
['/opt/xchem-fragalysis-2/maxwin/BulkDock/OUTPUTS/openbind_d68ev3c_c2_elabs_1LOTQJ3.sdf', '/opt/xchem-fragalysis-2/maxwin/BulkDock/OUTPUTS/openbind_d68ev3c_c2_elabs_1LSYEHW.sdf', '/opt/xchem-fragalysis-2/maxwin/BulkDock/OUTPUTS/openbind_d68ev3c_c2_elabs_1LSYI5W.sdf']

$$$$
P86411
     RDKit          3D

 23 24  0  0  0  0  0  0  0  0999 V2000
  -11.6142  -21.8768   31.9356 C   0  0  0  0  0  0  0  0  0  0  0  0
  -11.8839  -22.3432   30.5521 C   0  0  0  0  0  0  0  0  0  0  0  0
  -11.6184  -21.5496   29.5333 N   0  0  0  0  0  0  0  0  0  0  0  0
  -11.7808  -22.4177   28.1586 S   0  0  0  0  0  0  0  0  0  0  0  0
  -12.3750  -23.8940   28.8338 C   0  0  0  0  0  0  0  0  0  0  0  0
  -12.6016  -25.0904   28.1146 N   0  0  0  0  0  0  0  0  0  0  0  0
  -11.6779  -26.0856   28.5553 C   0  0  0  0  0  0  0  0  0  0  0  0
  -10.4825  -26.2664   27.9041 C   0  0  0  0  0  0  0  0  0  0  0  0
   -9.5151  -27.0006   28.5123 C   0  0  0  0  0  0  0  0  0  0  0  0
   -9.6713  -27.5309   29.7950 C   0  0  0  0  0  0  0  0  0  0  0  0
  -10.8688  -27.4266   30.4263 C   0  0  0  0  0  0  0  0  0  0  0  0
  -11.8604  -26.7326   29.7744 C   0  0  0  0  0  0  0  0  0  0  0  0
  -12.6997  -25.2033   26.5835 C   0  0  2  0  0  0  0  0  0  0  0  0
  -11.8723  -24.2165   25.7640 C   0  0  0  0  0  0  0  0  0  0  0  0
  -14.1444  -25.3752   26.0205 C   0  0  0  0  0  0  0  0  0  0  0  0
  -14.5229  -24.6235   25.1717 O   0  0  0  0  0  0  0  0  0  0  0  0
  -14.7761  -26.5392   26.5966 N   0  0  0  0  0  0  0  0  0  0  0  0
  -16.0236  -27.2141   26.2580 C   0  0  0  0  0  0  0  0  0  0  0  0
  -16.2031  -28.5640   26.9446 C   0  0  0  0  0  0  0  0  0  0  0  0
  -17.2302  -26.3243   26.5359 C   0  0  0  0  0  0  0  0  0  0  0  0
  -12.3702  -23.6389   30.2199 C   0  0  0  0  0  0  0  0  0  0  0  0
  -12.6514  -24.4706   31.3434 C   0  0  0  0  0  0  0  0  0  0  0  0
  -12.7327  -24.9721   32.3868 N   0  0  0  0  0  0  0  0  0  0  0  0
  1  2  1  0
  2  3  2  0
  3  4  1  0
  4  5  1  0
  5  6  1  0
  6  7  1  0
  7  8  2  0
  8  9  1  0
  9 10  2  0
 10 11  1  0
 11 12  2  0
  6 13  1  0
 13 14  1  6
 13 15  1  0
 15 16  2  0
 15 17  1  0
 17 18  1  0
 18 19  1  0
 18 20  1  0
  5 21  2  0
 21 22  1  0
 22 23  3  0
 21  2  1  0
 12  7  1  0
M  END
>  <ref_mols>  (824) 
7gop-a

>  <gnina_score>  (824) 
5.262

>  <smina_score_min>  (824) 
-4.389

>  <ref_pdb>  (824) 
7gop-a

>  <inspiration_score>  (824) 
None

>  <inchikey>  (824) 
ZJCGFYXGEHTERC-CYBMUJFWSA-N

>  <tags>  (824) 
BulkDock Fragalysis export,openbind_d68ev3c_c2_elabs_scored,openbind_d68ev3c_c2_elabs_scored_4.5plus,openbind_d68ev3c_c2_elabs,openbind_d68ev3c_c2_elabs_scored_5plus,syndirella_product,openbind_d68ev3c_c2_elabs_scored_top80percent,syndirella_placed

>  <smiles>  (824) 
Cc1nsc(N(c2ccccc2)[C@H](C)C(=O)NC(C)C)c1C#N

>  <subsites>  (824) 
None

>  <rmsd(smina/fragmenstein)>  (824) 
0.609

>  <alias>  (824) 
None

>  <energy_score>  (824) 
-22.362755

>  <HIPPO Pose ID>  (824) 
86411

>  <distance_score>  (824) 
1.515461

>  <HIPPO Compound ID>  (824) 
121709

>  <gnina_score_min>  (824) 
5.095

>  <name>  (824) 
P86411

>  <exports>  (824) 
['/opt/xchem-fragalysis-2/maxwin/BulkDock/OUTPUTS/openbind_d68ev3c_c2_elabs_1LOTQJ3.sdf', '/opt/xchem-fragalysis-2/maxwin/BulkDock/OUTPUTS/openbind_d68ev3c_c2_elabs_1LSYEHW.sdf', '/opt/xchem-fragalysis-2/maxwin/BulkDock/OUTPUTS/openbind_d68ev3c_c2_elabs_1LSYI5W.sdf']

$$$$
P86414
     RDKit          3D

 23 24  0  0  0  0  0  0  0  0999 V2000
  -16.2121  -28.3140   26.3327 C   0  0  0  0  0  0  0  0  0  0  0  0
  -15.8298  -27.1829   26.1977 C   0  0  0  0  0  0  0  0  0  0  0  0
  -15.4261  -25.7768   26.0854 C   0  0  0  0  0  0  0  0  0  0  0  0
  -14.0623  -25.6049   26.4846 N   0  0  0  0  0  0  0  0  0  0  0  0
  -12.9570  -24.6785   25.9172 C   0  0  0  0  0  0  0  0  0  0  0  0
  -13.0096  -23.8590   25.0889 O   0  0  0  0  0  0  0  0  0  0  0  0
  -11.6143  -25.0878   26.5816 C   0  0  2  0  0  0  0  0  0  0  0  0
  -11.2354  -26.3802   25.8557 C   0  0  0  0  0  0  0  0  0  0  0  0
  -11.7335  -25.2267   28.0615 N   0  0  0  0  0  0  0  0  0  0  0  0
  -11.1975  -26.4001   28.6181 C   0  0  0  0  0  0  0  0  0  0  0  0
   -9.9922  -26.3503   29.3110 C   0  0  0  0  0  0  0  0  0  0  0  0
   -9.7333  -27.2977   30.2849 C   0  0  0  0  0  0  0  0  0  0  0  0
  -10.6341  -28.3183   30.5215 C   0  0  0  0  0  0  0  0  0  0  0  0
  -11.7170  -28.4843   29.6734 C   0  0  0  0  0  0  0  0  0  0  0  0
  -11.9762  -27.5493   28.6924 C   0  0  0  0  0  0  0  0  0  0  0  0
  -11.8057  -24.1131   28.8920 C   0  0  0  0  0  0  0  0  0  0  0  0
  -11.7803  -22.4887   28.3256 S   0  0  0  0  0  0  0  0  0  0  0  0
  -12.0139  -21.7503   29.7771 N   0  0  0  0  0  0  0  0  0  0  0  0
  -12.0372  -22.6671   30.7355 C   0  0  0  0  0  0  0  0  0  0  0  0
  -12.2267  -22.2377   32.1536 C   0  0  0  0  0  0  0  0  0  0  0  0
  -11.8406  -24.0050   30.2907 C   0  0  0  0  0  0  0  0  0  0  0  0
  -11.6162  -25.0066   31.2802 C   0  0  0  0  0  0  0  0  0  0  0  0
  -11.2966  -25.6336   32.2008 N   0  0  0  0  0  0  0  0  0  0  0  0
  1  2  3  0
  2  3  1  0
  3  4  1  0
  4  5  1  0
  5  6  2  0
  5  7  1  0
  7  8  1  6
  7  9  1  0
  9 10  1  0
 10 11  2  0
 11 12  1  0
 12 13  2  0
 13 14  1  0
 14 15  2  0
  9 16  1  0
 16 17  1  0
 17 18  1  0
 18 19  2  0
 19 20  1  0
 19 21  1  0
 21 22  1  0
 22 23  3  0
 15 10  1  0
 21 16  2  0
M  END
>  <ref_mols>  (825) 
7gop-a

>  <gnina_score>  (825) 
5.21

>  <smina_score_min>  (825) 
-4.327

>  <ref_pdb>  (825) 
7gop-a

>  <inspiration_score>  (825) 
None

>  <inchikey>  (825) 
RCDLJUNGMADZHN-ZDUSSCGKSA-N

>  <tags>  (825) 
BulkDock Fragalysis export,openbind_d68ev3c_c2_elabs_scored,openbind_d68ev3c_c2_elabs_scored_4.5plus,openbind_d68ev3c_c2_elabs,openbind_d68ev3c_c2_elabs_scored_5plus,syndirella_product,openbind_d68ev3c_c2_elabs_scored_top80percent,syndirella_placed

>  <smiles>  (825) 
C#CCNC(=O)[C@H](C)N(c1ccccc1)c1snc(C)c1C#N

>  <subsites>  (825) 
None

>  <rmsd(smina/fragmenstein)>  (825) 
0.316

>  <alias>  (825) 
None

>  <energy_score>  (825) 
-8.884023

>  <HIPPO Pose ID>  (825) 
86414

>  <distance_score>  (825) 
0.810561

>  <HIPPO Compound ID>  (825) 
121716

>  <gnina_score_min>  (825) 
5.13

>  <name>  (825) 
P86414

>  <exports>  (825) 
['/opt/xchem-fragalysis-2/maxwin/BulkDock/OUTPUTS/openbind_d68ev3c_c2_elabs_1LOTQJ3.sdf', '/opt/xchem-fragalysis-2/maxwin/BulkDock/OUTPUTS/openbind_d68ev3c_c2_elabs_1LSYEHW.sdf', '/opt/xchem-fragalysis-2/maxwin/BulkDock/OUTPUTS/openbind_d68ev3c_c2_elabs_1LSYI5W.sdf']

$$$$
P86416
     RDKit          3D

 23 25  0  0  0  0  0  0  0  0999 V2000
  -12.3043  -22.3246   32.2228 C   0  0  0  0  0  0  0  0  0  0  0  0
  -12.0444  -22.6886   30.7977 C   0  0  0  0  0  0  0  0  0  0  0  0
  -12.0395  -21.7310   29.8791 N   0  0  0  0  0  0  0  0  0  0  0  0
  -11.7685  -22.3966   28.4041 S   0  0  0  0  0  0  0  0  0  0  0  0
  -11.6791  -24.0328   28.9056 C   0  0  0  0  0  0  0  0  0  0  0  0
  -11.5086  -25.0741   28.0204 N   0  0  0  0  0  0  0  0  0  0  0  0
  -11.5277  -24.9385   26.5703 C   0  0  0  0  0  0  0  0  0  0  0  0
  -12.8648  -25.0838   25.8368 C   0  0  2  0  0  0  0  0  0  0  0  0
  -13.0053  -23.9346   24.9844 O   0  0  0  0  0  0  0  0  0  0  0  0
  -14.2562  -23.8356   24.2932 C   0  0  0  0  0  0  0  0  0  0  0  0
  -15.1375  -25.0899   24.3717 C   0  0  0  0  0  0  0  0  0  0  0  0
  -15.2419  -25.6028   25.7108 N   0  0  0  0  0  0  0  0  0  0  0  0
  -14.1812  -25.3789   26.5627 C   0  0  0  0  0  0  0  0  0  0  0  0
  -14.3953  -25.4462   27.7607 O   0  0  0  0  0  0  0  0  0  0  0  0
  -11.1296  -26.3354   28.4865 C   0  0  0  0  0  0  0  0  0  0  0  0
  -12.0041  -27.4098   28.4116 C   0  0  0  0  0  0  0  0  0  0  0  0
  -11.9006  -28.4186   29.3493 C   0  0  0  0  0  0  0  0  0  0  0  0
  -10.8865  -28.3835   30.3016 C   0  0  0  0  0  0  0  0  0  0  0  0
   -9.8665  -27.4598   30.1790 C   0  0  0  0  0  0  0  0  0  0  0  0
   -9.9797  -26.4373   29.2592 C   0  0  0  0  0  0  0  0  0  0  0  0
  -11.7558  -23.9947   30.3048 C   0  0  0  0  0  0  0  0  0  0  0  0
  -11.4972  -25.0264   31.2550 C   0  0  0  0  0  0  0  0  0  0  0  0
  -11.1563  -25.6763   32.1531 N   0  0  0  0  0  0  0  0  0  0  0  0
  1  2  1  0
  2  3  2  0
  3  4  1  0
  4  5  1  0
  5  6  1  0
  6  7  1  0
  8  7  1  1
  8  9  1  0
  9 10  1  0
 10 11  1  0
 11 12  1  0
 12 13  1  0
 13 14  2  0
  6 15  1  0
 15 16  2  0
 16 17  1  0
 17 18  2  0
 18 19  1  0
 19 20  2  0
  5 21  2  0
 21 22  1  0
 22 23  3  0
 21  2  1  0
 13  8  1  0
 20 15  1  0
M  END
>  <ref_mols>  (826) 
7gop-a

>  <gnina_score>  (826) 
5.172

>  <smina_score_min>  (826) 
-4.174

>  <ref_pdb>  (826) 
7gop-a

>  <inspiration_score>  (826) 
None

>  <inchikey>  (826) 
TVXLSUUTKCDMBB-AWEZNQCLSA-N

>  <tags>  (826) 
BulkDock Fragalysis export,openbind_d68ev3c_c2_elabs_scored,openbind_d68ev3c_c2_elabs_scored_4.5plus,openbind_d68ev3c_c2_elabs,openbind_d68ev3c_c2_elabs_scored_5plus,syndirella_product,openbind_d68ev3c_c2_elabs_scored_top80percent,syndirella_placed

>  <smiles>  (826) 
Cc1nsc(N(C[C@@H]2OCCNC2=O)c2ccccc2)c1C#N

>  <subsites>  (826) 
None

>  <rmsd(smina/fragmenstein)>  (826) 
0.49

>  <alias>  (826) 
None

>  <energy_score>  (826) 
-5.278027

>  <HIPPO Pose ID>  (826) 
86416

>  <distance_score>  (826) 
0.756469

>  <HIPPO Compound ID>  (826) 
121722

>  <gnina_score_min>  (826) 
5.231

>  <name>  (826) 
P86416

>  <exports>  (826) 
['/opt/xchem-fragalysis-2/maxwin/BulkDock/OUTPUTS/openbind_d68ev3c_c2_elabs_1LOTQJ3.sdf', '/opt/xchem-fragalysis-2/maxwin/BulkDock/OUTPUTS/openbind_d68ev3c_c2_elabs_1LSYEHW.sdf', '/opt/xchem-fragalysis-2/maxwin/BulkDock/OUTPUTS/openbind_d68ev3c_c2_elabs_1LSYI5W.sdf']

$$$$
P86418
     RDKit          3D

 23 24  0  0  0  0  0  0  0  0999 V2000
  -16.4097  -28.1310   26.6085 C   0  0  0  0  0  0  0  0  0  0  0  0
  -16.8612  -26.6931   26.4025 C   0  0  0  0  0  0  0  0  0  0  0  0
  -15.9851  -25.9492   25.4044 C   0  0  0  0  0  0  0  0  0  0  0  0
  -14.7698  -25.4270   25.9828 N   0  0  0  0  0  0  0  0  0  0  0  0
  -13.2905  -25.7540   25.6751 C   0  0  0  0  0  0  0  0  0  0  0  0
  -12.8259  -26.5506   24.9620 O   0  0  0  0  0  0  0  0  0  0  0  0
  -12.3815  -24.7184   26.4275 C   0  0  2  0  0  0  0  0  0  0  0  0
  -11.0807  -24.5894   25.6503 C   0  0  0  0  0  0  0  0  0  0  0  0
  -12.0638  -25.0201   27.8613 N   0  0  0  0  0  0  0  0  0  0  0  0
  -11.4837  -26.2680   28.1758 C   0  0  0  0  0  0  0  0  0  0  0  0
  -12.2738  -27.4079   28.1484 C   0  0  0  0  0  0  0  0  0  0  0  0
  -12.0532  -28.4033   29.0844 C   0  0  0  0  0  0  0  0  0  0  0  0
  -11.0276  -28.2672   30.0129 C   0  0  0  0  0  0  0  0  0  0  0  0
  -10.0627  -27.2958   29.8245 C   0  0  0  0  0  0  0  0  0  0  0  0
  -10.2630  -26.3142   28.8649 C   0  0  0  0  0  0  0  0  0  0  0  0
  -11.9635  -23.9993   28.8014 C   0  0  0  0  0  0  0  0  0  0  0  0
  -11.7507  -22.3455   28.3755 S   0  0  0  0  0  0  0  0  0  0  0  0
  -11.9434  -21.7067   29.8735 N   0  0  0  0  0  0  0  0  0  0  0  0
  -12.0136  -22.6930   30.7565 C   0  0  0  0  0  0  0  0  0  0  0  0
  -12.1652  -22.3681   32.2057 C   0  0  0  0  0  0  0  0  0  0  0  0
  -11.9032  -24.0038   30.2028 C   0  0  0  0  0  0  0  0  0  0  0  0
  -11.6865  -25.0823   31.1069 C   0  0  0  0  0  0  0  0  0  0  0  0
  -11.3397  -25.7679   31.9744 N   0  0  0  0  0  0  0  0  0  0  0  0
  1  2  1  0
  2  3  1  0
  3  4  1  0
  4  5  1  0
  5  6  2  0
  5  7  1  0
  7  8  1  6
  7  9  1  0
  9 10  1  0
 10 11  2  0
 11 12  1  0
 12 13  2  0
 13 14  1  0
 14 15  2  0
  9 16  1  0
 16 17  1  0
 17 18  1  0
 18 19  2  0
 19 20  1  0
 19 21  1  0
 21 22  1  0
 22 23  3  0
 15 10  1  0
 21 16  2  0
M  END
>  <ref_mols>  (827) 
7gop-a

>  <gnina_score>  (827) 
5.467

>  <smina_score_min>  (827) 
-4.542

>  <ref_pdb>  (827) 
7gop-a

>  <inspiration_score>  (827) 
None

>  <inchikey>  (827) 
LZEHRERUXWODLF-ZDUSSCGKSA-N

>  <tags>  (827) 
BulkDock Fragalysis export,openbind_d68ev3c_c2_elabs_scored,openbind_d68ev3c_c2_elabs_scored_4.5plus,openbind_d68ev3c_c2_elabs,openbind_d68ev3c_c2_elabs_scored_5plus,syndirella_product,openbind_d68ev3c_c2_elabs_scored_top80percent,syndirella_placed

>  <smiles>  (827) 
CCCNC(=O)[C@H](C)N(c1ccccc1)c1snc(C)c1C#N

>  <subsites>  (827) 
None

>  <rmsd(smina/fragmenstein)>  (827) 
0.442

>  <alias>  (827) 
None

>  <energy_score>  (827) 
-12.560127

>  <HIPPO Pose ID>  (827) 
86418

>  <distance_score>  (827) 
1.153495

>  <HIPPO Compound ID>  (827) 
121726

>  <gnina_score_min>  (827) 
5.414

>  <name>  (827) 
P86418

>  <exports>  (827) 
['/opt/xchem-fragalysis-2/maxwin/BulkDock/OUTPUTS/openbind_d68ev3c_c2_elabs_1LOTQJ3.sdf', '/opt/xchem-fragalysis-2/maxwin/BulkDock/OUTPUTS/openbind_d68ev3c_c2_elabs_1LSYEHW.sdf', '/opt/xchem-fragalysis-2/maxwin/BulkDock/OUTPUTS/openbind_d68ev3c_c2_elabs_1LSYI5W.sdf']

$$$$
P86424
     RDKit          3D

 23 24  0  0  0  0  0  0  0  0999 V2000
  -18.2934  -26.0169   26.2569 C   0  0  0  0  0  0  0  0  0  0  0  0
  -17.1633  -26.2974   26.9220 C   0  0  0  0  0  0  0  0  0  0  0  0
  -15.9205  -26.7681   26.2531 C   0  0  0  0  0  0  0  0  0  0  0  0
  -14.7820  -25.9288   26.5094 N   0  0  0  0  0  0  0  0  0  0  0  0
  -13.3933  -25.8795   25.8222 C   0  0  0  0  0  0  0  0  0  0  0  0
  -12.9885  -26.4595   24.8935 O   0  0  0  0  0  0  0  0  0  0  0  0
  -12.4978  -24.8000   26.5259 C   0  0  2  0  0  0  0  0  0  0  0  0
  -11.2295  -24.5902   25.7015 C   0  0  0  0  0  0  0  0  0  0  0  0
  -12.1047  -25.0758   27.9459 N   0  0  0  0  0  0  0  0  0  0  0  0
  -11.4780  -26.3032   28.2569 C   0  0  0  0  0  0  0  0  0  0  0  0
  -10.2490  -26.3048   28.9325 C   0  0  0  0  0  0  0  0  0  0  0  0
  -10.0071  -27.2670   29.9035 C   0  0  0  0  0  0  0  0  0  0  0  0
  -10.9394  -28.2620   30.1231 C   0  0  0  0  0  0  0  0  0  0  0  0
  -11.9808  -28.4315   29.2189 C   0  0  0  0  0  0  0  0  0  0  0  0
  -12.2274  -27.4703   28.2543 C   0  0  0  0  0  0  0  0  0  0  0  0
  -11.9908  -24.0329   28.8600 C   0  0  0  0  0  0  0  0  0  0  0  0
  -11.7785  -22.3867   28.3952 S   0  0  0  0  0  0  0  0  0  0  0  0
  -11.9578  -21.7194   29.8831 N   0  0  0  0  0  0  0  0  0  0  0  0
  -12.0214  -22.6884   30.7858 C   0  0  0  0  0  0  0  0  0  0  0  0
  -12.1717  -22.3340   32.2276 C   0  0  0  0  0  0  0  0  0  0  0  0
  -11.9089  -24.0090   30.2588 C   0  0  0  0  0  0  0  0  0  0  0  0
  -11.6742  -25.0707   31.1775 C   0  0  0  0  0  0  0  0  0  0  0  0
  -11.3114  -25.7406   32.0505 N   0  0  0  0  0  0  0  0  0  0  0  0
  1  2  2  0
  2  3  1  0
  3  4  1  0
  4  5  1  0
  5  6  2  0
  5  7  1  0
  7  8  1  6
  7  9  1  0
  9 10  1  0
 10 11  2  0
 11 12  1  0
 12 13  2  0
 13 14  1  0
 14 15  2  0
  9 16  1  0
 16 17  1  0
 17 18  1  0
 18 19  2  0
 19 20  1  0
 19 21  1  0
 21 22  1  0
 22 23  3  0
 15 10  1  0
 21 16  2  0
M  END
>  <ref_mols>  (828) 
7gop-a

>  <gnina_score>  (828) 
5.451

>  <smina_score_min>  (828) 
-4.606

>  <ref_pdb>  (828) 
7gop-a

>  <inspiration_score>  (828) 
None

>  <inchikey>  (828) 
RDZIJTXNZNAMCI-ZDUSSCGKSA-N

>  <tags>  (828) 
BulkDock Fragalysis export,openbind_d68ev3c_c2_elabs_scored,openbind_d68ev3c_c2_elabs_scored_4.5plus,openbind_d68ev3c_c2_elabs,openbind_d68ev3c_c2_elabs_scored_5plus,syndirella_product,openbind_d68ev3c_c2_elabs_scored_top80percent,syndirella_placed

>  <smiles>  (828) 
C=CCNC(=O)[C@H](C)N(c1ccccc1)c1snc(C)c1C#N

>  <subsites>  (828) 
None

>  <rmsd(smina/fragmenstein)>  (828) 
0.465

>  <alias>  (828) 
None

>  <energy_score>  (828) 
-5.449569

>  <HIPPO Pose ID>  (828) 
86424

>  <distance_score>  (828) 
1.124375

>  <HIPPO Compound ID>  (828) 
121731

>  <gnina_score_min>  (828) 
5.421

>  <name>  (828) 
P86424

>  <exports>  (828) 
['/opt/xchem-fragalysis-2/maxwin/BulkDock/OUTPUTS/openbind_d68ev3c_c2_elabs_1LOTQJ3.sdf', '/opt/xchem-fragalysis-2/maxwin/BulkDock/OUTPUTS/openbind_d68ev3c_c2_elabs_1LSYEHW.sdf', '/opt/xchem-fragalysis-2/maxwin/BulkDock/OUTPUTS/openbind_d68ev3c_c2_elabs_1LSYI5W.sdf']

$$$$
P86428
     RDKit          3D

 23 25  0  0  0  0  0  0  0  0999 V2000
  -15.7487  -25.9009   24.6093 C   0  0  0  0  0  0  0  0  0  0  0  0
  -14.7622  -26.0143   25.7540 C   0  0  0  0  0  0  0  0  0  0  0  0
  -13.5920  -25.1949   25.5346 N   0  0  0  0  0  0  0  0  0  0  0  0
  -13.7023  -23.8875   26.0420 O   0  0  0  0  0  0  0  0  0  0  0  0
  -12.3617  -23.4140   25.9355 C   0  0  0  0  0  0  0  0  0  0  0  0
  -11.5314  -24.5404   26.5161 C   0  0  1  0  0  0  0  0  0  0  0  0
  -11.5985  -24.8068   27.9956 N   0  0  0  0  0  0  0  0  0  0  0  0
  -11.1649  -26.0989   28.3765 C   0  0  0  0  0  0  0  0  0  0  0  0
  -12.0618  -27.1642   28.3381 C   0  0  0  0  0  0  0  0  0  0  0  0
  -11.9060  -28.2309   29.2048 C   0  0  0  0  0  0  0  0  0  0  0  0
  -10.8737  -28.2196   30.1297 C   0  0  0  0  0  0  0  0  0  0  0  0
   -9.8625  -27.2848   30.0100 C   0  0  0  0  0  0  0  0  0  0  0  0
   -9.9834  -26.2395   29.1028 C   0  0  0  0  0  0  0  0  0  0  0  0
  -11.7035  -23.8569   29.0032 C   0  0  0  0  0  0  0  0  0  0  0  0
  -11.6497  -22.1685   28.7447 S   0  0  0  0  0  0  0  0  0  0  0  0
  -11.9850  -21.6779   30.2536 N   0  0  0  0  0  0  0  0  0  0  0  0
  -12.0735  -22.7298   31.0468 C   0  0  0  0  0  0  0  0  0  0  0  0
  -12.4008  -22.5260   32.4879 C   0  0  0  0  0  0  0  0  0  0  0  0
  -11.7896  -23.9716   30.4054 C   0  0  0  0  0  0  0  0  0  0  0  0
  -11.5383  -25.0818   31.2591 C   0  0  0  0  0  0  0  0  0  0  0  0
  -11.1861  -25.7795   32.1147 N   0  0  0  0  0  0  0  0  0  0  0  0
  -12.2835  -25.5955   25.7346 C   0  0  0  0  0  0  0  0  0  0  0  0
  -11.7923  -26.6214   25.3078 O   0  0  0  0  0  0  0  0  0  0  0  0
  1  2  1  0
  2  3  1  0
  3  4  1  0
  4  5  1  0
  5  6  1  0
  6  7  1  1
  7  8  1  0
  8  9  2  0
  9 10  1  0
 10 11  2  0
 11 12  1  0
 12 13  2  0
  7 14  1  0
 14 15  1  0
 15 16  1  0
 16 17  2  0
 17 18  1  0
 17 19  1  0
 19 20  1  0
 20 21  3  0
  6 22  1  0
 22 23  2  0
 22  3  1  0
 13  8  1  0
 19 14  2  0
M  END
>  <ref_mols>  (829) 
7gop-a

>  <gnina_score>  (829) 
5.367

>  <smina_score_min>  (829) 
-5.138

>  <ref_pdb>  (829) 
7gop-a

>  <inspiration_score>  (829) 
None

>  <inchikey>  (829) 
DKAIKIGUCNSRQG-CQSZACIVSA-N

>  <tags>  (829) 
BulkDock Fragalysis export,openbind_d68ev3c_c2_elabs_scored,openbind_d68ev3c_c2_elabs_scored_4.5plus,openbind_d68ev3c_c2_elabs,openbind_d68ev3c_c2_elabs_scored_5plus,syndirella_product,openbind_d68ev3c_c2_elabs_scored_top80percent,syndirella_placed

>  <smiles>  (829) 
CCN1OC[C@@H](N(c2ccccc2)c2snc(C)c2C#N)C1=O

>  <subsites>  (829) 
None

>  <rmsd(smina/fragmenstein)>  (829) 
0.425

>  <alias>  (829) 
None

>  <energy_score>  (829) 
-10.224841

>  <HIPPO Pose ID>  (829) 
86428

>  <distance_score>  (829) 
1.213646

>  <HIPPO Compound ID>  (829) 
121735

>  <gnina_score_min>  (829) 
5.305

>  <name>  (829) 
P86428

>  <exports>  (829) 
['/opt/xchem-fragalysis-2/maxwin/BulkDock/OUTPUTS/openbind_d68ev3c_c2_elabs_1LOTQJ3.sdf', '/opt/xchem-fragalysis-2/maxwin/BulkDock/OUTPUTS/openbind_d68ev3c_c2_elabs_1LSYEHW.sdf', '/opt/xchem-fragalysis-2/maxwin/BulkDock/OUTPUTS/openbind_d68ev3c_c2_elabs_1LSYI5W.sdf']

$$$$
P86431
     RDKit          3D

 23 25  0  0  0  0  0  0  0  0999 V2000
  -11.7730  -23.3452   25.0518 C   0  0  0  0  0  0  0  0  0  0  0  0
  -12.8218  -24.2234   25.5307 C   0  0  0  0  0  0  0  0  0  0  0  0
  -14.0046  -24.1106   25.0207 N   0  0  0  0  0  0  0  0  0  0  0  0
  -14.7359  -25.0757   25.5797 N   0  0  0  0  0  0  0  0  0  0  0  0
  -14.0632  -25.8138   26.5302 C   0  0  0  0  0  0  0  0  0  0  0  0
  -14.6335  -26.6497   27.2030 O   0  0  0  0  0  0  0  0  0  0  0  0
  -12.5806  -25.4145   26.4432 C   0  0  1  0  0  0  0  0  0  0  0  0
  -11.8195  -26.3870   25.5139 C   0  0  0  0  0  0  0  0  0  0  0  0
  -11.8213  -25.2092   27.7534 N   0  0  0  0  0  0  0  0  0  0  0  0
  -11.2768  -26.3764   28.3596 C   0  0  0  0  0  0  0  0  0  0  0  0
  -12.0135  -27.5466   28.5054 C   0  0  0  0  0  0  0  0  0  0  0  0
  -11.7393  -28.4203   29.5429 C   0  0  0  0  0  0  0  0  0  0  0  0
  -10.6689  -28.1893   30.3902 C   0  0  0  0  0  0  0  0  0  0  0  0
   -9.8023  -27.1492   30.1173 C   0  0  0  0  0  0  0  0  0  0  0  0
  -10.0768  -26.2651   29.0778 C   0  0  0  0  0  0  0  0  0  0  0  0
  -11.9782  -24.1311   28.6361 C   0  0  0  0  0  0  0  0  0  0  0  0
  -11.7915  -22.4915   28.1652 S   0  0  0  0  0  0  0  0  0  0  0  0
  -11.9947  -21.7822   29.6300 N   0  0  0  0  0  0  0  0  0  0  0  0
  -12.0918  -22.7262   30.5523 C   0  0  0  0  0  0  0  0  0  0  0  0
  -12.1898  -22.3359   31.9946 C   0  0  0  0  0  0  0  0  0  0  0  0
  -12.0247  -24.0607   30.0461 C   0  0  0  0  0  0  0  0  0  0  0  0
  -11.8704  -25.0844   31.0247 C   0  0  0  0  0  0  0  0  0  0  0  0
  -11.5743  -25.6949   31.9636 N   0  0  0  0  0  0  0  0  0  0  0  0
  1  2  1  0
  2  3  2  0
  3  4  1  0
  4  5  1  0
  5  6  2  0
  5  7  1  0
  7  8  1  6
  7  9  1  0
  9 10  1  0
 10 11  2  0
 11 12  1  0
 12 13  2  0
 13 14  1  0
 14 15  2  0
  9 16  1  0
 16 17  1  0
 17 18  1  0
 18 19  2  0
 19 20  1  0
 19 21  1  0
 21 22  1  0
 22 23  3  0
  7  2  1  0
 15 10  1  0
 21 16  2  0
M  END
>  <ref_mols>  (830) 
7gop-a

>  <gnina_score>  (830) 
5.654

>  <smina_score_min>  (830) 
-4.854

>  <ref_pdb>  (830) 
7gop-a

>  <inspiration_score>  (830) 
None

>  <inchikey>  (830) 
RZKIAABZMGNTNE-MRXNPFEDSA-N

>  <tags>  (830) 
BulkDock Fragalysis export,openbind_d68ev3c_c2_elabs_scored,openbind_d68ev3c_c2_elabs_scored_4.5plus,openbind_d68ev3c_c2_elabs,openbind_d68ev3c_c2_elabs_scored_5plus,syndirella_product,openbind_d68ev3c_c2_elabs_scored_top80percent,syndirella_placed

>  <smiles>  (830) 
CC1=NNC(=O)[C@]1(C)N(c1ccccc1)c1snc(C)c1C#N

>  <subsites>  (830) 
None

>  <rmsd(smina/fragmenstein)>  (830) 
0.408

>  <alias>  (830) 
None

>  <energy_score>  (830) 
-39.900829

>  <HIPPO Pose ID>  (830) 
86431

>  <distance_score>  (830) 
1.086634

>  <HIPPO Compound ID>  (830) 
121737

>  <gnina_score_min>  (830) 
5.68

>  <name>  (830) 
P86431

>  <exports>  (830) 
['/opt/xchem-fragalysis-2/maxwin/BulkDock/OUTPUTS/openbind_d68ev3c_c2_elabs_1LOTQJ3.sdf', '/opt/xchem-fragalysis-2/maxwin/BulkDock/OUTPUTS/openbind_d68ev3c_c2_elabs_1LSYEHW.sdf', '/opt/xchem-fragalysis-2/maxwin/BulkDock/OUTPUTS/openbind_d68ev3c_c2_elabs_1LSYI5W.sdf']

$$$$
P86435
     RDKit          3D

 24 24  0  0  0  0  0  0  0  0999 V2000
   -9.6119  -26.5810   27.6083 C   0  0  0  0  0  0  0  0  0  0  0  0
  -10.4630  -26.8897   28.7855 C   0  0  0  0  0  0  0  0  0  0  0  0
  -11.9406  -26.7326   28.4829 C   0  0  0  0  0  0  0  0  0  0  0  0
  -12.2925  -25.4167   27.9318 N   0  0  0  0  0  0  0  0  0  0  0  0
  -12.0981  -24.3183   28.7850 C   0  0  0  0  0  0  0  0  0  0  0  0
  -11.8907  -22.6806   28.2399 S   0  0  0  0  0  0  0  0  0  0  0  0
  -12.0247  -21.9454   29.7117 N   0  0  0  0  0  0  0  0  0  0  0  0
  -12.0190  -22.8784   30.6544 C   0  0  0  0  0  0  0  0  0  0  0  0
  -12.0725  -22.4631   32.0862 C   0  0  0  0  0  0  0  0  0  0  0  0
  -11.9185  -24.2186   30.1755 C   0  0  0  0  0  0  0  0  0  0  0  0
  -11.5885  -25.2556   31.0951 C   0  0  0  0  0  0  0  0  0  0  0  0
  -11.1519  -26.0422   31.8250 N   0  0  0  0  0  0  0  0  0  0  0  0
  -12.3314  -25.2242   26.4263 C   0  0  1  0  0  0  0  0  0  0  0  0
  -11.8886  -26.3882   25.5388 C   0  0  0  0  0  0  0  0  0  0  0  0
  -13.6750  -24.7815   25.7704 C   0  0  0  0  0  0  0  0  0  0  0  0
  -13.6852  -23.7974   25.1410 O   0  0  0  0  0  0  0  0  0  0  0  0
  -14.7916  -25.8380   26.0059 N   0  0  0  0  0  0  0  0  0  0  0  0
  -16.2060  -25.8479   25.5822 C   0  0  2  0  0  0  0  0  0  0  0  0
  -17.2053  -25.8666   26.7366 C   0  0  0  0  0  0  0  0  0  0  0  0
  -18.3997  -25.6127   26.6818 O   0  0  0  0  0  0  0  0  0  0  0  0
  -16.6695  -26.3045   27.8938 O   0  0  0  0  0  0  0  0  0  0  0  0
  -16.5227  -26.9801   24.5822 C   0  0  0  0  0  0  0  0  0  0  0  0
  -17.7521  -26.6601   23.7216 C   0  0  0  0  0  0  0  0  0  0  0  0
  -16.7231  -28.3389   25.2642 C   0  0  0  0  0  0  0  0  0  0  0  0
  1  2  1  0
  2  3  1  0
  3  4  1  0
  4  5  1  0
  5  6  1  0
  6  7  1  0
  7  8  2  0
  8  9  1  0
  8 10  1  0
 10 11  1  0
 11 12  3  0
  4 13  1  0
 13 14  1  6
 13 15  1  0
 15 16  2  0
 15 17  1  0
 18 17  1  1
 18 19  1  0
 19 20  2  0
 19 21  1  0
 18 22  1  0
 22 23  1  0
 22 24  1  0
 10  5  2  0
M  END
>  <ref_mols>  (831) 
7gop-a

>  <gnina_score>  (831) 
5.176

>  <smina_score_min>  (831) 
-4.757

>  <ref_pdb>  (831) 
7gop-a

>  <inspiration_score>  (831) 
None

>  <inchikey>  (831) 
NNQRIWGANFMATB-AAEUAGOBSA-N

>  <tags>  (831) 
BulkDock Fragalysis export,openbind_d68ev3c_c2_elabs_scored,openbind_d68ev3c_c2_elabs_scored_4.5plus,openbind_d68ev3c_c2_elabs,openbind_d68ev3c_c2_elabs_scored_5plus,syndirella_product,openbind_d68ev3c_c2_elabs_scored_top80percent,syndirella_placed

>  <smiles>  (831) 
CCCN(c1snc(C)c1C#N)[C@@H](C)C(=O)N[C@H](C(=O)O)C(C)C

>  <subsites>  (831) 
None

>  <rmsd(smina/fragmenstein)>  (831) 
0.454

>  <alias>  (831) 
None

>  <energy_score>  (831) 
-41.625335

>  <HIPPO Pose ID>  (831) 
86435

>  <distance_score>  (831) 
0.883531

>  <HIPPO Compound ID>  (831) 
121753

>  <gnina_score_min>  (831) 
5.144

>  <name>  (831) 
P86435

>  <exports>  (831) 
['/opt/xchem-fragalysis-2/maxwin/BulkDock/OUTPUTS/openbind_d68ev3c_c2_elabs_1LOTQJ3.sdf', '/opt/xchem-fragalysis-2/maxwin/BulkDock/OUTPUTS/openbind_d68ev3c_c2_elabs_1LSYEHW.sdf', '/opt/xchem-fragalysis-2/maxwin/BulkDock/OUTPUTS/openbind_d68ev3c_c2_elabs_1LSYI5W.sdf']

$$$$
P86437
     RDKit          3D

 24 25  0  0  0  0  0  0  0  0999 V2000
  -11.8900  -27.9714   27.8753 C   0  0  0  0  0  0  0  0  0  0  0  0
  -11.1704  -27.0845   26.8756 C   0  0  0  0  0  0  0  0  0  0  0  0
  -10.8769  -25.7526   27.4994 C   0  0  0  0  0  0  0  0  0  0  0  0
  -12.1339  -25.0308   27.7580 N   0  0  0  0  0  0  0  0  0  0  0  0
  -12.0310  -24.1792   28.8447 C   0  0  0  0  0  0  0  0  0  0  0  0
  -11.9181  -22.4604   28.7524 S   0  0  0  0  0  0  0  0  0  0  0  0
  -12.1297  -22.1657   30.3613 N   0  0  0  0  0  0  0  0  0  0  0  0
  -12.0334  -23.3205   31.0150 C   0  0  0  0  0  0  0  0  0  0  0  0
  -12.1187  -23.3158   32.4999 C   0  0  0  0  0  0  0  0  0  0  0  0
  -11.8291  -24.4717   30.1917 C   0  0  0  0  0  0  0  0  0  0  0  0
  -11.4652  -25.7473   30.7123 C   0  0  0  0  0  0  0  0  0  0  0  0
  -11.0751  -26.7579   31.1253 N   0  0  0  0  0  0  0  0  0  0  0  0
  -12.8800  -24.5728   26.5160 C   0  0  1  0  0  0  0  0  0  0  0  0
  -11.9512  -24.0181   25.4541 C   0  0  0  0  0  0  0  0  0  0  0  0
  -13.9383  -25.5790   25.8889 C   0  0  0  0  0  0  0  0  0  0  0  0
  -13.8037  -26.0615   24.8329 O   0  0  0  0  0  0  0  0  0  0  0  0
  -15.1263  -25.6583   26.8876 N   0  0  0  0  0  0  0  0  0  0  0  0
  -16.4324  -26.2704   26.7492 C   0  0  0  0  0  0  0  0  0  0  0  0
  -16.5521  -27.6552   26.1758 C   0  0  0  0  0  0  0  0  0  0  0  0
  -16.2697  -28.8047   26.9243 C   0  0  0  0  0  0  0  0  0  0  0  0
  -16.5526  -30.0778   26.4195 C   0  0  0  0  0  0  0  0  0  0  0  0
  -17.1368  -30.2199   25.1640 C   0  0  0  0  0  0  0  0  0  0  0  0
  -17.4214  -29.0892   24.4047 C   0  0  0  0  0  0  0  0  0  0  0  0
  -17.1156  -27.8188   24.8986 C   0  0  0  0  0  0  0  0  0  0  0  0
  1  2  1  0
  2  3  1  0
  3  4  1  0
  4  5  1  0
  5  6  1  0
  6  7  1  0
  7  8  2  0
  8  9  1  0
  8 10  1  0
 10 11  1  0
 11 12  3  0
  4 13  1  0
 13 14  1  6
 13 15  1  0
 15 16  2  0
 15 17  1  0
 17 18  1  0
 18 19  1  0
 19 20  2  0
 20 21  1  0
 21 22  2  0
 22 23  1  0
 23 24  2  0
 10  5  2  0
 24 19  1  0
M  END
>  <ref_mols>  (832) 
7gop-a

>  <gnina_score>  (832) 
5.11

>  <smina_score_min>  (832) 
-5.01

>  <ref_pdb>  (832) 
7gop-a

>  <inspiration_score>  (832) 
None

>  <inchikey>  (832) 
ROMIBIXDEFPQBZ-AWEZNQCLSA-N

>  <tags>  (832) 
BulkDock Fragalysis export,openbind_d68ev3c_c2_elabs_scored,openbind_d68ev3c_c2_elabs_scored_4.5plus,openbind_d68ev3c_c2_elabs,openbind_d68ev3c_c2_elabs_scored_5plus,syndirella_product,openbind_d68ev3c_c2_elabs_scored_top80percent,syndirella_placed

>  <smiles>  (832) 
CCCN(c1snc(C)c1C#N)[C@@H](C)C(=O)NCc1ccccc1

>  <subsites>  (832) 
None

>  <rmsd(smina/fragmenstein)>  (832) 
0.361

>  <alias>  (832) 
None

>  <energy_score>  (832) 
-22.667701

>  <HIPPO Pose ID>  (832) 
86437

>  <distance_score>  (832) 
0.944067

>  <HIPPO Compound ID>  (832) 
121754

>  <gnina_score_min>  (832) 
5.138

>  <name>  (832) 
P86437

>  <exports>  (832) 
['/opt/xchem-fragalysis-2/maxwin/BulkDock/OUTPUTS/openbind_d68ev3c_c2_elabs_1LOTQJ3.sdf', '/opt/xchem-fragalysis-2/maxwin/BulkDock/OUTPUTS/openbind_d68ev3c_c2_elabs_1LSYEHW.sdf', '/opt/xchem-fragalysis-2/maxwin/BulkDock/OUTPUTS/openbind_d68ev3c_c2_elabs_1LSYI5W.sdf']

$$$$
P86438
     RDKit          3D

 24 25  0  0  0  0  0  0  0  0999 V2000
   -9.6560  -27.5000   30.2000 C   0  0  0  0  0  0  0  0  0  0  0  0
   -9.9530  -26.7257   28.9230 C   0  0  0  0  0  0  0  0  0  0  0  0
  -11.4260  -26.7950   28.5566 C   0  0  0  0  0  0  0  0  0  0  0  0
  -11.8924  -25.5304   27.9981 N   0  0  0  0  0  0  0  0  0  0  0  0
  -12.0513  -25.4844   26.5232 C   0  0  0  0  0  0  0  0  0  0  0  0
  -13.5288  -25.4613   26.0434 C   0  0  0  0  0  0  0  0  0  0  0  0
  -13.9508  -24.5716   25.4113 O   0  0  0  0  0  0  0  0  0  0  0  0
  -14.1985  -26.8127   26.4656 N   0  0  0  0  0  0  0  0  0  0  0  0
  -15.5263  -27.2831   26.2761 C   0  0  0  0  0  0  0  0  0  0  0  0
  -15.8178  -28.4788   26.9701 C   0  0  0  0  0  0  0  0  0  0  0  0
  -17.0815  -29.0787   26.9500 C   0  0  0  0  0  0  0  0  0  0  0  0
  -18.1039  -28.5193   26.1960 C   0  0  0  0  0  0  0  0  0  0  0  0
  -19.4781  -29.1176   26.1906 C   0  0  0  0  0  0  0  0  0  0  0  0
  -17.8280  -27.3602   25.4684 C   0  0  0  0  0  0  0  0  0  0  0  0
  -16.5525  -26.7574   25.4825 C   0  0  0  0  0  0  0  0  0  0  0  0
  -16.3820  -25.4873   24.3514 Cl  0  0  0  0  0  0  0  0  0  0  0  0
  -11.8976  -24.3855   28.7851 C   0  0  0  0  0  0  0  0  0  0  0  0
  -11.8641  -22.7724   28.1489 S   0  0  0  0  0  0  0  0  0  0  0  0
  -12.0400  -21.9679   29.5817 N   0  0  0  0  0  0  0  0  0  0  0  0
  -12.0086  -22.8483   30.5735 C   0  0  0  0  0  0  0  0  0  0  0  0
  -12.1153  -22.3583   31.9810 C   0  0  0  0  0  0  0  0  0  0  0  0
  -11.8317  -24.2052   30.1695 C   0  0  0  0  0  0  0  0  0  0  0  0
  -11.5609  -25.1762   31.1654 C   0  0  0  0  0  0  0  0  0  0  0  0
  -11.2312  -25.8435   32.0510 N   0  0  0  0  0  0  0  0  0  0  0  0
  1  2  1  0
  2  3  1  0
  3  4  1  0
  4  5  1  0
  5  6  1  0
  6  7  2  0
  6  8  1  0
  8  9  1  0
  9 10  2  0
 10 11  1  0
 11 12  2  0
 12 13  1  0
 12 14  1  0
 14 15  2  0
 15 16  1  0
  4 17  1  0
 17 18  1  0
 18 19  1  0
 19 20  2  0
 20 21  1  0
 20 22  1  0
 22 23  1  0
 23 24  3  0
 15  9  1  0
 22 17  2  0
M  END
>  <ref_mols>  (833) 
7gop-a

>  <gnina_score>  (833) 
5.265

>  <smina_score_min>  (833) 
-4.582

>  <ref_pdb>  (833) 
7gop-a

>  <inspiration_score>  (833) 
None

>  <inchikey>  (833) 
BNHATIXAMJKCFS-UHFFFAOYSA-N

>  <tags>  (833) 
BulkDock Fragalysis export,openbind_d68ev3c_c2_elabs_scored,openbind_d68ev3c_c2_elabs_scored_4.5plus,openbind_d68ev3c_c2_elabs,openbind_d68ev3c_c2_elabs_scored_5plus,syndirella_product,openbind_d68ev3c_c2_elabs_scored_top80percent,syndirella_placed

>  <smiles>  (833) 
CCCN(CC(=O)Nc1ccc(C)cc1Cl)c1snc(C)c1C#N

>  <subsites>  (833) 
None

>  <rmsd(smina/fragmenstein)>  (833) 
1.104

>  <alias>  (833) 
None

>  <energy_score>  (833) 
-27.336441

>  <HIPPO Pose ID>  (833) 
86438

>  <distance_score>  (833) 
0.882076

>  <HIPPO Compound ID>  (833) 
121757

>  <gnina_score_min>  (833) 
5.12

>  <name>  (833) 
P86438

>  <exports>  (833) 
['/opt/xchem-fragalysis-2/maxwin/BulkDock/OUTPUTS/openbind_d68ev3c_c2_elabs_1LOTQJ3.sdf', '/opt/xchem-fragalysis-2/maxwin/BulkDock/OUTPUTS/openbind_d68ev3c_c2_elabs_1LSYEHW.sdf', '/opt/xchem-fragalysis-2/maxwin/BulkDock/OUTPUTS/openbind_d68ev3c_c2_elabs_1LSYI5W.sdf']

$$$$
P86439
     RDKit          3D

 24 24  0  0  0  0  0  0  0  0999 V2000
  -10.6182  -28.3262   30.7732 C   0  0  0  0  0  0  0  0  0  0  0  0
  -10.1853  -27.5062   29.5842 C   0  0  0  0  0  0  0  0  0  0  0  0
  -11.3447  -27.2492   28.6606 C   0  0  0  0  0  0  0  0  0  0  0  0
  -11.4745  -25.8212   28.4009 N   0  0  0  0  0  0  0  0  0  0  0  0
  -11.9060  -25.0797   29.4979 C   0  0  0  0  0  0  0  0  0  0  0  0
  -13.4211  -24.4012   29.5390 S   0  0  0  0  0  0  0  0  0  0  0  0
  -13.4397  -23.6522   30.9667 N   0  0  0  0  0  0  0  0  0  0  0  0
  -12.3549  -24.0445   31.5999 C   0  0  0  0  0  0  0  0  0  0  0  0
  -12.2409  -23.6404   33.0158 C   0  0  0  0  0  0  0  0  0  0  0  0
  -11.4223  -24.7886   30.7886 C   0  0  0  0  0  0  0  0  0  0  0  0
  -10.1695  -25.1067   31.3614 C   0  0  0  0  0  0  0  0  0  0  0  0
   -9.1779  -25.3393   31.9096 N   0  0  0  0  0  0  0  0  0  0  0  0
  -11.7036  -25.5649   26.9206 C   0  0  2  0  0  0  0  0  0  0  0  0
  -11.2459  -24.2348   26.3376 C   0  0  0  0  0  0  0  0  0  0  0  0
  -11.9128  -22.9875   26.8825 C   0  0  0  0  0  0  0  0  0  0  0  0
  -10.8380  -22.4523   28.2065 S   0  0  0  0  0  0  0  0  0  0  0  0
  -11.8223  -21.5286   29.3289 C   0  0  0  0  0  0  0  0  0  0  0  0
  -12.9798  -26.0378   26.1404 C   0  0  0  0  0  0  0  0  0  0  0  0
  -12.8454  -26.4409   25.0578 O   0  0  0  0  0  0  0  0  0  0  0  0
  -14.2499  -25.7811   26.9517 N   0  0  0  0  0  0  0  0  0  0  0  0
  -15.6458  -25.8754   26.5718 C   0  0  0  0  0  0  0  0  0  0  0  0
  -16.1382  -27.2654   26.1920 C   0  0  0  0  0  0  0  0  0  0  0  0
  -15.9757  -28.1639   27.2874 O   0  0  0  0  0  0  0  0  0  0  0  0
  -16.5592  -29.4319   27.0179 C   0  0  0  0  0  0  0  0  0  0  0  0
  1  2  1  0
  2  3  1  0
  3  4  1  0
  4  5  1  0
  5  6  1  0
  6  7  1  0
  7  8  2  0
  8  9  1  0
  8 10  1  0
 10 11  1  0
 11 12  3  0
  4 13  1  0
 13 14  1  1
 14 15  1  0
 15 16  1  0
 16 17  1  0
 13 18  1  0
 18 19  2  0
 18 20  1  0
 20 21  1  0
 21 22  1  0
 22 23  1  0
 23 24  1  0
 10  5  2  0
M  END
>  <ref_mols>  (834) 
7gop-a

>  <gnina_score>  (834) 
5.292

>  <smina_score_min>  (834) 
-1.402

>  <ref_pdb>  (834) 
7gop-a

>  <inspiration_score>  (834) 
None

>  <inchikey>  (834) 
JQQAWAWWYJEOFN-CQSZACIVSA-N

>  <tags>  (834) 
BulkDock Fragalysis export,openbind_d68ev3c_c2_elabs_scored,openbind_d68ev3c_c2_elabs_scored_4.5plus,openbind_d68ev3c_c2_elabs,openbind_d68ev3c_c2_elabs_scored_5plus,syndirella_product,openbind_d68ev3c_c2_elabs_scored_top80percent,syndirella_placed

>  <smiles>  (834) 
CCCN(c1snc(C)c1C#N)[C@H](CCSC)C(=O)NCCOC

>  <subsites>  (834) 
None

>  <rmsd(smina/fragmenstein)>  (834) 
1.05

>  <alias>  (834) 
None

>  <energy_score>  (834) 
-26.321161

>  <HIPPO Pose ID>  (834) 
86439

>  <distance_score>  (834) 
1.349904

>  <HIPPO Compound ID>  (834) 
121760

>  <gnina_score_min>  (834) 
5.166

>  <name>  (834) 
P86439

>  <exports>  (834) 
['/opt/xchem-fragalysis-2/maxwin/BulkDock/OUTPUTS/openbind_d68ev3c_c2_elabs_1LOTQJ3.sdf', '/opt/xchem-fragalysis-2/maxwin/BulkDock/OUTPUTS/openbind_d68ev3c_c2_elabs_1LSYEHW.sdf', '/opt/xchem-fragalysis-2/maxwin/BulkDock/OUTPUTS/openbind_d68ev3c_c2_elabs_1LSYI5W.sdf']

$$$$
P86443
     RDKit          3D

 24 25  0  0  0  0  0  0  0  0999 V2000
  -10.9690  -24.7349   25.3591 C   0  0  0  0  0  0  0  0  0  0  0  0
  -11.2282  -26.2163   25.5950 C   0  0  0  0  0  0  0  0  0  0  0  0
  -11.1468  -26.5336   27.0877 C   0  0  0  0  0  0  0  0  0  0  0  0
  -12.2693  -25.9571   27.8353 N   0  0  0  0  0  0  0  0  0  0  0  0
  -13.5797  -25.9313   27.1246 C   0  0  0  0  0  0  0  0  0  0  0  0
  -14.2620  -27.3311   26.8935 C   0  0  0  0  0  0  0  0  0  0  0  0
  -15.1513  -27.4430   26.1315 O   0  0  0  0  0  0  0  0  0  0  0  0
  -13.6267  -28.3854   27.8872 N   0  0  0  0  0  0  0  0  0  0  0  0
  -14.0200  -29.7209   28.1935 C   0  0  0  0  0  0  0  0  0  0  0  0
  -13.3032  -30.3784   29.2017 C   0  0  0  0  0  0  0  0  0  0  0  0
  -13.6517  -31.6688   29.6047 C   0  0  0  0  0  0  0  0  0  0  0  0
  -14.7280  -32.3050   29.0018 C   0  0  0  0  0  0  0  0  0  0  0  0
  -15.0579  -33.5449   29.3832 F   0  0  0  0  0  0  0  0  0  0  0  0
  -15.4650  -31.6729   28.0117 C   0  0  0  0  0  0  0  0  0  0  0  0
  -15.1140  -30.3835   27.6188 C   0  0  0  0  0  0  0  0  0  0  0  0
  -15.8456  -29.8128   26.6557 F   0  0  0  0  0  0  0  0  0  0  0  0
  -12.0000  -24.9068   28.6984 C   0  0  0  0  0  0  0  0  0  0  0  0
  -12.0233  -23.2207   28.3260 S   0  0  0  0  0  0  0  0  0  0  0  0
  -12.0451  -22.6775   29.8932 N   0  0  0  0  0  0  0  0  0  0  0  0
  -11.7986  -23.7152   30.6958 C   0  0  0  0  0  0  0  0  0  0  0  0
  -11.7059  -23.4771   32.1631 C   0  0  0  0  0  0  0  0  0  0  0  0
  -11.6354  -24.9744   30.0336 C   0  0  0  0  0  0  0  0  0  0  0  0
  -11.2400  -26.1965   30.6360 C   0  0  0  0  0  0  0  0  0  0  0  0
  -10.9201  -27.2428   31.0154 N   0  0  0  0  0  0  0  0  0  0  0  0
  1  2  1  0
  2  3  1  0
  3  4  1  0
  4  5  1  0
  5  6  1  0
  6  7  2  0
  6  8  1  0
  8  9  1  0
  9 10  2  0
 10 11  1  0
 11 12  2  0
 12 13  1  0
 12 14  1  0
 14 15  2  0
 15 16  1  0
  4 17  1  0
 17 18  1  0
 18 19  1  0
 19 20  2  0
 20 21  1  0
 20 22  1  0
 22 23  1  0
 23 24  3  0
 15  9  1  0
 22 17  2  0
M  END
>  <ref_mols>  (835) 
7gop-a

>  <gnina_score>  (835) 
5.042

>  <smina_score_min>  (835) 
-2.936

>  <ref_pdb>  (835) 
7gop-a

>  <inspiration_score>  (835) 
None

>  <inchikey>  (835) 
OCMATVFNJOWWBY-UHFFFAOYSA-N

>  <tags>  (835) 
BulkDock Fragalysis export,openbind_d68ev3c_c2_elabs_scored,openbind_d68ev3c_c2_elabs_scored_4.5plus,openbind_d68ev3c_c2_elabs,openbind_d68ev3c_c2_elabs_scored_5plus,syndirella_product,openbind_d68ev3c_c2_elabs_scored_top80percent,syndirella_placed

>  <smiles>  (835) 
CCCN(CC(=O)Nc1ccc(F)cc1F)c1snc(C)c1C#N

>  <subsites>  (835) 
None

>  <rmsd(smina/fragmenstein)>  (835) 
0.765

>  <alias>  (835) 
None

>  <energy_score>  (835) 
-56.762547

>  <HIPPO Pose ID>  (835) 
86443

>  <distance_score>  (835) 
1.757181

>  <HIPPO Compound ID>  (835) 
121765

>  <gnina_score_min>  (835) 
5.104

>  <name>  (835) 
P86443

>  <exports>  (835) 
['/opt/xchem-fragalysis-2/maxwin/BulkDock/OUTPUTS/openbind_d68ev3c_c2_elabs_1LOTQJ3.sdf', '/opt/xchem-fragalysis-2/maxwin/BulkDock/OUTPUTS/openbind_d68ev3c_c2_elabs_1LSYEHW.sdf', '/opt/xchem-fragalysis-2/maxwin/BulkDock/OUTPUTS/openbind_d68ev3c_c2_elabs_1LSYI5W.sdf']

$$$$
P86445
     RDKit          3D

 24 25  0  0  0  0  0  0  0  0999 V2000
  -14.6846  -25.3916   24.8757 C   0  0  0  0  0  0  0  0  0  0  0  0
  -13.5578  -24.9042   25.6103 N   0  0  0  0  0  0  0  0  0  0  0  0
  -12.0782  -25.3906   25.6324 C   0  0  0  0  0  0  0  0  0  0  0  0
  -11.5752  -26.3094   25.1133 O   0  0  0  0  0  0  0  0  0  0  0  0
  -11.3171  -24.4754   26.5859 C   0  0  0  0  0  0  0  0  0  0  0  0
  -11.6320  -24.8111   27.9851 N   0  0  0  0  0  0  0  0  0  0  0  0
  -11.7038  -23.8516   28.9719 C   0  0  0  0  0  0  0  0  0  0  0  0
  -11.7134  -22.1778   28.6244 S   0  0  0  0  0  0  0  0  0  0  0  0
  -11.9821  -21.6429   30.1397 N   0  0  0  0  0  0  0  0  0  0  0  0
  -12.0301  -22.6689   30.9739 C   0  0  0  0  0  0  0  0  0  0  0  0
  -12.3239  -22.4241   32.4155 C   0  0  0  0  0  0  0  0  0  0  0  0
  -11.7638  -23.9285   30.3700 C   0  0  0  0  0  0  0  0  0  0  0  0
  -11.5234  -25.0403   31.2193 C   0  0  0  0  0  0  0  0  0  0  0  0
  -11.2051  -25.8345   31.9981 N   0  0  0  0  0  0  0  0  0  0  0  0
  -11.2566  -26.1279   28.3327 C   0  0  0  0  0  0  0  0  0  0  0  0
  -10.0748  -26.3483   29.0312 C   0  0  0  0  0  0  0  0  0  0  0  0
   -9.1403  -25.3867   29.0474 F   0  0  0  0  0  0  0  0  0  0  0  0
   -9.9888  -27.4213   29.8952 C   0  0  0  0  0  0  0  0  0  0  0  0
   -8.9250  -27.5652   30.6771 F   0  0  0  0  0  0  0  0  0  0  0  0
  -11.0374  -28.3065   30.0248 C   0  0  0  0  0  0  0  0  0  0  0  0
  -12.0578  -28.2504   29.0949 C   0  0  0  0  0  0  0  0  0  0  0  0
  -12.9970  -29.2093   29.0866 F   0  0  0  0  0  0  0  0  0  0  0  0
  -12.1823  -27.1629   28.2548 C   0  0  0  0  0  0  0  0  0  0  0  0
  -13.2981  -27.0353   27.5221 F   0  0  0  0  0  0  0  0  0  0  0  0
  1  2  1  0
  2  3  1  0
  3  4  2  0
  3  5  1  0
  5  6  1  0
  6  7  1  0
  7  8  1  0
  8  9  1  0
  9 10  2  0
 10 11  1  0
 10 12  1  0
 12 13  1  0
 13 14  3  0
  6 15  1  0
 15 16  2  0
 16 17  1  0
 16 18  1  0
 18 19  1  0
 18 20  2  0
 20 21  1  0
 21 22  1  0
 21 23  2  0
 23 24  1  0
 12  7  2  0
 23 15  1  0
M  END
>  <ref_mols>  (836) 
7gop-a

>  <gnina_score>  (836) 
5.981

>  <smina_score_min>  (836) 
-3.801

>  <ref_pdb>  (836) 
7gop-a

>  <inspiration_score>  (836) 
None

>  <inchikey>  (836) 
FTOGTRVRSNYHEW-UHFFFAOYSA-N

>  <tags>  (836) 
BulkDock Fragalysis export,openbind_d68ev3c_c2_elabs_scored,openbind_d68ev3c_c2_elabs_scored_4.5plus,openbind_d68ev3c_c2_elabs,openbind_d68ev3c_c2_elabs_scored_5plus,syndirella_product,openbind_d68ev3c_c2_elabs_scored_top80percent,syndirella_placed

>  <smiles>  (836) 
CNC(=O)CN(c1snc(C)c1C#N)c1c(F)c(F)cc(F)c1F

>  <subsites>  (836) 
None

>  <rmsd(smina/fragmenstein)>  (836) 
0.452

>  <alias>  (836) 
None

>  <energy_score>  (836) 
-2.515901

>  <HIPPO Pose ID>  (836) 
86445

>  <distance_score>  (836) 
1.212444

>  <HIPPO Compound ID>  (836) 
121771

>  <gnina_score_min>  (836) 
5.918

>  <name>  (836) 
P86445

>  <exports>  (836) 
['/opt/xchem-fragalysis-2/maxwin/BulkDock/OUTPUTS/openbind_d68ev3c_c2_elabs_1LOTQJ3.sdf', '/opt/xchem-fragalysis-2/maxwin/BulkDock/OUTPUTS/openbind_d68ev3c_c2_elabs_1LSYEHW.sdf', '/opt/xchem-fragalysis-2/maxwin/BulkDock/OUTPUTS/openbind_d68ev3c_c2_elabs_1LSYI5W.sdf']

$$$$
P86449
     RDKit          3D

 24 26  0  0  0  0  0  0  0  0999 V2000
  -12.4045  -22.6180   32.3997 C   0  0  0  0  0  0  0  0  0  0  0  0
  -12.0338  -22.9496   30.9944 C   0  0  0  0  0  0  0  0  0  0  0  0
  -12.2802  -22.0479   30.0500 N   0  0  0  0  0  0  0  0  0  0  0  0
  -11.8176  -22.6484   28.5875 S   0  0  0  0  0  0  0  0  0  0  0  0
  -11.3860  -24.2277   29.1455 C   0  0  0  0  0  0  0  0  0  0  0  0
  -11.0318  -25.2257   28.2623 N   0  0  0  0  0  0  0  0  0  0  0  0
  -10.4338  -26.4569   28.7784 C   0  0  0  0  0  0  0  0  0  0  0  0
  -11.5534  -27.3923   29.2755 C   0  0  0  0  0  0  0  0  0  0  0  0
  -12.6390  -27.7138   28.2869 N   0  0  0  0  0  0  0  0  0  0  0  0
  -12.8252  -29.1956   28.3145 C   0  0  0  0  0  0  0  0  0  0  0  0
  -14.2547  -29.8065   28.1363 C   0  0  0  0  0  0  0  0  0  0  0  0
  -14.4829  -30.8865   28.5195 O   0  0  0  0  0  0  0  0  0  0  0  0
  -15.1403  -28.8163   27.3366 N   0  0  0  0  0  0  0  0  0  0  0  0
  -16.5131  -28.9140   26.9287 C   0  0  0  0  0  0  0  0  0  0  0  0
  -16.8307  -29.9580   25.8594 C   0  0  0  0  0  0  0  0  0  0  0  0
  -15.9297  -30.9731   25.8952 F   0  0  0  0  0  0  0  0  0  0  0  0
  -16.6932  -29.3812   24.6323 F   0  0  0  0  0  0  0  0  0  0  0  0
  -17.5825  -28.6365   27.9719 C   0  0  0  0  0  0  0  0  0  0  0  0
  -17.3355  -27.6358   26.8873 C   0  0  0  0  0  0  0  0  0  0  0  0
  -12.3208  -27.0153   27.0093 C   0  0  0  0  0  0  0  0  0  0  0  0
  -11.9925  -25.4945   27.1598 C   0  0  0  0  0  0  0  0  0  0  0  0
  -11.4173  -24.1527   30.5371 C   0  0  0  0  0  0  0  0  0  0  0  0
  -10.9178  -25.1265   31.4448 C   0  0  0  0  0  0  0  0  0  0  0  0
  -10.4801  -25.8991   32.1878 N   0  0  0  0  0  0  0  0  0  0  0  0
  1  2  1  0
  2  3  2  0
  3  4  1  0
  4  5  1  0
  5  6  1  0
  6  7  1  0
  7  8  1  0
  8  9  1  0
  9 10  1  0
 10 11  1  0
 11 12  2  0
 11 13  1  0
 13 14  1  0
 14 15  1  0
 15 16  1  0
 15 17  1  0
 14 18  1  0
 18 19  1  0
  9 20  1  0
 20 21  1  0
  5 22  2  0
 22 23  1  0
 23 24  3  0
 22  2  1  0
 21  6  1  0
 19 14  1  0
M  END
>  <ref_mols>  (837) 
7gop-a

>  <gnina_score>  (837) 
4.968

>  <smina_score_min>  (837) 
-4.403

>  <ref_pdb>  (837) 
7gop-a

>  <inspiration_score>  (837) 
None

>  <inchikey>  (837) 
ORWDHTLTODASBB-UHFFFAOYSA-N

>  <tags>  (837) 
BulkDock Fragalysis export,openbind_d68ev3c_c2_elabs_scored,openbind_d68ev3c_c2_elabs_scored_4.5plus,openbind_d68ev3c_c2_elabs,openbind_d68ev3c_c2_elabs_scored_5plus,syndirella_product,openbind_d68ev3c_c2_elabs_scored_top80percent,syndirella_placed

>  <smiles>  (837) 
Cc1nsc(N2CCN(CC(=O)NC3(C(F)F)CC3)CC2)c1C#N

>  <subsites>  (837) 
None

>  <rmsd(smina/fragmenstein)>  (837) 
1.564

>  <alias>  (837) 
None

>  <energy_score>  (837) 
-25.178897

>  <HIPPO Pose ID>  (837) 
86449

>  <distance_score>  (837) 
1.612751

>  <HIPPO Compound ID>  (837) 
121777

>  <gnina_score_min>  (837) 
5.072

>  <name>  (837) 
P86449

>  <exports>  (837) 
['/opt/xchem-fragalysis-2/maxwin/BulkDock/OUTPUTS/openbind_d68ev3c_c2_elabs_1LOTQJ3.sdf', '/opt/xchem-fragalysis-2/maxwin/BulkDock/OUTPUTS/openbind_d68ev3c_c2_elabs_1LSYEHW.sdf', '/opt/xchem-fragalysis-2/maxwin/BulkDock/OUTPUTS/openbind_d68ev3c_c2_elabs_1LSYI5W.sdf']

$$$$
P86452
     RDKit          3D

 24 26  0  0  0  0  0  0  0  0999 V2000
  -12.4817  -22.5835   32.4102 C   0  0  0  0  0  0  0  0  0  0  0  0
  -12.1164  -23.0253   31.0329 C   0  0  0  0  0  0  0  0  0  0  0  0
  -12.2668  -22.1574   30.0414 N   0  0  0  0  0  0  0  0  0  0  0  0
  -11.7666  -22.8594   28.6489 S   0  0  0  0  0  0  0  0  0  0  0  0
  -11.5007  -24.4665   29.2675 C   0  0  0  0  0  0  0  0  0  0  0  0
  -11.2351  -25.5593   28.4467 N   0  0  0  0  0  0  0  0  0  0  0  0
  -11.2087  -25.4203   26.9812 C   0  0  0  0  0  0  0  0  0  0  0  0
  -12.5593  -25.3762   26.2346 C   0  0  2  0  0  0  0  0  0  0  0  0
  -12.7759  -24.0309   25.5751 C   0  0  0  0  0  0  0  0  0  0  0  0
  -13.9209  -24.0675   24.6961 N   0  0  0  0  0  0  0  0  0  0  0  0
  -14.0659  -22.9444   23.8174 C   0  0  0  0  0  0  0  0  0  0  0  0
  -14.9963  -24.9137   24.9304 C   0  0  0  0  0  0  0  0  0  0  0  0
  -15.9930  -24.9937   24.2132 O   0  0  0  0  0  0  0  0  0  0  0  0
  -14.8518  -25.8257   26.1573 C   0  0  0  0  0  0  0  0  0  0  0  0
  -13.7352  -25.6343   27.0191 O   0  0  0  0  0  0  0  0  0  0  0  0
  -11.3383  -26.9025   28.8915 C   0  0  0  0  0  0  0  0  0  0  0  0
  -12.2236  -27.8338   28.3238 C   0  0  0  0  0  0  0  0  0  0  0  0
  -12.5270  -29.0571   28.9308 C   0  0  0  0  0  0  0  0  0  0  0  0
  -11.9136  -29.3819   30.1321 C   0  0  0  0  0  0  0  0  0  0  0  0
  -10.9103  -28.5451   30.6175 C   0  0  0  0  0  0  0  0  0  0  0  0
  -10.5848  -27.3604   29.9625 C   0  0  0  0  0  0  0  0  0  0  0  0
  -11.5696  -24.2950   30.6550 C   0  0  0  0  0  0  0  0  0  0  0  0
  -11.0965  -25.1685   31.6723 C   0  0  0  0  0  0  0  0  0  0  0  0
  -10.6303  -25.7300   32.5736 N   0  0  0  0  0  0  0  0  0  0  0  0
  1  2  1  0
  2  3  2  0
  3  4  1  0
  4  5  1  0
  5  6  1  0
  6  7  1  0
  8  7  1  1
  8  9  1  0
  9 10  1  0
 10 11  1  0
 10 12  1  0
 12 13  2  0
 12 14  1  0
 14 15  1  0
  6 16  1  0
 16 17  2  0
 17 18  1  0
 18 19  2  0
 19 20  1  0
 20 21  2  0
  5 22  2  0
 22 23  1  0
 23 24  3  0
 22  2  1  0
 15  8  1  0
 21 16  1  0
M  END
>  <ref_mols>  (838) 
7gop-a

>  <gnina_score>  (838) 
5.058

>  <smina_score_min>  (838) 
-3.611

>  <ref_pdb>  (838) 
7gop-a

>  <inspiration_score>  (838) 
None

>  <inchikey>  (838) 
VMAHPQLXZXSNPY-AWEZNQCLSA-N

>  <tags>  (838) 
BulkDock Fragalysis export,openbind_d68ev3c_c2_elabs_scored,openbind_d68ev3c_c2_elabs_scored_4.5plus,openbind_d68ev3c_c2_elabs,openbind_d68ev3c_c2_elabs_scored_5plus,syndirella_product,openbind_d68ev3c_c2_elabs_scored_top80percent,syndirella_placed

>  <smiles>  (838) 
Cc1nsc(N(C[C@@H]2CN(C)C(=O)CO2)c2ccccc2)c1C#N

>  <subsites>  (838) 
None

>  <rmsd(smina/fragmenstein)>  (838) 
0.848

>  <alias>  (838) 
None

>  <energy_score>  (838) 
-21.977877

>  <HIPPO Pose ID>  (838) 
86452

>  <distance_score>  (838) 
0.789182

>  <HIPPO Compound ID>  (838) 
121790

>  <gnina_score_min>  (838) 
5.249

>  <name>  (838) 
P86452

>  <exports>  (838) 
['/opt/xchem-fragalysis-2/maxwin/BulkDock/OUTPUTS/openbind_d68ev3c_c2_elabs_1LOTQJ3.sdf', '/opt/xchem-fragalysis-2/maxwin/BulkDock/OUTPUTS/openbind_d68ev3c_c2_elabs_1LSYEHW.sdf', '/opt/xchem-fragalysis-2/maxwin/BulkDock/OUTPUTS/openbind_d68ev3c_c2_elabs_1LSYI5W.sdf']

$$$$
P86456
     RDKit          3D

 24 26  0  0  0  0  0  0  0  0999 V2000
  -12.2923  -22.2979   32.2127 C   0  0  0  0  0  0  0  0  0  0  0  0
  -12.0420  -22.6898   30.7933 C   0  0  0  0  0  0  0  0  0  0  0  0
  -12.0394  -21.7502   29.8571 N   0  0  0  0  0  0  0  0  0  0  0  0
  -11.7545  -22.4396   28.3938 S   0  0  0  0  0  0  0  0  0  0  0  0
  -11.6886  -24.0735   28.9246 C   0  0  0  0  0  0  0  0  0  0  0  0
  -11.5576  -25.1476   28.0587 N   0  0  0  0  0  0  0  0  0  0  0  0
  -11.1066  -24.9745   26.6657 C   0  0  0  0  0  0  0  0  0  0  0  0
  -12.2335  -24.4765   25.7593 C   0  0  0  0  0  0  0  0  0  0  0  0
  -12.0806  -23.6461   24.9543 O   0  0  0  0  0  0  0  0  0  0  0  0
  -13.4738  -25.3499   26.0783 N   0  0  0  0  0  0  0  0  0  0  0  0
  -14.7962  -25.3141   25.5399 C   0  0  0  0  0  0  0  0  0  0  0  0
  -15.8193  -26.0914   26.3478 C   0  0  0  0  0  0  0  0  0  0  0  0
  -16.9952  -26.2257   25.3978 C   0  0  0  0  0  0  0  0  0  0  0  0
  -16.3478  -26.4518   24.0396 C   0  0  0  0  0  0  0  0  0  0  0  0
  -14.9225  -25.9124   24.1597 C   0  0  0  0  0  0  0  0  0  0  0  0
  -11.1179  -26.3749   28.5795 C   0  0  0  0  0  0  0  0  0  0  0  0
   -9.9411  -26.4191   29.3124 C   0  0  0  0  0  0  0  0  0  0  0  0
   -9.7721  -27.4158   30.2517 C   0  0  0  0  0  0  0  0  0  0  0  0
  -10.7531  -28.3729   30.4298 C   0  0  0  0  0  0  0  0  0  0  0  0
  -11.8085  -28.4500   29.5294 C   0  0  0  0  0  0  0  0  0  0  0  0
  -11.9751  -27.4672   28.5753 C   0  0  0  0  0  0  0  0  0  0  0  0
  -11.7660  -24.0061   30.3233 C   0  0  0  0  0  0  0  0  0  0  0  0
  -11.5127  -25.0220   31.2911 C   0  0  0  0  0  0  0  0  0  0  0  0
  -11.1858  -25.6657   32.1980 N   0  0  0  0  0  0  0  0  0  0  0  0
  1  2  1  0
  2  3  2  0
  3  4  1  0
  4  5  1  0
  5  6  1  0
  6  7  1  0
  7  8  1  0
  8  9  2  0
  8 10  1  0
 10 11  1  0
 11 12  1  0
 12 13  1  0
 13 14  1  0
 14 15  1  0
  6 16  1  0
 16 17  2  0
 17 18  1  0
 18 19  2  0
 19 20  1  0
 20 21  2  0
  5 22  2  0
 22 23  1  0
 23 24  3  0
 22  2  1  0
 15 11  1  0
 21 16  1  0
M  END
>  <ref_mols>  (839) 
7gop-a

>  <gnina_score>  (839) 
5.338

>  <smina_score_min>  (839) 
-4.547

>  <ref_pdb>  (839) 
7gop-a

>  <inspiration_score>  (839) 
None

>  <inchikey>  (839) 
BIBYKJXXZVWVID-UHFFFAOYSA-N

>  <tags>  (839) 
BulkDock Fragalysis export,openbind_d68ev3c_c2_elabs_scored,openbind_d68ev3c_c2_elabs_scored_4.5plus,openbind_d68ev3c_c2_elabs,openbind_d68ev3c_c2_elabs_scored_5plus,syndirella_product,openbind_d68ev3c_c2_elabs_scored_top80percent,syndirella_placed

>  <smiles>  (839) 
Cc1nsc(N(CC(=O)NC2CCCC2)c2ccccc2)c1C#N

>  <subsites>  (839) 
None

>  <rmsd(smina/fragmenstein)>  (839) 
0.364

>  <alias>  (839) 
None

>  <energy_score>  (839) 
-14.810428

>  <HIPPO Pose ID>  (839) 
86456

>  <distance_score>  (839) 
0.942069

>  <HIPPO Compound ID>  (839) 
121803

>  <gnina_score_min>  (839) 
5.24

>  <name>  (839) 
P86456

>  <exports>  (839) 
['/opt/xchem-fragalysis-2/maxwin/BulkDock/OUTPUTS/openbind_d68ev3c_c2_elabs_1LOTQJ3.sdf', '/opt/xchem-fragalysis-2/maxwin/BulkDock/OUTPUTS/openbind_d68ev3c_c2_elabs_1LSYEHW.sdf', '/opt/xchem-fragalysis-2/maxwin/BulkDock/OUTPUTS/openbind_d68ev3c_c2_elabs_1LSYI5W.sdf']

$$$$
P86459
     RDKit          3D

 24 25  0  0  0  0  0  0  0  0999 V2000
  -17.7067  -27.6530   28.1002 C   0  0  0  0  0  0  0  0  0  0  0  0
  -16.6920  -26.9085   27.4319 O   0  0  0  0  0  0  0  0  0  0  0  0
  -16.4323  -27.4207   26.1246 C   0  0  0  0  0  0  0  0  0  0  0  0
  -15.5751  -26.4288   25.3450 C   0  0  0  0  0  0  0  0  0  0  0  0
  -14.2247  -26.2885   25.8452 N   0  0  0  0  0  0  0  0  0  0  0  0
  -13.4003  -25.0220   26.1637 C   0  0  0  0  0  0  0  0  0  0  0  0
  -13.7059  -23.9007   26.1460 O   0  0  0  0  0  0  0  0  0  0  0  0
  -11.9491  -25.4078   26.5177 C   0  0  1  0  0  0  0  0  0  0  0  0
  -10.9982  -24.5551   25.7015 C   0  0  0  0  0  0  0  0  0  0  0  0
  -11.6431  -25.2918   27.9637 N   0  0  0  0  0  0  0  0  0  0  0  0
  -11.2005  -26.4964   28.5236 C   0  0  0  0  0  0  0  0  0  0  0  0
  -12.0480  -27.5939   28.5755 C   0  0  0  0  0  0  0  0  0  0  0  0
  -11.8519  -28.5441   29.5567 C   0  0  0  0  0  0  0  0  0  0  0  0
  -10.7823  -28.4240   30.4384 C   0  0  0  0  0  0  0  0  0  0  0  0
   -9.8157  -27.4611   30.2173 C   0  0  0  0  0  0  0  0  0  0  0  0
  -10.0111  -26.5041   29.2422 C   0  0  0  0  0  0  0  0  0  0  0  0
  -11.7669  -24.1776   28.7855 C   0  0  0  0  0  0  0  0  0  0  0  0
  -11.7752  -22.5495   28.2313 S   0  0  0  0  0  0  0  0  0  0  0  0
  -12.0075  -21.8102   29.6845 N   0  0  0  0  0  0  0  0  0  0  0  0
  -12.0186  -22.7303   30.6389 C   0  0  0  0  0  0  0  0  0  0  0  0
  -12.2040  -22.3022   32.0592 C   0  0  0  0  0  0  0  0  0  0  0  0
  -11.8007  -24.0658   30.1877 C   0  0  0  0  0  0  0  0  0  0  0  0
  -11.5675  -25.0613   31.1822 C   0  0  0  0  0  0  0  0  0  0  0  0
  -11.2500  -25.6839   32.1073 N   0  0  0  0  0  0  0  0  0  0  0  0
  1  2  1  0
  2  3  1  0
  3  4  1  0
  4  5  1  0
  5  6  1  0
  6  7  2  0
  6  8  1  0
  8  9  1  6
  8 10  1  0
 10 11  1  0
 11 12  2  0
 12 13  1  0
 13 14  2  0
 14 15  1  0
 15 16  2  0
 10 17  1  0
 17 18  1  0
 18 19  1  0
 19 20  2  0
 20 21  1  0
 20 22  1  0
 22 23  1  0
 23 24  3  0
 16 11  1  0
 22 17  2  0
M  END
>  <ref_mols>  (840) 
7gop-a

>  <gnina_score>  (840) 
5.191

>  <smina_score_min>  (840) 
-4.147

>  <ref_pdb>  (840) 
7gop-a

>  <inspiration_score>  (840) 
None

>  <inchikey>  (840) 
FBFZDWHBKQGNLO-CYBMUJFWSA-N

>  <tags>  (840) 
BulkDock Fragalysis export,openbind_d68ev3c_c2_elabs_scored,openbind_d68ev3c_c2_elabs_scored_4.5plus,openbind_d68ev3c_c2_elabs,openbind_d68ev3c_c2_elabs_scored_5plus,syndirella_product,openbind_d68ev3c_c2_elabs_scored_top80percent,syndirella_placed

>  <smiles>  (840) 
COCCNC(=O)[C@@H](C)N(c1ccccc1)c1snc(C)c1C#N

>  <subsites>  (840) 
None

>  <rmsd(smina/fragmenstein)>  (840) 
0.546

>  <alias>  (840) 
None

>  <energy_score>  (840) 
-25.143222

>  <HIPPO Pose ID>  (840) 
86459

>  <distance_score>  (840) 
0.866068

>  <HIPPO Compound ID>  (840) 
121806

>  <gnina_score_min>  (840) 
5.024

>  <name>  (840) 
P86459

>  <exports>  (840) 
['/opt/xchem-fragalysis-2/maxwin/BulkDock/OUTPUTS/openbind_d68ev3c_c2_elabs_1LOTQJ3.sdf', '/opt/xchem-fragalysis-2/maxwin/BulkDock/OUTPUTS/openbind_d68ev3c_c2_elabs_1LSYEHW.sdf', '/opt/xchem-fragalysis-2/maxwin/BulkDock/OUTPUTS/openbind_d68ev3c_c2_elabs_1LSYI5W.sdf']

$$$$
P86466
     RDKit          3D

 24 26  0  0  0  0  0  0  0  0999 V2000
   -8.8507  -31.7099   23.0652 C   0  0  0  0  0  0  0  0  0  0  0  0
   -9.3678  -30.4775   23.6766 C   0  0  0  0  0  0  0  0  0  0  0  0
   -9.7870  -30.0765   24.9203 C   0  0  0  0  0  0  0  0  0  0  0  0
  -10.2957  -28.7128   24.8086 C   0  0  0  0  0  0  0  0  0  0  0  0
  -11.0347  -27.8834   25.6302 N   0  0  0  0  0  0  0  0  0  0  0  0
  -12.2848  -26.9801   25.3102 C   0  0  0  0  0  0  0  0  0  0  0  0
  -12.8147  -26.7521   24.2906 O   0  0  0  0  0  0  0  0  0  0  0  0
  -12.8758  -26.4503   26.5797 C   0  0  0  0  0  0  0  0  0  0  0  0
  -11.7677  -25.9878   27.3251 N   0  0  0  0  0  0  0  0  0  0  0  0
  -11.7128  -26.4837   28.6914 C   0  0  0  0  0  0  0  0  0  0  0  0
  -10.3962  -26.0058   29.2852 C   0  0  0  0  0  0  0  0  0  0  0  0
  -10.4348  -24.5364   29.2540 N   0  0  0  0  0  0  0  0  0  0  0  0
  -11.2971  -23.8999   30.1223 C   0  0  0  0  0  0  0  0  0  0  0  0
  -12.1357  -22.4405   29.7589 S   0  0  0  0  0  0  0  0  0  0  0  0
  -13.0552  -22.3879   31.1112 N   0  0  0  0  0  0  0  0  0  0  0  0
  -12.6175  -23.3247   31.9422 C   0  0  0  0  0  0  0  0  0  0  0  0
  -13.2067  -23.3954   33.2922 C   0  0  0  0  0  0  0  0  0  0  0  0
  -11.5847  -24.1652   31.4440 C   0  0  0  0  0  0  0  0  0  0  0  0
  -10.9053  -25.1244   32.2309 C   0  0  0  0  0  0  0  0  0  0  0  0
  -10.3527  -25.8784   32.9124 N   0  0  0  0  0  0  0  0  0  0  0  0
  -10.4150  -24.0405   27.8615 C   0  0  0  0  0  0  0  0  0  0  0  0
  -11.6260  -24.5493   27.1064 C   0  0  0  0  0  0  0  0  0  0  0  0
  -10.3495  -28.3979   23.5338 N   0  0  0  0  0  0  0  0  0  0  0  0
   -9.6291  -29.4728   22.8054 O   0  0  0  0  0  0  0  0  0  0  0  0
  1  2  1  0
  2  3  2  0
  3  4  1  0
  4  5  1  0
  5  6  1  0
  6  7  2  0
  6  8  1  0
  8  9  1  0
  9 10  1  0
 10 11  1  0
 11 12  1  0
 12 13  1  0
 13 14  1  0
 14 15  1  0
 15 16  2  0
 16 17  1  0
 16 18  1  0
 18 19  1  0
 19 20  3  0
 12 21  1  0
 21 22  1  0
  4 23  2  0
 23 24  1  0
 24  2  1  0
 22  9  1  0
 18 13  2  0
M  END
>  <ref_mols>  (841) 
7gop-a

>  <gnina_score>  (841) 
5.584

>  <smina_score_min>  (841) 
-0.678

>  <ref_pdb>  (841) 
7gop-a

>  <inspiration_score>  (841) 
None

>  <inchikey>  (841) 
QJUCJPWUICKEFQ-UHFFFAOYSA-N

>  <tags>  (841) 
BulkDock Fragalysis export,openbind_d68ev3c_c2_elabs_scored,openbind_d68ev3c_c2_elabs_scored_4.5plus,openbind_d68ev3c_c2_elabs,openbind_d68ev3c_c2_elabs_scored_5plus,syndirella_product,openbind_d68ev3c_c2_elabs_scored_top80percent,syndirella_placed

>  <smiles>  (841) 
Cc1cc(NC(=O)CN2CCN(c3snc(C)c3C#N)CC2)no1

>  <subsites>  (841) 
None

>  <rmsd(smina/fragmenstein)>  (841) 
1.376

>  <alias>  (841) 
None

>  <energy_score>  (841) 
-2.193859

>  <HIPPO Pose ID>  (841) 
86466

>  <distance_score>  (841) 
1.585985

>  <HIPPO Compound ID>  (841) 
121810

>  <gnina_score_min>  (841) 
5.674

>  <name>  (841) 
P86466

>  <exports>  (841) 
['/opt/xchem-fragalysis-2/maxwin/BulkDock/OUTPUTS/openbind_d68ev3c_c2_elabs_1LOTQJ3.sdf', '/opt/xchem-fragalysis-2/maxwin/BulkDock/OUTPUTS/openbind_d68ev3c_c2_elabs_1LSYEHW.sdf', '/opt/xchem-fragalysis-2/maxwin/BulkDock/OUTPUTS/openbind_d68ev3c_c2_elabs_1LSYI5W.sdf']

$$$$
P86467
     RDKit          3D

 24 25  0  0  0  0  0  0  0  0999 V2000
  -11.5434  -21.8516   31.8962 C   0  0  0  0  0  0  0  0  0  0  0  0
  -11.8644  -22.3283   30.5291 C   0  0  0  0  0  0  0  0  0  0  0  0
  -11.5295  -21.5958   29.4822 N   0  0  0  0  0  0  0  0  0  0  0  0
  -11.6839  -22.5297   28.1398 S   0  0  0  0  0  0  0  0  0  0  0  0
  -12.4617  -23.8909   28.8765 C   0  0  0  0  0  0  0  0  0  0  0  0
  -12.7503  -25.0962   28.2307 N   0  0  0  0  0  0  0  0  0  0  0  0
  -11.7819  -26.0706   28.5751 C   0  0  0  0  0  0  0  0  0  0  0  0
  -11.8677  -26.7032   29.8176 C   0  0  0  0  0  0  0  0  0  0  0  0
  -10.8377  -27.3952   30.3943 C   0  0  0  0  0  0  0  0  0  0  0  0
   -9.6877  -27.4751   29.6767 C   0  0  0  0  0  0  0  0  0  0  0  0
   -9.5968  -26.9104   28.3939 C   0  0  0  0  0  0  0  0  0  0  0  0
  -10.6296  -26.2078   27.8344 C   0  0  0  0  0  0  0  0  0  0  0  0
  -13.2165  -25.2972   26.7952 C   0  0  2  0  0  0  0  0  0  0  0  0
  -12.8773  -24.1896   25.8141 C   0  0  0  0  0  0  0  0  0  0  0  0
  -14.7603  -25.6307   26.7202 C   0  0  0  0  0  0  0  0  0  0  0  0
  -15.4470  -25.4189   27.6787 O   0  0  0  0  0  0  0  0  0  0  0  0
  -15.1020  -26.1357   25.4116 N   0  0  0  0  0  0  0  0  0  0  0  0
  -16.3822  -26.4500   24.8225 C   0  0  0  0  0  0  0  0  0  0  0  0
  -17.0206  -27.7543   25.3262 C   0  0  0  0  0  0  0  0  0  0  0  0
  -18.0492  -28.2480   24.3042 C   0  0  0  0  0  0  0  0  0  0  0  0
  -17.7043  -27.5876   26.6836 C   0  0  0  0  0  0  0  0  0  0  0  0
  -12.4519  -23.5906   30.2469 C   0  0  0  0  0  0  0  0  0  0  0  0
  -12.7947  -24.3816   31.3840 C   0  0  0  0  0  0  0  0  0  0  0  0
  -12.8878  -24.8545   32.4404 N   0  0  0  0  0  0  0  0  0  0  0  0
  1  2  1  0
  2  3  2  0
  3  4  1  0
  4  5  1  0
  5  6  1  0
  6  7  1  0
  7  8  2  0
  8  9  1  0
  9 10  2  0
 10 11  1  0
 11 12  2  0
  6 13  1  0
 13 14  1  6
 13 15  1  0
 15 16  2  0
 15 17  1  0
 17 18  1  0
 18 19  1  0
 19 20  1  0
 19 21  1  0
  5 22  2  0
 22 23  1  0
 23 24  3  0
 22  2  1  0
 12  7  1  0
M  END
>  <ref_mols>  (842) 
7gop-a

>  <gnina_score>  (842) 
5.329

>  <smina_score_min>  (842) 
-4.694

>  <ref_pdb>  (842) 
7gop-a

>  <inspiration_score>  (842) 
None

>  <inchikey>  (842) 
RFUGUJNHYWNTAA-CQSZACIVSA-N

>  <tags>  (842) 
BulkDock Fragalysis export,openbind_d68ev3c_c2_elabs_scored,openbind_d68ev3c_c2_elabs_scored_4.5plus,openbind_d68ev3c_c2_elabs,openbind_d68ev3c_c2_elabs_scored_5plus,syndirella_product,openbind_d68ev3c_c2_elabs_scored_top80percent,syndirella_placed

>  <smiles>  (842) 
Cc1nsc(N(c2ccccc2)[C@H](C)C(=O)NCC(C)C)c1C#N

>  <subsites>  (842) 
None

>  <rmsd(smina/fragmenstein)>  (842) 
0.939

>  <alias>  (842) 
None

>  <energy_score>  (842) 
-6.178756

>  <HIPPO Pose ID>  (842) 
86467

>  <distance_score>  (842) 
1.912551

>  <HIPPO Compound ID>  (842) 
121811

>  <gnina_score_min>  (842) 
5.296

>  <name>  (842) 
P86467

>  <exports>  (842) 
['/opt/xchem-fragalysis-2/maxwin/BulkDock/OUTPUTS/openbind_d68ev3c_c2_elabs_1LOTQJ3.sdf', '/opt/xchem-fragalysis-2/maxwin/BulkDock/OUTPUTS/openbind_d68ev3c_c2_elabs_1LSYEHW.sdf', '/opt/xchem-fragalysis-2/maxwin/BulkDock/OUTPUTS/openbind_d68ev3c_c2_elabs_1LSYI5W.sdf']

$$$$
P86488
     RDKit          3D

 22 24  0  0  0  0  0  0  0  0999 V2000
  -16.0333   -4.0028   19.1674 C   0  0  0  0  0  0  0  0  0  0  0  0
  -17.6984   -3.6197   19.6796 C   0  0  0  0  0  0  0  0  0  0  0  0
  -18.7002   -2.7985   18.8251 C   0  0  0  0  0  0  0  0  0  0  0  0
  -19.7884   -1.9131   19.4276 C   0  0  2  0  0  0  0  0  0  0  0  0
  -20.0848   -2.0990   21.1598 Cl  0  0  0  0  0  0  0  0  0  0  0  0
  -21.0657   -2.1743   18.6197 C   0  0  0  0  0  0  0  0  0  0  0  0
  -21.3594   -3.2395   18.2404 O   0  0  0  0  0  0  0  0  0  0  0  0
  -21.7416   -0.8036   18.3808 N   0  0  0  0  0  0  0  0  0  0  0  0
  -22.8714   -0.4427   17.5429 C   0  0  0  0  0  0  0  0  0  0  0  0
  -23.9799   -1.5741   17.5433 C   0  0  0  0  0  0  0  0  0  0  0  0
  -24.1500   -2.4681   18.5388 N   0  0  0  0  0  0  0  0  0  0  0  0
  -25.1348   -3.2363   18.0353 N   0  0  0  0  0  0  0  0  0  0  0  0
  -25.5393   -2.7943   16.8098 C   0  0  0  0  0  0  0  0  0  0  0  0
  -26.5838   -3.3584   16.0164 C   0  0  0  0  0  0  0  0  0  0  0  0
  -27.0370   -2.8695   14.8060 C   0  0  0  0  0  0  0  0  0  0  0  0
  -28.1097   -3.6393   14.2727 C   0  0  0  0  0  0  0  0  0  0  0  0
  -28.4345   -4.6985   15.0896 C   0  0  0  0  0  0  0  0  0  0  0  0
  -27.4482   -4.7596   16.4854 S   0  0  0  0  0  0  0  0  0  0  0  0
  -24.8291   -1.7399   16.4799 N   0  0  0  0  0  0  0  0  0  0  0  0
  -23.3896    0.9965   17.7366 C   0  0  0  0  0  0  0  0  0  0  0  0
  -22.4026    1.4453   16.6366 C   0  0  0  0  0  0  0  0  0  0  0  0
  -22.4054   -0.0061   16.1213 C   0  0  0  0  0  0  0  0  0  0  0  0
  1  2  1  0
  2  3  1  0
  3  4  1  0
  4  5  1  1
  4  6  1  0
  6  7  2  0
  6  8  1  0
  8  9  1  0
  9 10  1  0
 10 11  2  0
 11 12  1  0
 12 13  1  0
 13 14  1  0
 14 15  2  0
 15 16  1  0
 16 17  2  0
 17 18  1  0
 13 19  2  0
  9 20  1  0
 20 21  1  0
 21 22  1  0
 22  9  1  0
 19 10  1  0
 18 14  1  0
M  END
>  <ref_mols>  (843) 
B1159b

>  <gnina_score>  (843) 
4.82

>  <smina_score_min>  (843) 
-1.442

>  <ref_pdb>  (843) 
B1159b

>  <inspiration_score>  (843) 
None

>  <inchikey>  (843) 
QWXNVZPOZKIVJN-JTQLQIEISA-N

>  <tags>  (843) 
BulkDock Fragalysis export,openbind_d68ev3c_c2_elabs_scored,openbind_d68ev3c_c2_elabs_scored_4.5plus,openbind_d68ev3c_c2_elabs,openbind_d68ev3c_c2_elabs_scored_5plus,syndirella_product,openbind_d68ev3c_c2_elabs_scored_top80percent,syndirella_placed

>  <smiles>  (843) 
CCC[C@H](Cl)C(=O)NC1(c2n[nH]c(-c3cccs3)n2)CCC1

>  <subsites>  (843) 
None

>  <rmsd(smina/fragmenstein)>  (843) 
3.065

>  <alias>  (843) 
None

>  <energy_score>  (843) 
-11.086313

>  <HIPPO Pose ID>  (843) 
86488

>  <distance_score>  (843) 
0.729248

>  <HIPPO Compound ID>  (843) 
121875

>  <gnina_score_min>  (843) 
5.035

>  <name>  (843) 
P86488

>  <exports>  (843) 
['/opt/xchem-fragalysis-2/maxwin/BulkDock/OUTPUTS/openbind_d68ev3c_c2_elabs_1LOTQJ3.sdf', '/opt/xchem-fragalysis-2/maxwin/BulkDock/OUTPUTS/openbind_d68ev3c_c2_elabs_1LSYEHW.sdf', '/opt/xchem-fragalysis-2/maxwin/BulkDock/OUTPUTS/openbind_d68ev3c_c2_elabs_1LSYI5W.sdf']

$$$$
P86500
     RDKit          3D

 23 26  0  0  0  0  0  0  0  0999 V2000
  -21.4453   -2.2157   19.5036 O   0  0  0  0  0  0  0  0  0  0  0  0
  -21.7389   -1.1172   19.7044 C   0  0  0  0  0  0  0  0  0  0  0  0
  -22.4156   -0.0993   18.8046 N   0  0  0  0  0  0  0  0  0  0  0  0
  -22.9720   -0.2413   17.4727 C   0  0  0  0  0  0  0  0  0  0  0  0
  -23.9555   -1.5016   17.3642 C   0  0  0  0  0  0  0  0  0  0  0  0
  -23.9914   -2.5228   18.2456 N   0  0  0  0  0  0  0  0  0  0  0  0
  -24.9667   -3.2886   17.7318 N   0  0  0  0  0  0  0  0  0  0  0  0
  -25.4805   -2.7470   16.5923 C   0  0  0  0  0  0  0  0  0  0  0  0
  -26.5527   -3.2956   15.8257 C   0  0  0  0  0  0  0  0  0  0  0  0
  -27.0941   -2.7510   14.6779 C   0  0  0  0  0  0  0  0  0  0  0  0
  -28.1748   -3.5236   14.1647 C   0  0  0  0  0  0  0  0  0  0  0  0
  -28.4196   -4.6382   14.9347 C   0  0  0  0  0  0  0  0  0  0  0  0
  -27.3476   -4.7494   16.2617 S   0  0  0  0  0  0  0  0  0  0  0  0
  -24.8530   -1.6219   16.3316 N   0  0  0  0  0  0  0  0  0  0  0  0
  -21.8775   -0.2329   16.3696 C   0  0  0  0  0  0  0  0  0  0  0  0
  -22.7417    0.7610   15.5779 C   0  0  0  0  0  0  0  0  0  0  0  0
  -23.5011    1.0796   16.8783 C   0  0  0  0  0  0  0  0  0  0  0  0
  -21.3622   -0.4963   21.0266 C   0  0  2  0  0  0  0  0  0  0  0  0
  -22.7020   -0.0021   22.0358 Cl  0  0  0  0  0  0  0  0  0  0  0  0
  -20.1029    0.3296   20.9718 C   0  0  0  0  0  0  0  0  0  0  0  0
  -20.1557   -0.8726   21.8775 C   0  0  2  0  0  0  0  0  0  0  0  0
  -19.6121   -2.2475   21.7912 C   0  0  0  0  0  0  0  0  0  0  0  0
  -18.8877   -2.7409   20.2696 Cl  0  0  0  0  0  0  0  0  0  0  0  0
  1  2  2  0
  2  3  1  0
  3  4  1  0
  4  5  1  0
  5  6  2  0
  6  7  1  0
  7  8  1  0
  8  9  1  0
  9 10  2  0
 10 11  1  0
 11 12  2  0
 12 13  1  0
  8 14  2  0
  4 15  1  0
 15 16  1  0
 16 17  1  0
  2 18  1  0
 18 19  1  1
 18 20  1  0
 20 21  1  0
 21 22  1  6
 22 23  1  0
 17  4  1  0
 21 18  1  0
 14  5  1  0
 13  9  1  0
M  END
>  <ref_mols>  (844) 
B1159b

>  <gnina_score>  (844) 
5.235

>  <smina_score_min>  (844) 
-2.225

>  <ref_pdb>  (844) 
B1159b

>  <inspiration_score>  (844) 
None

>  <inchikey>  (844) 
WURMHKYSABXQLU-PSLIRLAXSA-N

>  <tags>  (844) 
BulkDock Fragalysis export,openbind_d68ev3c_c2_elabs_scored,openbind_d68ev3c_c2_elabs_scored_4.5plus,openbind_d68ev3c_c2_elabs,openbind_d68ev3c_c2_elabs_scored_5plus,syndirella_product,openbind_d68ev3c_c2_elabs_scored_top80percent,syndirella_placed

>  <smiles>  (844) 
O=C(NC1(c2n[nH]c(-c3cccs3)n2)CCC1)[C@]1(Cl)C[C@@H]1CCl

>  <subsites>  (844) 
None

>  <rmsd(smina/fragmenstein)>  (844) 
1.986

>  <alias>  (844) 
None

>  <energy_score>  (844) 
-18.228205

>  <HIPPO Pose ID>  (844) 
86500

>  <distance_score>  (844) 
1.557161

>  <HIPPO Compound ID>  (844) 
121882

>  <gnina_score_min>  (844) 
5.031

>  <name>  (844) 
P86500

>  <exports>  (844) 
['/opt/xchem-fragalysis-2/maxwin/BulkDock/OUTPUTS/openbind_d68ev3c_c2_elabs_1LOTQJ3.sdf', '/opt/xchem-fragalysis-2/maxwin/BulkDock/OUTPUTS/openbind_d68ev3c_c2_elabs_1LSYEHW.sdf', '/opt/xchem-fragalysis-2/maxwin/BulkDock/OUTPUTS/openbind_d68ev3c_c2_elabs_1LSYI5W.sdf']

$$$$
P86501
     RDKit          3D

 23 25  0  0  0  0  0  0  0  0999 V2000
  -18.3071   -3.1459   21.1054 C   0  0  0  0  0  0  0  0  0  0  0  0
  -17.9957   -3.5651   19.6536 C   0  0  0  0  0  0  0  0  0  0  0  0
  -16.2997   -3.9761   19.2774 C   0  0  0  0  0  0  0  0  0  0  0  0
  -18.8653   -2.6182   18.7473 C   0  0  0  0  0  0  0  0  0  0  0  0
  -20.3250   -2.8090   19.0260 C   0  0  1  0  0  0  0  0  0  0  0  0
  -20.9182   -1.6833   20.3393 Cl  0  0  0  0  0  0  0  0  0  0  0  0
  -21.2069   -2.7000   17.8120 C   0  0  0  0  0  0  0  0  0  0  0  0
  -21.4833   -3.6295   17.1634 O   0  0  0  0  0  0  0  0  0  0  0  0
  -21.6882   -1.2377   17.7199 N   0  0  0  0  0  0  0  0  0  0  0  0
  -22.6787   -0.6339   16.8746 C   0  0  0  0  0  0  0  0  0  0  0  0
  -23.9792   -1.5410   17.0050 C   0  0  0  0  0  0  0  0  0  0  0  0
  -24.2200   -2.2958   18.1025 N   0  0  0  0  0  0  0  0  0  0  0  0
  -25.2753   -3.0157   17.6963 N   0  0  0  0  0  0  0  0  0  0  0  0
  -25.6542   -2.6756   16.4326 C   0  0  0  0  0  0  0  0  0  0  0  0
  -26.7444   -3.2543   15.7191 C   0  0  0  0  0  0  0  0  0  0  0  0
  -27.2126   -2.8499   14.4853 C   0  0  0  0  0  0  0  0  0  0  0  0
  -28.3257   -3.6215   14.0473 C   0  0  0  0  0  0  0  0  0  0  0  0
  -28.6636   -4.5982   14.9569 C   0  0  0  0  0  0  0  0  0  0  0  0
  -27.6432   -4.5791   16.3278 S   0  0  0  0  0  0  0  0  0  0  0  0
  -24.8638   -1.7273   15.9801 N   0  0  0  0  0  0  0  0  0  0  0  0
  -22.1858   -0.2914   15.4611 C   0  0  0  0  0  0  0  0  0  0  0  0
  -22.9024    1.0656   15.5943 C   0  0  0  0  0  0  0  0  0  0  0  0
  -22.9043    0.8703   17.1212 C   0  0  0  0  0  0  0  0  0  0  0  0
  1  2  1  0
  2  3  1  0
  2  4  1  0
  4  5  1  0
  5  6  1  1
  5  7  1  0
  7  8  2  0
  7  9  1  0
  9 10  1  0
 10 11  1  0
 11 12  2  0
 12 13  1  0
 13 14  1  0
 14 15  1  0
 15 16  2  0
 16 17  1  0
 17 18  2  0
 18 19  1  0
 14 20  2  0
 10 21  1  0
 21 22  1  0
 22 23  1  0
 23 10  1  0
 20 11  1  0
 19 15  1  0
M  END
>  <ref_mols>  (845) 
B1159b

>  <gnina_score>  (845) 
5.06

>  <smina_score_min>  (845) 
-2.561

>  <ref_pdb>  (845) 
B1159b

>  <inspiration_score>  (845) 
None

>  <inchikey>  (845) 
KIAWKUKIMQROAA-LLVKDONJSA-N

>  <tags>  (845) 
BulkDock Fragalysis export,openbind_d68ev3c_c2_elabs_scored,openbind_d68ev3c_c2_elabs_scored_4.5plus,openbind_d68ev3c_c2_elabs,openbind_d68ev3c_c2_elabs_scored_5plus,syndirella_product,openbind_d68ev3c_c2_elabs_scored_top80percent,syndirella_placed

>  <smiles>  (845) 
CC(C)C[C@@H](Cl)C(=O)NC1(c2n[nH]c(-c3cccs3)n2)CCC1

>  <subsites>  (845) 
None

>  <rmsd(smina/fragmenstein)>  (845) 
2.468

>  <alias>  (845) 
None

>  <energy_score>  (845) 
-5.87509

>  <HIPPO Pose ID>  (845) 
86501

>  <distance_score>  (845) 
0.943043

>  <HIPPO Compound ID>  (845) 
121883

>  <gnina_score_min>  (845) 
5.044

>  <name>  (845) 
P86501

>  <exports>  (845) 
['/opt/xchem-fragalysis-2/maxwin/BulkDock/OUTPUTS/openbind_d68ev3c_c2_elabs_1LOTQJ3.sdf', '/opt/xchem-fragalysis-2/maxwin/BulkDock/OUTPUTS/openbind_d68ev3c_c2_elabs_1LSYEHW.sdf', '/opt/xchem-fragalysis-2/maxwin/BulkDock/OUTPUTS/openbind_d68ev3c_c2_elabs_1LSYI5W.sdf']

$$$$
P86511
     RDKit          3D

 24 28  0  0  0  0  0  0  0  0999 V2000
  -22.9914   -2.7164   18.6136 O   0  0  0  0  0  0  0  0  0  0  0  0
  -22.1665   -1.9859   18.2399 C   0  0  0  0  0  0  0  0  0  0  0  0
  -22.2766   -0.5661   17.6837 N   0  0  0  0  0  0  0  0  0  0  0  0
  -23.4412    0.2351   17.3749 C   0  0  0  0  0  0  0  0  0  0  0  0
  -24.7012   -0.6974   17.3640 C   0  0  0  0  0  0  0  0  0  0  0  0
  -25.2893   -1.1277   18.4895 N   0  0  0  0  0  0  0  0  0  0  0  0
  -25.9931   -2.1769   18.0349 N   0  0  0  0  0  0  0  0  0  0  0  0
  -25.9307   -2.2649   16.6752 C   0  0  0  0  0  0  0  0  0  0  0  0
  -26.7098   -3.1461   15.8685 C   0  0  0  0  0  0  0  0  0  0  0  0
  -26.9034   -3.0356   14.5060 C   0  0  0  0  0  0  0  0  0  0  0  0
  -27.8051   -4.0159   14.0041 C   0  0  0  0  0  0  0  0  0  0  0  0
  -28.2448   -4.8641   14.9953 C   0  0  0  0  0  0  0  0  0  0  0  0
  -27.5714   -4.4753   16.5176 S   0  0  0  0  0  0  0  0  0  0  0  0
  -25.0914   -1.3582   16.2243 N   0  0  0  0  0  0  0  0  0  0  0  0
  -23.5311    1.5696   18.1253 C   0  0  0  0  0  0  0  0  0  0  0  0
  -22.7334    2.2056   16.9621 C   0  0  0  0  0  0  0  0  0  0  0  0
  -23.2359    1.0530   16.0733 C   0  0  0  0  0  0  0  0  0  0  0  0
  -20.7677   -2.4303   18.1584 C   0  0  1  0  0  0  0  0  0  0  0  0
  -19.7570   -2.0007   19.5422 Cl  0  0  0  0  0  0  0  0  0  0  0  0
  -20.4117   -3.7969   17.6365 C   0  0  0  0  0  0  0  0  0  0  0  0
  -20.3434   -2.6331   16.7164 C   0  0  0  0  0  0  0  0  0  0  0  0
  -19.3086   -1.8673   16.0072 C   0  0  0  0  0  0  0  0  0  0  0  0
  -19.8673   -2.5187   14.7311 C   0  0  0  0  0  0  0  0  0  0  0  0
  -21.2011   -2.6399   15.4770 C   0  0  0  0  0  0  0  0  0  0  0  0
  1  2  2  0
  2  3  1  0
  3  4  1  0
  4  5  1  0
  5  6  2  0
  6  7  1  0
  7  8  1  0
  8  9  1  0
  9 10  2  0
 10 11  1  0
 11 12  2  0
 12 13  1  0
  8 14  2  0
  4 15  1  0
 15 16  1  0
 16 17  1  0
  2 18  1  0
 18 19  1  1
 18 20  1  0
 20 21  1  0
 21 22  1  0
 22 23  1  0
 23 24  1  0
 17  4  1  0
 21 18  1  0
 14  5  1  0
 24 21  1  0
 13  9  1  0
M  END
>  <ref_mols>  (846) 
B1159b

>  <gnina_score>  (846) 
5.427

>  <smina_score_min>  (846) 
-2.46

>  <ref_pdb>  (846) 
B1159b

>  <inspiration_score>  (846) 
None

>  <inchikey>  (846) 
SJZVFYRJKFCNKX-KRWDZBQOSA-N

>  <tags>  (846) 
BulkDock Fragalysis export,openbind_d68ev3c_c2_elabs_scored,openbind_d68ev3c_c2_elabs_scored_4.5plus,openbind_d68ev3c_c2_elabs,openbind_d68ev3c_c2_elabs_scored_5plus,syndirella_product,openbind_d68ev3c_c2_elabs_scored_top80percent,syndirella_placed

>  <smiles>  (846) 
O=C(NC1(c2n[nH]c(-c3cccs3)n2)CCC1)[C@@]1(Cl)CC12CCC2

>  <subsites>  (846) 
None

>  <rmsd(smina/fragmenstein)>  (846) 
1.46

>  <alias>  (846) 
None

>  <energy_score>  (846) 
-14.467649

>  <HIPPO Pose ID>  (846) 
86511

>  <distance_score>  (846) 
1.662583

>  <HIPPO Compound ID>  (846) 
121888

>  <gnina_score_min>  (846) 
5.011

>  <name>  (846) 
P86511

>  <exports>  (846) 
['/opt/xchem-fragalysis-2/maxwin/BulkDock/OUTPUTS/openbind_d68ev3c_c2_elabs_1LOTQJ3.sdf', '/opt/xchem-fragalysis-2/maxwin/BulkDock/OUTPUTS/openbind_d68ev3c_c2_elabs_1LSYEHW.sdf', '/opt/xchem-fragalysis-2/maxwin/BulkDock/OUTPUTS/openbind_d68ev3c_c2_elabs_1LSYI5W.sdf']

$$$$
P86526
     RDKit          3D

 26 30  0  0  0  0  0  0  0  0999 V2000
  -23.0617   -2.6716   18.6745 O   0  0  0  0  0  0  0  0  0  0  0  0
  -22.2191   -1.9711   18.2837 C   0  0  0  0  0  0  0  0  0  0  0  0
  -22.2905   -0.5517   17.7214 N   0  0  0  0  0  0  0  0  0  0  0  0
  -23.4278    0.2832   17.4278 C   0  0  0  0  0  0  0  0  0  0  0  0
  -24.7059   -0.6359   17.3634 C   0  0  0  0  0  0  0  0  0  0  0  0
  -25.3410   -1.0502   18.4693 N   0  0  0  0  0  0  0  0  0  0  0  0
  -26.0291   -2.1028   18.0034 N   0  0  0  0  0  0  0  0  0  0  0  0
  -25.9098   -2.2146   16.6496 C   0  0  0  0  0  0  0  0  0  0  0  0
  -26.6666   -3.1050   15.8318 C   0  0  0  0  0  0  0  0  0  0  0  0
  -26.8357   -3.0041   14.4655 C   0  0  0  0  0  0  0  0  0  0  0  0
  -27.7273   -3.9898   13.9548 C   0  0  0  0  0  0  0  0  0  0  0  0
  -28.1819   -4.8334   14.9431 C   0  0  0  0  0  0  0  0  0  0  0  0
  -27.5345   -4.4345   16.4738 S   0  0  0  0  0  0  0  0  0  0  0  0
  -25.0438   -1.3220   16.2193 N   0  0  0  0  0  0  0  0  0  0  0  0
  -23.1755    1.1488   16.1687 C   0  0  0  0  0  0  0  0  0  0  0  0
  -23.7803    2.3330   16.9300 C   0  0  0  0  0  0  0  0  0  0  0  0
  -23.5149    1.5765   18.2450 C   0  0  0  0  0  0  0  0  0  0  0  0
  -20.8397   -2.4574   18.1811 C   0  0  1  0  0  0  0  0  0  0  0  0
  -19.7896   -1.9807   19.5275 Cl  0  0  0  0  0  0  0  0  0  0  0  0
  -20.4660   -3.8200   17.7009 C   0  0  0  0  0  0  0  0  0  0  0  0
  -20.4634   -2.7027   16.6940 C   0  0  0  0  0  0  0  0  0  0  0  0
  -19.3158   -1.8761   16.1992 C   0  0  0  0  0  0  0  0  0  0  0  0
  -19.0715   -2.1198   14.7156 C   0  0  0  0  0  0  0  0  0  0  0  0
  -20.1736   -1.7069   13.9031 O   0  0  0  0  0  0  0  0  0  0  0  0
  -21.4553   -1.8591   14.5193 C   0  0  0  0  0  0  0  0  0  0  0  0
  -21.4929   -2.9582   15.5776 C   0  0  0  0  0  0  0  0  0  0  0  0
  1  2  2  0
  2  3  1  0
  3  4  1  0
  4  5  1  0
  5  6  2  0
  6  7  1  0
  7  8  1  0
  8  9  1  0
  9 10  2  0
 10 11  1  0
 11 12  2  0
 12 13  1  0
  8 14  2  0
  4 15  1  0
 15 16  1  0
 16 17  1  0
  2 18  1  0
 18 19  1  1
 18 20  1  0
 20 21  1  0
 21 22  1  0
 22 23  1  0
 23 24  1  0
 24 25  1  0
 25 26  1  0
 17  4  1  0
 21 18  1  0
 14  5  1  0
 26 21  1  0
 13  9  1  0
M  END
>  <ref_mols>  (847) 
B1159b

>  <gnina_score>  (847) 
5.489

>  <smina_score_min>  (847) 
-2.37

>  <ref_pdb>  (847) 
B1159b

>  <inspiration_score>  (847) 
None

>  <inchikey>  (847) 
HDPCQANCDLCDLF-SFHVURJKSA-N

>  <tags>  (847) 
BulkDock Fragalysis export,openbind_d68ev3c_c2_elabs_scored,openbind_d68ev3c_c2_elabs_scored_4.5plus,openbind_d68ev3c_c2_elabs,openbind_d68ev3c_c2_elabs_scored_5plus,syndirella_product,openbind_d68ev3c_c2_elabs_scored_top80percent,syndirella_placed

>  <smiles>  (847) 
O=C(NC1(c2n[nH]c(-c3cccs3)n2)CCC1)[C@@]1(Cl)CC12CCOCC2

>  <subsites>  (847) 
None

>  <rmsd(smina/fragmenstein)>  (847) 
1.425

>  <alias>  (847) 
None

>  <energy_score>  (847) 
-35.986015

>  <HIPPO Pose ID>  (847) 
86526

>  <distance_score>  (847) 
1.734838

>  <HIPPO Compound ID>  (847) 
121896

>  <gnina_score_min>  (847) 
5.115

>  <name>  (847) 
P86526

>  <exports>  (847) 
['/opt/xchem-fragalysis-2/maxwin/BulkDock/OUTPUTS/openbind_d68ev3c_c2_elabs_1LOTQJ3.sdf', '/opt/xchem-fragalysis-2/maxwin/BulkDock/OUTPUTS/openbind_d68ev3c_c2_elabs_1LSYEHW.sdf', '/opt/xchem-fragalysis-2/maxwin/BulkDock/OUTPUTS/openbind_d68ev3c_c2_elabs_1LSYI5W.sdf']

$$$$
P86530
     RDKit          3D

 26 29  0  0  0  0  0  0  0  0999 V2000
  -20.1238   -0.7457   16.0790 O   0  0  0  0  0  0  0  0  0  0  0  0
  -20.7451   -1.2573   16.9686 C   0  0  0  0  0  0  0  0  0  0  0  0
  -22.1559   -1.5163   17.1021 N   0  0  0  0  0  0  0  0  0  0  0  0
  -23.2511   -1.3290   16.1698 C   0  0  0  0  0  0  0  0  0  0  0  0
  -24.4270   -2.2922   16.6296 C   0  0  0  0  0  0  0  0  0  0  0  0
  -24.3676   -3.0267   17.7632 N   0  0  0  0  0  0  0  0  0  0  0  0
  -25.5324   -3.7063   17.6830 N   0  0  0  0  0  0  0  0  0  0  0  0
  -26.2217   -3.3899   16.5478 C   0  0  0  0  0  0  0  0  0  0  0  0
  -27.4630   -3.9563   16.1285 C   0  0  0  0  0  0  0  0  0  0  0  0
  -28.1623   -3.6147   14.9866 C   0  0  0  0  0  0  0  0  0  0  0  0
  -29.3609   -4.3676   14.8345 C   0  0  0  0  0  0  0  0  0  0  0  0
  -29.5374   -5.2613   15.8665 C   0  0  0  0  0  0  0  0  0  0  0  0
  -28.2650   -5.1859   17.0070 S   0  0  0  0  0  0  0  0  0  0  0  0
  -25.5515   -2.4818   15.8780 N   0  0  0  0  0  0  0  0  0  0  0  0
  -23.6671    0.1407   15.9382 C   0  0  0  0  0  0  0  0  0  0  0  0
  -23.8147   -0.1818   14.4401 C   0  0  0  0  0  0  0  0  0  0  0  0
  -22.9172   -1.4159   14.6615 C   0  0  0  0  0  0  0  0  0  0  0  0
  -20.0207   -1.8230   18.2088 C   0  0  2  0  0  0  0  0  0  0  0  0
  -20.3980   -3.6144   18.1699 Cl  0  0  0  0  0  0  0  0  0  0  0  0
  -20.3247   -1.2643   19.6024 C   0  0  0  0  0  0  0  0  0  0  0  0
  -19.8225   -1.9942   20.7098 C   0  0  0  0  0  0  0  0  0  0  0  0
  -20.0379   -1.6056   22.0342 C   0  0  0  0  0  0  0  0  0  0  0  0
  -20.7366   -0.4419   22.3009 C   0  0  0  0  0  0  0  0  0  0  0  0
  -21.1865    0.3367   21.2400 C   0  0  0  0  0  0  0  0  0  0  0  0
  -20.9704   -0.0516   19.9050 C   0  0  0  0  0  0  0  0  0  0  0  0
  -21.5159    1.0940   18.7382 Cl  0  0  0  0  0  0  0  0  0  0  0  0
  1  2  2  0
  2  3  1  0
  3  4  1  0
  4  5  1  0
  5  6  2  0
  6  7  1  0
  7  8  1  0
  8  9  1  0
  9 10  2  0
 10 11  1  0
 11 12  2  0
 12 13  1  0
  8 14  2  0
  4 15  1  0
 15 16  1  0
 16 17  1  0
  2 18  1  0
 18 19  1  1
 18 20  1  0
 20 21  2  0
 21 22  1  0
 22 23  2  0
 23 24  1  0
 24 25  2  0
 25 26  1  0
 17  4  1  0
 25 20  1  0
 14  5  1  0
 13  9  1  0
M  END
>  <ref_mols>  (848) 
B1159b

>  <gnina_score>  (848) 
5.305

>  <smina_score_min>  (848) 
-3.697

>  <ref_pdb>  (848) 
B1159b

>  <inspiration_score>  (848) 
None

>  <inchikey>  (848) 
FVBBCHIZODDLSA-CQSZACIVSA-N

>  <tags>  (848) 
BulkDock Fragalysis export,openbind_d68ev3c_c2_elabs_scored,openbind_d68ev3c_c2_elabs_scored_4.5plus,openbind_d68ev3c_c2_elabs,openbind_d68ev3c_c2_elabs_scored_5plus,syndirella_product,openbind_d68ev3c_c2_elabs_scored_top80percent,syndirella_placed

>  <smiles>  (848) 
O=C(NC1(c2n[nH]c(-c3cccs3)n2)CCC1)[C@H](Cl)c1ccccc1Cl

>  <subsites>  (848) 
None

>  <rmsd(smina/fragmenstein)>  (848) 
1.345

>  <alias>  (848) 
None

>  <energy_score>  (848) 
-45.200848

>  <HIPPO Pose ID>  (848) 
86530

>  <distance_score>  (848) 
1.963435

>  <HIPPO Compound ID>  (848) 
121901

>  <gnina_score_min>  (848) 
5.322

>  <name>  (848) 
P86530

>  <exports>  (848) 
['/opt/xchem-fragalysis-2/maxwin/BulkDock/OUTPUTS/openbind_d68ev3c_c2_elabs_1LOTQJ3.sdf', '/opt/xchem-fragalysis-2/maxwin/BulkDock/OUTPUTS/openbind_d68ev3c_c2_elabs_1LSYEHW.sdf', '/opt/xchem-fragalysis-2/maxwin/BulkDock/OUTPUTS/openbind_d68ev3c_c2_elabs_1LSYI5W.sdf']

$$$$
P86531
     RDKit          3D

 26 29  0  0  0  0  0  0  0  0999 V2000
  -24.9398   -1.4086   24.6083 C   0  0  0  0  0  0  0  0  0  0  0  0
  -24.3161   -0.8275   23.3547 C   0  0  0  0  0  0  0  0  0  0  0  0
  -22.9274   -1.1731   23.3456 O   0  0  0  0  0  0  0  0  0  0  0  0
  -22.2568   -0.8044   22.2236 C   0  0  0  0  0  0  0  0  0  0  0  0
  -22.7302   -0.1392   21.3086 O   0  0  0  0  0  0  0  0  0  0  0  0
  -20.8186   -1.2354   22.2195 C   0  0  2  0  0  0  0  0  0  0  0  0
  -20.1672   -1.9050   23.7839 Cl  0  0  0  0  0  0  0  0  0  0  0  0
  -19.8303   -0.3149   21.5184 C   0  0  0  0  0  0  0  0  0  0  0  0
  -20.0392   -1.7090   21.0016 C   0  0  2  0  0  0  0  0  0  0  0  0
  -20.5223   -1.9850   19.6050 C   0  0  0  0  0  0  0  0  0  0  0  0
  -20.0034   -2.8806   19.0730 O   0  0  0  0  0  0  0  0  0  0  0  0
  -21.6341   -1.0485   19.1181 N   0  0  0  0  0  0  0  0  0  0  0  0
  -22.2913   -0.9510   17.8169 C   0  0  0  0  0  0  0  0  0  0  0  0
  -23.4882   -1.9906   17.6728 C   0  0  0  0  0  0  0  0  0  0  0  0
  -23.7101   -2.9984   18.5402 N   0  0  0  0  0  0  0  0  0  0  0  0
  -24.8080   -3.5707   18.0034 N   0  0  0  0  0  0  0  0  0  0  0  0
  -25.2003   -2.9396   16.8601 C   0  0  0  0  0  0  0  0  0  0  0  0
  -26.3192   -3.3129   16.0509 C   0  0  0  0  0  0  0  0  0  0  0  0
  -26.7495   -2.6766   14.9025 C   0  0  0  0  0  0  0  0  0  0  0  0
  -27.8992   -3.2952   14.3304 C   0  0  0  0  0  0  0  0  0  0  0  0
  -28.3098   -4.3882   15.0595 C   0  0  0  0  0  0  0  0  0  0  0  0
  -27.3123   -4.6613   16.4209 S   0  0  0  0  0  0  0  0  0  0  0  0
  -24.3869   -1.9322   16.6328 N   0  0  0  0  0  0  0  0  0  0  0  0
  -21.3372   -0.9318   16.5976 C   0  0  0  0  0  0  0  0  0  0  0  0
  -22.1031    0.2883   16.0537 C   0  0  0  0  0  0  0  0  0  0  0  0
  -22.6723    0.5126   17.4640 C   0  0  0  0  0  0  0  0  0  0  0  0
  1  2  1  0
  2  3  1  0
  3  4  1  0
  4  5  2  0
  4  6  1  0
  6  7  1  1
  6  8  1  0
  8  9  1  0
  9 10  1  6
 10 11  2  0
 10 12  1  0
 12 13  1  0
 13 14  1  0
 14 15  2  0
 15 16  1  0
 16 17  1  0
 17 18  1  0
 18 19  2  0
 19 20  1  0
 20 21  2  0
 21 22  1  0
 17 23  2  0
 13 24  1  0
 24 25  1  0
 25 26  1  0
  9  6  1  0
 26 13  1  0
 23 14  1  0
 22 18  1  0
M  END
>  <ref_mols>  (849) 
B1159b

>  <gnina_score>  (849) 
5.31

>  <smina_score_min>  (849) 
-3.856

>  <ref_pdb>  (849) 
B1159b

>  <inspiration_score>  (849) 
None

>  <inchikey>  (849) 
HRUQOGUQNWSKEW-QGHHPUGFSA-N

>  <tags>  (849) 
BulkDock Fragalysis export,openbind_d68ev3c_c2_elabs_scored,openbind_d68ev3c_c2_elabs_scored_4.5plus,openbind_d68ev3c_c2_elabs,openbind_d68ev3c_c2_elabs_scored_5plus,syndirella_product,openbind_d68ev3c_c2_elabs_scored_top80percent,syndirella_placed

>  <smiles>  (849) 
CCOC(=O)[C@]1(Cl)C[C@@H]1C(=O)NC1(c2n[nH]c(-c3cccs3)n2)CCC1

>  <subsites>  (849) 
None

>  <rmsd(smina/fragmenstein)>  (849) 
1.933

>  <alias>  (849) 
None

>  <energy_score>  (849) 
-57.543757

>  <HIPPO Pose ID>  (849) 
86531

>  <distance_score>  (849) 
0.82668

>  <HIPPO Compound ID>  (849) 
121903

>  <gnina_score_min>  (849) 
5.039

>  <name>  (849) 
P86531

>  <exports>  (849) 
['/opt/xchem-fragalysis-2/maxwin/BulkDock/OUTPUTS/openbind_d68ev3c_c2_elabs_1LOTQJ3.sdf', '/opt/xchem-fragalysis-2/maxwin/BulkDock/OUTPUTS/openbind_d68ev3c_c2_elabs_1LSYEHW.sdf', '/opt/xchem-fragalysis-2/maxwin/BulkDock/OUTPUTS/openbind_d68ev3c_c2_elabs_1LSYI5W.sdf']

$$$$
P86538
     RDKit          3D

 26 28  0  0  0  0  0  0  0  0999 V2000
  -24.6647    2.1413   23.7596 C   0  0  0  0  0  0  0  0  0  0  0  0
  -23.5317    1.1330   23.7879 C   0  0  0  0  0  0  0  0  0  0  0  0
  -22.4370    1.5969   22.9837 O   0  0  0  0  0  0  0  0  0  0  0  0
  -22.4990    1.2690   21.6705 C   0  0  0  0  0  0  0  0  0  0  0  0
  -23.3961    0.6483   21.1137 O   0  0  0  0  0  0  0  0  0  0  0  0
  -21.2753    1.7170   20.9319 C   0  0  0  0  0  0  0  0  0  0  0  0
  -20.0752    0.7890   21.0711 C   0  0  0  0  0  0  0  0  0  0  0  0
  -20.1898   -0.7372   20.8756 C   0  0  1  0  0  0  0  0  0  0  0  0
  -21.0869   -1.5547   22.1527 Cl  0  0  0  0  0  0  0  0  0  0  0  0
  -20.5388   -1.3319   19.4932 C   0  0  0  0  0  0  0  0  0  0  0  0
  -19.7881   -2.0471   18.9532 O   0  0  0  0  0  0  0  0  0  0  0  0
  -21.8875   -0.7412   19.0096 N   0  0  0  0  0  0  0  0  0  0  0  0
  -22.5532   -0.8329   17.7107 C   0  0  0  0  0  0  0  0  0  0  0  0
  -23.6102   -1.9993   17.6168 C   0  0  0  0  0  0  0  0  0  0  0  0
  -23.7177   -3.0188   18.4909 N   0  0  0  0  0  0  0  0  0  0  0  0
  -24.7944   -3.6721   17.9960 N   0  0  0  0  0  0  0  0  0  0  0  0
  -25.2692   -3.0786   16.8632 C   0  0  0  0  0  0  0  0  0  0  0  0
  -26.3961   -3.5042   16.0944 C   0  0  0  0  0  0  0  0  0  0  0  0
  -26.8895   -2.8828   14.9624 C   0  0  0  0  0  0  0  0  0  0  0  0
  -28.0361   -3.5405   14.4317 C   0  0  0  0  0  0  0  0  0  0  0  0
  -28.3794   -4.6475   15.1743 C   0  0  0  0  0  0  0  0  0  0  0  0
  -27.3215   -4.8871   16.4970 S   0  0  0  0  0  0  0  0  0  0  0  0
  -24.5335   -2.0249   16.5996 N   0  0  0  0  0  0  0  0  0  0  0  0
  -21.6084   -0.7404   16.4774 C   0  0  0  0  0  0  0  0  0  0  0  0
  -21.8025    0.7882   16.5008 C   0  0  0  0  0  0  0  0  0  0  0  0
  -23.1187    0.5532   17.2631 C   0  0  0  0  0  0  0  0  0  0  0  0
  1  2  1  0
  2  3  1  0
  3  4  1  0
  4  5  2  0
  4  6  1  0
  6  7  1  0
  7  8  1  0
  8  9  1  1
  8 10  1  0
 10 11  2  0
 10 12  1  0
 12 13  1  0
 13 14  1  0
 14 15  2  0
 15 16  1  0
 16 17  1  0
 17 18  1  0
 18 19  2  0
 19 20  1  0
 20 21  2  0
 21 22  1  0
 17 23  2  0
 13 24  1  0
 24 25  1  0
 25 26  1  0
 26 13  1  0
 23 14  1  0
 22 18  1  0
M  END
>  <ref_mols>  (850) 
B1159b

>  <gnina_score>  (850) 
5.025

>  <smina_score_min>  (850) 
-2.252

>  <ref_pdb>  (850) 
B1159b

>  <inspiration_score>  (850) 
None

>  <inchikey>  (850) 
WTTHBHMQTMXBOQ-LLVKDONJSA-N

>  <tags>  (850) 
BulkDock Fragalysis export,openbind_d68ev3c_c2_elabs_scored,openbind_d68ev3c_c2_elabs_scored_4.5plus,openbind_d68ev3c_c2_elabs,openbind_d68ev3c_c2_elabs_scored_5plus,syndirella_product,openbind_d68ev3c_c2_elabs_scored_top80percent,syndirella_placed

>  <smiles>  (850) 
CCOC(=O)CC[C@@H](Cl)C(=O)NC1(c2n[nH]c(-c3cccs3)n2)CCC1

>  <subsites>  (850) 
None

>  <rmsd(smina/fragmenstein)>  (850) 
0.971

>  <alias>  (850) 
None

>  <energy_score>  (850) 
-1022.321104

>  <HIPPO Pose ID>  (850) 
86538

>  <distance_score>  (850) 
0.991848

>  <HIPPO Compound ID>  (850) 
121906

>  <gnina_score_min>  (850) 
5.051

>  <name>  (850) 
P86538

>  <exports>  (850) 
['/opt/xchem-fragalysis-2/maxwin/BulkDock/OUTPUTS/openbind_d68ev3c_c2_elabs_1LOTQJ3.sdf', '/opt/xchem-fragalysis-2/maxwin/BulkDock/OUTPUTS/openbind_d68ev3c_c2_elabs_1LSYEHW.sdf', '/opt/xchem-fragalysis-2/maxwin/BulkDock/OUTPUTS/openbind_d68ev3c_c2_elabs_1LSYI5W.sdf']

$$$$
P86541
     RDKit          3D

 27 30  0  0  0  0  0  0  0  0999 V2000
  -20.3770   -2.5700   19.3402 O   0  0  0  0  0  0  0  0  0  0  0  0
  -20.7712   -1.4644   19.5920 C   0  0  0  0  0  0  0  0  0  0  0  0
  -21.7056   -0.6198   18.8967 N   0  0  0  0  0  0  0  0  0  0  0  0
  -22.3968   -0.8003   17.6151 C   0  0  0  0  0  0  0  0  0  0  0  0
  -23.5446   -1.9019   17.6686 C   0  0  0  0  0  0  0  0  0  0  0  0
  -23.7682   -2.7295   18.7086 N   0  0  0  0  0  0  0  0  0  0  0  0
  -24.8814   -3.3781   18.2951 N   0  0  0  0  0  0  0  0  0  0  0  0
  -25.2537   -2.9921   17.0410 C   0  0  0  0  0  0  0  0  0  0  0  0
  -26.3637   -3.5079   16.3012 C   0  0  0  0  0  0  0  0  0  0  0  0
  -26.7800   -3.0857   15.0528 C   0  0  0  0  0  0  0  0  0  0  0  0
  -27.9221   -3.7981   14.5849 C   0  0  0  0  0  0  0  0  0  0  0  0
  -28.3402   -4.7467   15.4904 C   0  0  0  0  0  0  0  0  0  0  0  0
  -27.3586   -4.7726   16.8908 S   0  0  0  0  0  0  0  0  0  0  0  0
  -24.4313   -2.0544   16.6278 N   0  0  0  0  0  0  0  0  0  0  0  0
  -21.4498   -0.9306   16.3924 C   0  0  0  0  0  0  0  0  0  0  0  0
  -21.5717    0.5931   16.1917 C   0  0  0  0  0  0  0  0  0  0  0  0
  -22.8810    0.5467   16.9972 C   0  0  0  0  0  0  0  0  0  0  0  0
  -20.3158   -0.8210   20.9213 C   0  0  1  0  0  0  0  0  0  0  0  0
  -20.0479    0.9354   20.7479 Cl  0  0  0  0  0  0  0  0  0  0  0  0
  -21.2186   -1.0515   22.1193 C   0  0  0  0  0  0  0  0  0  0  0  0
  -20.6642   -1.5450   23.3128 C   0  0  0  0  0  0  0  0  0  0  0  0
  -21.4486   -1.6872   24.4607 C   0  0  0  0  0  0  0  0  0  0  0  0
  -22.8013   -1.3389   24.4397 C   0  0  0  0  0  0  0  0  0  0  0  0
  -23.7002   -1.5295   25.9025 Cl  0  0  0  0  0  0  0  0  0  0  0  0
  -23.3690   -0.8422   23.2642 C   0  0  0  0  0  0  0  0  0  0  0  0
  -25.0270   -0.3629   23.1660 Cl  0  0  0  0  0  0  0  0  0  0  0  0
  -22.5812   -0.7017   22.1131 C   0  0  0  0  0  0  0  0  0  0  0  0
  1  2  2  0
  2  3  1  0
  3  4  1  0
  4  5  1  0
  5  6  2  0
  6  7  1  0
  7  8  1  0
  8  9  1  0
  9 10  2  0
 10 11  1  0
 11 12  2  0
 12 13  1  0
  8 14  2  0
  4 15  1  0
 15 16  1  0
 16 17  1  0
  2 18  1  0
 18 19  1  6
 18 20  1  0
 20 21  2  0
 21 22  1  0
 22 23  2  0
 23 24  1  0
 23 25  1  0
 25 26  1  0
 25 27  2  0
 17  4  1  0
 27 20  1  0
 14  5  1  0
 13  9  1  0
M  END
>  <ref_mols>  (851) 
B1159b

>  <gnina_score>  (851) 
5.822

>  <smina_score_min>  (851) 
-4.586

>  <ref_pdb>  (851) 
B1159b

>  <inspiration_score>  (851) 
None

>  <inchikey>  (851) 
RZQDBHWRBGNMEV-AWEZNQCLSA-N

>  <tags>  (851) 
BulkDock Fragalysis export,openbind_d68ev3c_c2_elabs_scored,openbind_d68ev3c_c2_elabs_scored_4.5plus,openbind_d68ev3c_c2_elabs,openbind_d68ev3c_c2_elabs_scored_5plus,syndirella_product,openbind_d68ev3c_c2_elabs_scored_top80percent,syndirella_placed

>  <smiles>  (851) 
O=C(NC1(c2n[nH]c(-c3cccs3)n2)CCC1)[C@@H](Cl)c1ccc(Cl)c(Cl)c1

>  <subsites>  (851) 
None

>  <rmsd(smina/fragmenstein)>  (851) 
1.508

>  <alias>  (851) 
None

>  <energy_score>  (851) 
-49.939556

>  <HIPPO Pose ID>  (851) 
86541

>  <distance_score>  (851) 
1.19225

>  <HIPPO Compound ID>  (851) 
121908

>  <gnina_score_min>  (851) 
5.292

>  <name>  (851) 
P86541

>  <exports>  (851) 
['/opt/xchem-fragalysis-2/maxwin/BulkDock/OUTPUTS/openbind_d68ev3c_c2_elabs_1LOTQJ3.sdf', '/opt/xchem-fragalysis-2/maxwin/BulkDock/OUTPUTS/openbind_d68ev3c_c2_elabs_1LSYEHW.sdf', '/opt/xchem-fragalysis-2/maxwin/BulkDock/OUTPUTS/openbind_d68ev3c_c2_elabs_1LSYI5W.sdf']

$$$$
P92896
     RDKit          3D

 23 24  0  0  0  0  0  0  0  0999 V2000
   14.2329   -5.1135   17.9598 N   0  0  0  0  0  0  0  0  0  0  0  0
   13.8572   -4.1234   17.4907 C   0  0  0  0  0  0  0  0  0  0  0  0
   13.4490   -2.8878   16.8935 C   0  0  0  0  0  0  0  0  0  0  0  0
   12.2058   -2.8299   16.2488 C   0  0  0  0  0  0  0  0  0  0  0  0
   11.7649   -1.6236   15.7108 C   0  0  0  0  0  0  0  0  0  0  0  0
   10.1671   -1.4653   15.1187 Cl  0  0  0  0  0  0  0  0  0  0  0  0
   12.5783   -0.4991   15.7324 C   0  0  0  0  0  0  0  0  0  0  0  0
   13.8299   -0.5634   16.3413 C   0  0  0  0  0  0  0  0  0  0  0  0
   14.2667   -1.7449   16.9490 C   0  0  0  0  0  0  0  0  0  0  0  0
   15.4940   -1.7586   17.6204 N   0  0  0  0  0  0  0  0  0  0  0  0
   16.5903   -0.6538   17.7510 C   0  0  0  0  0  0  0  0  0  0  0  0
   16.6647    0.4033   17.2528 O   0  0  0  0  0  0  0  0  0  0  0  0
   17.6153   -1.1185   18.7471 C   0  0  0  0  0  0  0  0  0  0  0  0
   18.5311   -2.4793   18.1314 S   0  0  0  0  0  0  0  0  0  0  0  0
   19.7705   -2.5754   18.8752 O   0  0  0  0  0  0  0  0  0  0  0  0
   17.5913   -3.5910   18.1498 O   0  0  0  0  0  0  0  0  0  0  0  0
   18.9413   -2.1807   16.4337 C   0  0  0  0  0  0  0  0  0  0  0  0
   18.5078   -3.1172   15.4780 C   0  0  0  0  0  0  0  0  0  0  0  0
   18.8171   -2.9380   14.1295 C   0  0  0  0  0  0  0  0  0  0  0  0
   19.5512   -1.8262   13.7291 C   0  0  0  0  0  0  0  0  0  0  0  0
   19.9923   -0.9029   14.6782 C   0  0  0  0  0  0  0  0  0  0  0  0
   19.6994   -1.0781   16.0360 C   0  0  0  0  0  0  0  0  0  0  0  0
   20.3308    0.1028   17.1212 Cl  0  0  0  0  0  0  0  0  0  0  0  0
  1  2  3  0
  2  3  1  0
  3  4  2  0
  4  5  1  0
  5  6  1  0
  5  7  2  0
  7  8  1  0
  8  9  2  0
  9 10  1  0
 10 11  1  0
 11 12  2  0
 11 13  1  0
 13 14  1  0
 14 15  2  0
 14 16  2  0
 14 17  1  0
 17 18  2  0
 18 19  1  0
 19 20  2  0
 20 21  1  0
 21 22  2  0
 22 23  1  0
  9  3  1  0
 22 17  1  0
M  END
>  <ref_mols>  (852) 
B1396a

>  <gnina_score>  (852) 
5.175

>  <smina_score_min>  (852) 
-2.902

>  <ref_pdb>  (852) 
B1396a

>  <inspiration_score>  (852) 
None

>  <inchikey>  (852) 
SZABTDMEDOZKRL-UHFFFAOYSA-N

>  <tags>  (852) 
BulkDock Fragalysis export,openbind_d68ev3c_c2_elabs_scored,openbind_d68ev3c_c2_elabs_scored_4.5plus,openbind_d68ev3c_c2_elabs,openbind_d68ev3c_c2_elabs_scored_5plus,syndirella_product,openbind_d68ev3c_c2_elabs_scored_top80percent,syndirella_placed

>  <smiles>  (852) 
N#Cc1cc(Cl)ccc1NC(=O)CS(=O)(=O)c1ccccc1Cl

>  <subsites>  (852) 
None

>  <rmsd(smina/fragmenstein)>  (852) 
1.3

>  <alias>  (852) 
None

>  <energy_score>  (852) 
-34.655749

>  <HIPPO Pose ID>  (852) 
92896

>  <distance_score>  (852) 
0.539258

>  <HIPPO Compound ID>  (852) 
126688

>  <gnina_score_min>  (852) 
5.093

>  <name>  (852) 
P92896

>  <exports>  (852) 
['/opt/xchem-fragalysis-2/maxwin/BulkDock/OUTPUTS/openbind_d68ev3c_c2_elabs_1LOTQJ3.sdf', '/opt/xchem-fragalysis-2/maxwin/BulkDock/OUTPUTS/openbind_d68ev3c_c2_elabs_1LSYI5W.sdf']

$$$$
P93036
     RDKit          3D

 23 24  0  0  0  0  0  0  0  0999 V2000
   14.2900    0.9470   16.5134 C   0  0  0  0  0  0  0  0  0  0  0  0
   13.6811   -0.4250   16.4279 C   0  0  0  0  0  0  0  0  0  0  0  0
   12.4517   -0.4898   15.7493 C   0  0  0  0  0  0  0  0  0  0  0  0
   11.7236   -1.6659   15.7021 C   0  0  0  0  0  0  0  0  0  0  0  0
   10.1430   -1.6169   15.0551 Cl  0  0  0  0  0  0  0  0  0  0  0  0
   12.2177   -2.8219   16.2840 C   0  0  0  0  0  0  0  0  0  0  0  0
   13.4434   -2.7962   16.9699 C   0  0  0  0  0  0  0  0  0  0  0  0
   13.8690   -4.0656   17.6687 C   0  0  0  0  0  0  0  0  0  0  0  0
   14.2023   -1.5941   17.0231 C   0  0  0  0  0  0  0  0  0  0  0  0
   15.4279   -1.6544   17.7084 N   0  0  0  0  0  0  0  0  0  0  0  0
   16.6674   -0.7051   17.6549 C   0  0  0  0  0  0  0  0  0  0  0  0
   16.8824    0.2244   16.9755 O   0  0  0  0  0  0  0  0  0  0  0  0
   17.6405   -1.1337   18.7079 C   0  0  0  0  0  0  0  0  0  0  0  0
   18.5707   -2.5153   18.1645 S   0  0  0  0  0  0  0  0  0  0  0  0
   17.6924   -3.6645   18.2738 O   0  0  0  0  0  0  0  0  0  0  0  0
   19.8101   -2.5034   18.9226 O   0  0  0  0  0  0  0  0  0  0  0  0
   19.0074   -2.2070   16.4689 C   0  0  0  0  0  0  0  0  0  0  0  0
   20.0786   -1.3266   16.2439 C   0  0  0  0  0  0  0  0  0  0  0  0
   20.4964   -1.0384   14.9436 C   0  0  0  0  0  0  0  0  0  0  0  0
   19.8610   -1.6345   13.8601 C   0  0  0  0  0  0  0  0  0  0  0  0
   18.8049   -2.5160   14.0777 C   0  0  0  0  0  0  0  0  0  0  0  0
   18.3717   -2.8052   15.3792 C   0  0  0  0  0  0  0  0  0  0  0  0
   17.0346   -3.8710   15.4903 Cl  0  0  0  0  0  0  0  0  0  0  0  0
  1  2  1  0
  2  3  2  0
  3  4  1  0
  4  5  1  0
  4  6  2  0
  6  7  1  0
  7  8  1  0
  7  9  2  0
  9 10  1  0
 10 11  1  0
 11 12  2  0
 11 13  1  0
 13 14  1  0
 14 15  2  0
 14 16  2  0
 14 17  1  0
 17 18  2  0
 18 19  1  0
 19 20  2  0
 20 21  1  0
 21 22  2  0
 22 23  1  0
  9  2  1  0
 22 17  1  0
M  END
>  <ref_mols>  (853) 
B1396a

>  <gnina_score>  (853) 
5.093

>  <smina_score_min>  (853) 
-3.218

>  <ref_pdb>  (853) 
B1396a

>  <inspiration_score>  (853) 
None

>  <inchikey>  (853) 
QURBTLXREOSRRO-UHFFFAOYSA-N

>  <tags>  (853) 
BulkDock Fragalysis export,openbind_d68ev3c_c2_elabs_scored,openbind_d68ev3c_c2_elabs_scored_4.5plus,openbind_d68ev3c_c2_elabs,openbind_d68ev3c_c2_elabs_scored_5plus,syndirella_product,openbind_d68ev3c_c2_elabs_scored_top80percent,syndirella_placed

>  <smiles>  (853) 
Cc1cc(Cl)cc(C)c1NC(=O)CS(=O)(=O)c1ccccc1Cl

>  <subsites>  (853) 
None

>  <rmsd(smina/fragmenstein)>  (853) 
2.305

>  <alias>  (853) 
None

>  <energy_score>  (853) 
-29.907051

>  <HIPPO Pose ID>  (853) 
93036

>  <distance_score>  (853) 
0.567338

>  <HIPPO Compound ID>  (853) 
126813

>  <gnina_score_min>  (853) 
5.005

>  <name>  (853) 
P93036

>  <exports>  (853) 
['/opt/xchem-fragalysis-2/maxwin/BulkDock/OUTPUTS/openbind_d68ev3c_c2_elabs_1LOTQJ3.sdf', '/opt/xchem-fragalysis-2/maxwin/BulkDock/OUTPUTS/openbind_d68ev3c_c2_elabs_1LSYI5W.sdf']

$$$$
P93674
     RDKit          3D

 24 25  0  0  0  0  0  0  0  0999 V2000
   13.7615   -4.0961   17.5685 C   0  0  0  0  0  0  0  0  0  0  0  0
   13.3726   -2.8720   16.7880 C   0  0  0  0  0  0  0  0  0  0  0  0
   12.2060   -2.8923   16.0147 C   0  0  0  0  0  0  0  0  0  0  0  0
   11.4726   -4.0057   15.9583 F   0  0  0  0  0  0  0  0  0  0  0  0
   11.7721   -1.7906   15.2873 C   0  0  0  0  0  0  0  0  0  0  0  0
   12.5238   -0.6255   15.3173 C   0  0  0  0  0  0  0  0  0  0  0  0
   13.7055   -0.5823   16.0626 C   0  0  0  0  0  0  0  0  0  0  0  0
   14.1363   -1.6958   16.7955 C   0  0  0  0  0  0  0  0  0  0  0  0
   15.3334   -1.6503   17.5130 N   0  0  0  0  0  0  0  0  0  0  0  0
   16.3500   -0.4807   17.7171 C   0  0  0  0  0  0  0  0  0  0  0  0
   16.3736    0.5946   17.2507 O   0  0  0  0  0  0  0  0  0  0  0  0
   17.4141   -0.9019   18.7540 C   0  0  0  0  0  0  0  0  0  0  0  0
   16.7574   -1.1833   20.1174 C   0  0  0  0  0  0  0  0  0  0  0  0
   18.4121    0.2577   18.9610 C   0  0  0  0  0  0  0  0  0  0  0  0
   18.2829   -2.3637   18.1758 S   0  0  0  0  0  0  0  0  0  0  0  0
   19.5255   -2.4890   18.9156 O   0  0  0  0  0  0  0  0  0  0  0  0
   17.3359   -3.4682   18.1884 O   0  0  0  0  0  0  0  0  0  0  0  0
   18.7304   -2.0829   16.4732 C   0  0  0  0  0  0  0  0  0  0  0  0
   19.9032   -1.3802   16.1797 C   0  0  0  0  0  0  0  0  0  0  0  0
   20.2823   -1.1946   14.8487 C   0  0  0  0  0  0  0  0  0  0  0  0
   19.5046   -1.7298   13.8229 C   0  0  0  0  0  0  0  0  0  0  0  0
   19.9779   -1.4966   12.1864 Cl  0  0  0  0  0  0  0  0  0  0  0  0
   18.3508   -2.4573   14.1153 C   0  0  0  0  0  0  0  0  0  0  0  0
   17.9636   -2.6452   15.4453 C   0  0  0  0  0  0  0  0  0  0  0  0
  1  2  1  0
  2  3  2  0
  3  4  1  0
  3  5  1  0
  5  6  2  0
  6  7  1  0
  7  8  2  0
  8  9  1  0
  9 10  1  0
 10 11  2  0
 10 12  1  0
 12 13  1  0
 12 14  1  0
 12 15  1  0
 15 16  2  0
 15 17  2  0
 15 18  1  0
 18 19  2  0
 19 20  1  0
 20 21  2  0
 21 22  1  0
 21 23  1  0
 23 24  2  0
  8  2  1  0
 24 18  1  0
M  END
>  <ref_mols>  (854) 
B1396a

>  <gnina_score>  (854) 
4.972

>  <smina_score_min>  (854) 
-3.819

>  <ref_pdb>  (854) 
B1396a

>  <inspiration_score>  (854) 
None

>  <inchikey>  (854) 
VGDZXECWBMQBNU-UHFFFAOYSA-N

>  <tags>  (854) 
BulkDock Fragalysis export,openbind_d68ev3c_c2_elabs_scored,openbind_d68ev3c_c2_elabs_scored_4.5plus,openbind_d68ev3c_c2_elabs,openbind_d68ev3c_c2_elabs_scored_5plus,syndirella_product,openbind_d68ev3c_c2_elabs_scored_top80percent,syndirella_placed

>  <smiles>  (854) 
Cc1c(F)cccc1NC(=O)C(C)(C)S(=O)(=O)c1ccc(Cl)cc1

>  <subsites>  (854) 
None

>  <rmsd(smina/fragmenstein)>  (854) 
2.106

>  <alias>  (854) 
None

>  <energy_score>  (854) 
-34.618326

>  <HIPPO Pose ID>  (854) 
93674

>  <distance_score>  (854) 
0.524781

>  <HIPPO Compound ID>  (854) 
127500

>  <gnina_score_min>  (854) 
5.0

>  <name>  (854) 
P93674

>  <exports>  (854) 
['/opt/xchem-fragalysis-2/maxwin/BulkDock/OUTPUTS/openbind_d68ev3c_c2_elabs_1LOTQJ3.sdf', '/opt/xchem-fragalysis-2/maxwin/BulkDock/OUTPUTS/openbind_d68ev3c_c2_elabs_1LSYI5W.sdf']

$$$$
P93789
     RDKit          3D

 24 26  0  0  0  0  0  0  0  0999 V2000
   13.7431   -4.1012   17.5746 C   0  0  0  0  0  0  0  0  0  0  0  0
   13.3667   -2.8716   16.7966 C   0  0  0  0  0  0  0  0  0  0  0  0
   12.2010   -2.8787   16.0219 C   0  0  0  0  0  0  0  0  0  0  0  0
   11.4540   -3.9832   15.9653 F   0  0  0  0  0  0  0  0  0  0  0  0
   11.7811   -1.7721   15.2935 C   0  0  0  0  0  0  0  0  0  0  0  0
   12.5467   -0.6161   15.3239 C   0  0  0  0  0  0  0  0  0  0  0  0
   13.7284   -0.5866   16.0703 C   0  0  0  0  0  0  0  0  0  0  0  0
   14.1448   -1.7045   16.8047 C   0  0  0  0  0  0  0  0  0  0  0  0
   15.3444   -1.6768   17.5193 N   0  0  0  0  0  0  0  0  0  0  0  0
   16.3909   -0.5329   17.6979 C   0  0  0  0  0  0  0  0  0  0  0  0
   16.4425    0.5305   17.2107 O   0  0  0  0  0  0  0  0  0  0  0  0
   17.4154   -0.9784   18.7107 C   0  0  0  0  0  0  0  0  0  0  0  0
   18.3074   -2.3975   18.1799 S   0  0  0  0  0  0  0  0  0  0  0  0
   19.5299   -2.4930   18.9533 O   0  0  0  0  0  0  0  0  0  0  0  0
   17.3558   -3.4997   18.2136 O   0  0  0  0  0  0  0  0  0  0  0  0
   18.7739   -2.1750   16.5041 C   0  0  0  0  0  0  0  0  0  0  0  0
   18.5199   -3.1804   15.5445 C   0  0  0  0  0  0  0  0  0  0  0  0
   18.8915   -3.0510   14.1855 C   0  0  0  0  0  0  0  0  0  0  0  0
   19.5375   -1.9119   13.6736 C   0  0  0  0  0  0  0  0  0  0  0  0
   19.8176   -0.8785   14.5997 C   0  0  0  0  0  0  0  0  0  0  0  0
   20.4270    0.2821   14.3181 N   0  0  0  0  0  0  0  0  0  0  0  0
   20.5016    1.1346   15.7397 S   0  0  0  0  0  0  0  0  0  0  0  0
   19.7744    0.0637   16.7803 N   0  0  0  0  0  0  0  0  0  0  0  0
   19.4303   -1.0104   16.0525 C   0  0  0  0  0  0  0  0  0  0  0  0
  1  2  1  0
  2  3  2  0
  3  4  1  0
  3  5  1  0
  5  6  2  0
  6  7  1  0
  7  8  2  0
  8  9  1  0
  9 10  1  0
 10 11  2  0
 10 12  1  0
 12 13  1  0
 13 14  2  0
 13 15  2  0
 13 16  1  0
 16 17  2  0
 17 18  1  0
 18 19  2  0
 19 20  1  0
 20 21  2  0
 21 22  1  0
 22 23  1  0
 23 24  2  0
  8  2  1  0
 24 16  1  0
 24 20  1  0
M  END
>  <ref_mols>  (855) 
B1396a

>  <gnina_score>  (855) 
4.866

>  <smina_score_min>  (855) 
-3.672

>  <ref_pdb>  (855) 
B1396a

>  <inspiration_score>  (855) 
None

>  <inchikey>  (855) 
IGKAJUVBABYEQC-UHFFFAOYSA-N

>  <tags>  (855) 
BulkDock Fragalysis export,openbind_d68ev3c_c2_elabs_scored,openbind_d68ev3c_c2_elabs_scored_4.5plus,openbind_d68ev3c_c2_elabs,openbind_d68ev3c_c2_elabs_scored_5plus,syndirella_product,openbind_d68ev3c_c2_elabs_scored_top80percent,syndirella_placed

>  <smiles>  (855) 
Cc1c(F)cccc1NC(=O)CS(=O)(=O)c1cccc2nsnc12

>  <subsites>  (855) 
None

>  <rmsd(smina/fragmenstein)>  (855) 
2.479

>  <alias>  (855) 
None

>  <energy_score>  (855) 
-75.063093

>  <HIPPO Pose ID>  (855) 
93789

>  <distance_score>  (855) 
0.485328

>  <HIPPO Compound ID>  (855) 
127626

>  <gnina_score_min>  (855) 
5.005

>  <name>  (855) 
P93789

>  <exports>  (855) 
['/opt/xchem-fragalysis-2/maxwin/BulkDock/OUTPUTS/openbind_d68ev3c_c2_elabs_1LOTQJ3.sdf', '/opt/xchem-fragalysis-2/maxwin/BulkDock/OUTPUTS/openbind_d68ev3c_c2_elabs_1LSYI5W.sdf']

$$$$
P93811
     RDKit          3D

 24 26  0  0  0  0  0  0  0  0999 V2000
   13.7240   -4.1893   17.6310 C   0  0  0  0  0  0  0  0  0  0  0  0
   13.2885   -2.9924   16.8293 C   0  0  0  0  0  0  0  0  0  0  0  0
   12.1321   -3.0918   16.0359 C   0  0  0  0  0  0  0  0  0  0  0  0
   11.6862   -2.0137   15.2722 C   0  0  0  0  0  0  0  0  0  0  0  0
   12.3996   -0.8210   15.2991 C   0  0  0  0  0  0  0  0  0  0  0  0
   11.7389    0.7989   14.1751 I   0  0  0  0  0  0  0  0  0  0  0  0
   13.5563   -0.7032   16.0733 C   0  0  0  0  0  0  0  0  0  0  0  0
   14.0066   -1.7841   16.8387 C   0  0  0  0  0  0  0  0  0  0  0  0
   15.1640   -1.6655   17.6139 N   0  0  0  0  0  0  0  0  0  0  0  0
   16.2663   -0.5619   17.6255 C   0  0  0  0  0  0  0  0  0  0  0  0
   16.3309    0.4520   17.0425 O   0  0  0  0  0  0  0  0  0  0  0  0
   17.3078   -0.9246   18.6507 C   0  0  0  0  0  0  0  0  0  0  0  0
   18.2110   -2.3627   18.2149 S   0  0  0  0  0  0  0  0  0  0  0  0
   19.4185   -2.3688   19.0187 O   0  0  0  0  0  0  0  0  0  0  0  0
   17.2441   -3.4425   18.3137 O   0  0  0  0  0  0  0  0  0  0  0  0
   18.7318   -2.2197   16.5441 C   0  0  0  0  0  0  0  0  0  0  0  0
   19.0963   -0.9752   15.9864 C   0  0  0  0  0  0  0  0  0  0  0  0
   19.5215   -0.8282   14.6443 C   0  0  0  0  0  0  0  0  0  0  0  0
   19.6364   -1.9065   13.7528 C   0  0  0  0  0  0  0  0  0  0  0  0
   19.3306   -3.1829   14.2781 C   0  0  0  0  0  0  0  0  0  0  0  0
   19.4276   -4.3404   13.6103 N   0  0  0  0  0  0  0  0  0  0  0  0
   19.0623   -5.5453   14.6914 S   0  0  0  0  0  0  0  0  0  0  0  0
   18.6501   -4.6386   16.0160 N   0  0  0  0  0  0  0  0  0  0  0  0
   18.8675   -3.3514   15.7053 C   0  0  0  0  0  0  0  0  0  0  0  0
  1  2  1  0
  2  3  2  0
  3  4  1  0
  4  5  2  0
  5  6  1  0
  5  7  1  0
  7  8  2  0
  8  9  1  0
  9 10  1  0
 10 11  2  0
 10 12  1  0
 12 13  1  0
 13 14  2  0
 13 15  2  0
 13 16  1  0
 16 17  2  0
 17 18  1  0
 18 19  2  0
 19 20  1  0
 20 21  2  0
 21 22  1  0
 22 23  1  0
 23 24  2  0
  8  2  1  0
 24 16  1  0
 24 20  1  0
M  END
>  <ref_mols>  (856) 
B1396a

>  <gnina_score>  (856) 
4.935

>  <smina_score_min>  (856) 
-4.106

>  <ref_pdb>  (856) 
B1396a

>  <inspiration_score>  (856) 
None

>  <inchikey>  (856) 
UKKULBBZOYSKPD-UHFFFAOYSA-N

>  <tags>  (856) 
BulkDock Fragalysis export,openbind_d68ev3c_c2_elabs_scored,openbind_d68ev3c_c2_elabs_scored_4.5plus,openbind_d68ev3c_c2_elabs,openbind_d68ev3c_c2_elabs_scored_5plus,syndirella_product,openbind_d68ev3c_c2_elabs_scored_top80percent,syndirella_placed

>  <smiles>  (856) 
Cc1ccc(I)cc1NC(=O)CS(=O)(=O)c1cccc2nsnc12

>  <subsites>  (856) 
None

>  <rmsd(smina/fragmenstein)>  (856) 
2.217

>  <alias>  (856) 
None

>  <energy_score>  (856) 
-48.806307

>  <HIPPO Pose ID>  (856) 
93811

>  <distance_score>  (856) 
0.477118

>  <HIPPO Compound ID>  (856) 
127649

>  <gnina_score_min>  (856) 
5.002

>  <name>  (856) 
P93811

>  <exports>  (856) 
['/opt/xchem-fragalysis-2/maxwin/BulkDock/OUTPUTS/openbind_d68ev3c_c2_elabs_1LOTQJ3.sdf', '/opt/xchem-fragalysis-2/maxwin/BulkDock/OUTPUTS/openbind_d68ev3c_c2_elabs_1LSYI5W.sdf']

$$$$
P93842
     RDKit          3D

 24 26  0  0  0  0  0  0  0  0999 V2000
   13.8153   -4.1834   17.5924 C   0  0  0  0  0  0  0  0  0  0  0  0
   13.4223   -2.8950   16.9218 C   0  0  0  0  0  0  0  0  0  0  0  0
   12.1942   -2.8310   16.2426 C   0  0  0  0  0  0  0  0  0  0  0  0
   11.7572   -1.6268   15.6933 C   0  0  0  0  0  0  0  0  0  0  0  0
   10.1633   -1.4737   15.0891 Cl  0  0  0  0  0  0  0  0  0  0  0  0
   12.5638   -0.4995   15.7264 C   0  0  0  0  0  0  0  0  0  0  0  0
   13.7953   -0.5574   16.3719 C   0  0  0  0  0  0  0  0  0  0  0  0
   14.2144   -1.7345   16.9997 C   0  0  0  0  0  0  0  0  0  0  0  0
   15.3908   -1.7351   17.7466 N   0  0  0  0  0  0  0  0  0  0  0  0
   16.5144   -0.6799   17.8496 C   0  0  0  0  0  0  0  0  0  0  0  0
   16.5943    0.3872   17.3854 O   0  0  0  0  0  0  0  0  0  0  0  0
   17.5936   -1.1475   18.7419 C   0  0  0  0  0  0  0  0  0  0  0  0
   18.5142   -2.5860   18.1518 S   0  0  0  0  0  0  0  0  0  0  0  0
   17.5514   -3.6735   18.2053 O   0  0  0  0  0  0  0  0  0  0  0  0
   19.7716   -2.6595   18.8665 O   0  0  0  0  0  0  0  0  0  0  0  0
   18.8941   -2.2795   16.4484 C   0  0  0  0  0  0  0  0  0  0  0  0
   18.5451   -3.2254   15.4772 C   0  0  0  0  0  0  0  0  0  0  0  0
   18.8631   -2.9834   14.1385 C   0  0  0  0  0  0  0  0  0  0  0  0
   19.5174   -1.8032   13.7829 C   0  0  0  0  0  0  0  0  0  0  0  0
   19.9127   -1.5076   12.1358 Cl  0  0  0  0  0  0  0  0  0  0  0  0
   19.8639   -0.8634   14.7545 C   0  0  0  0  0  0  0  0  0  0  0  0
   19.5562   -1.1002   16.0957 C   0  0  0  0  0  0  0  0  0  0  0  0
   18.3593   -0.2011   19.6396 C   0  0  0  0  0  0  0  0  0  0  0  0
   17.3784   -1.1650   20.2438 C   0  0  0  0  0  0  0  0  0  0  0  0
  1  2  1  0
  2  3  2  0
  3  4  1  0
  4  5  1  0
  4  6  2  0
  6  7  1  0
  7  8  2  0
  8  9  1  0
  9 10  1  0
 10 11  2  0
 10 12  1  0
 12 13  1  0
 13 14  2  0
 13 15  2  0
 13 16  1  0
 16 17  2  0
 17 18  1  0
 18 19  2  0
 19 20  1  0
 19 21  1  0
 21 22  2  0
 12 23  1  0
 23 24  1  0
  8  2  1  0
 24 12  1  0
 22 16  1  0
M  END
>  <ref_mols>  (857) 
B1396a

>  <gnina_score>  (857) 
5.201

>  <smina_score_min>  (857) 
-3.283

>  <ref_pdb>  (857) 
B1396a

>  <inspiration_score>  (857) 
None

>  <inchikey>  (857) 
NOBDRPUSEFBJGW-UHFFFAOYSA-N

>  <tags>  (857) 
BulkDock Fragalysis export,openbind_d68ev3c_c2_elabs_scored,openbind_d68ev3c_c2_elabs_scored_4.5plus,openbind_d68ev3c_c2_elabs,openbind_d68ev3c_c2_elabs_scored_5plus,syndirella_product,openbind_d68ev3c_c2_elabs_scored_top80percent,syndirella_placed

>  <smiles>  (857) 
Cc1cc(Cl)ccc1NC(=O)C1(S(=O)(=O)c2ccc(Cl)cc2)CC1

>  <subsites>  (857) 
None

>  <rmsd(smina/fragmenstein)>  (857) 
1.978

>  <alias>  (857) 
None

>  <energy_score>  (857) 
-19.607087

>  <HIPPO Pose ID>  (857) 
93842

>  <distance_score>  (857) 
0.540197

>  <HIPPO Compound ID>  (857) 
127681

>  <gnina_score_min>  (857) 
5.003

>  <name>  (857) 
P93842

>  <exports>  (857) 
['/opt/xchem-fragalysis-2/maxwin/BulkDock/OUTPUTS/openbind_d68ev3c_c2_elabs_1LOTQJ3.sdf', '/opt/xchem-fragalysis-2/maxwin/BulkDock/OUTPUTS/openbind_d68ev3c_c2_elabs_1LSYI5W.sdf']

$$$$
P93843
     RDKit          3D

 24 26  0  0  0  0  0  0  0  0999 V2000
   13.6637   -4.0813   17.5609 C   0  0  0  0  0  0  0  0  0  0  0  0
   13.3000   -2.8448   16.7879 C   0  0  0  0  0  0  0  0  0  0  0  0
   12.1747   -2.8593   15.9554 C   0  0  0  0  0  0  0  0  0  0  0  0
   11.4545   -3.9767   15.8357 F   0  0  0  0  0  0  0  0  0  0  0  0
   11.7685   -1.7455   15.2307 C   0  0  0  0  0  0  0  0  0  0  0  0
   12.5090   -0.5760   15.3198 C   0  0  0  0  0  0  0  0  0  0  0  0
   13.6513   -0.5384   16.1242 C   0  0  0  0  0  0  0  0  0  0  0  0
   14.0520   -1.6625   16.8574 C   0  0  0  0  0  0  0  0  0  0  0  0
   15.1979   -1.6149   17.6533 N   0  0  0  0  0  0  0  0  0  0  0  0
   16.3270   -0.5641   17.7239 C   0  0  0  0  0  0  0  0  0  0  0  0
   16.4379    0.4637   17.1840 O   0  0  0  0  0  0  0  0  0  0  0  0
   17.3792   -0.9876   18.6720 C   0  0  0  0  0  0  0  0  0  0  0  0
   18.3417   -2.4391   18.1728 S   0  0  0  0  0  0  0  0  0  0  0  0
   19.5747   -2.4701   18.9332 O   0  0  0  0  0  0  0  0  0  0  0  0
   17.3941   -3.5391   18.2352 O   0  0  0  0  0  0  0  0  0  0  0  0
   18.7834   -2.1975   16.4733 C   0  0  0  0  0  0  0  0  0  0  0  0
   19.4666   -1.0361   16.1023 C   0  0  0  0  0  0  0  0  0  0  0  0
   19.8310   -0.8532   14.7667 C   0  0  0  0  0  0  0  0  0  0  0  0
   19.5201   -1.8292   13.8191 C   0  0  0  0  0  0  0  0  0  0  0  0
   19.9863   -1.6013   12.1797 Cl  0  0  0  0  0  0  0  0  0  0  0  0
   18.8456   -2.9920   14.1933 C   0  0  0  0  0  0  0  0  0  0  0  0
   18.4710   -3.1799   15.5262 C   0  0  0  0  0  0  0  0  0  0  0  0
   17.1133   -0.9490   20.1654 C   0  0  0  0  0  0  0  0  0  0  0  0
   18.1036    0.0027   19.5567 C   0  0  0  0  0  0  0  0  0  0  0  0
  1  2  1  0
  2  3  2  0
  3  4  1  0
  3  5  1  0
  5  6  2  0
  6  7  1  0
  7  8  2  0
  8  9  1  0
  9 10  1  0
 10 11  2  0
 10 12  1  0
 12 13  1  0
 13 14  2  0
 13 15  2  0
 13 16  1  0
 16 17  2  0
 17 18  1  0
 18 19  2  0
 19 20  1  0
 19 21  1  0
 21 22  2  0
 12 23  1  0
 23 24  1  0
  8  2  1  0
 24 12  1  0
 22 16  1  0
M  END
>  <ref_mols>  (858) 
B1396a

>  <gnina_score>  (858) 
5.014

>  <smina_score_min>  (858) 
-3.813

>  <ref_pdb>  (858) 
B1396a

>  <inspiration_score>  (858) 
None

>  <inchikey>  (858) 
UCCMIUYIMDEMFR-UHFFFAOYSA-N

>  <tags>  (858) 
BulkDock Fragalysis export,openbind_d68ev3c_c2_elabs_scored,openbind_d68ev3c_c2_elabs_scored_4.5plus,openbind_d68ev3c_c2_elabs,openbind_d68ev3c_c2_elabs_scored_5plus,syndirella_product,openbind_d68ev3c_c2_elabs_scored_top80percent,syndirella_placed

>  <smiles>  (858) 
Cc1c(F)cccc1NC(=O)C1(S(=O)(=O)c2ccc(Cl)cc2)CC1

>  <subsites>  (858) 
None

>  <rmsd(smina/fragmenstein)>  (858) 
2.103

>  <alias>  (858) 
None

>  <energy_score>  (858) 
-47.545344

>  <HIPPO Pose ID>  (858) 
93843

>  <distance_score>  (858) 
0.458708

>  <HIPPO Compound ID>  (858) 
127682

>  <gnina_score_min>  (858) 
5.046

>  <name>  (858) 
P93843

>  <exports>  (858) 
['/opt/xchem-fragalysis-2/maxwin/BulkDock/OUTPUTS/openbind_d68ev3c_c2_elabs_1LOTQJ3.sdf', '/opt/xchem-fragalysis-2/maxwin/BulkDock/OUTPUTS/openbind_d68ev3c_c2_elabs_1LSYI5W.sdf']

$$$$
P93998
     RDKit          3D

 24 25  0  0  0  0  0  0  0  0999 V2000
   17.0969   -1.2368   20.1249 C   0  0  0  0  0  0  0  0  0  0  0  0
   17.6575   -1.0615   18.7195 C   0  0  2  0  0  0  0  0  0  0  0  0
   16.5921   -0.6241   17.7327 C   0  0  0  0  0  0  0  0  0  0  0  0
   16.6480    0.4432   17.2515 O   0  0  0  0  0  0  0  0  0  0  0  0
   15.5090   -1.7415   17.5931 N   0  0  0  0  0  0  0  0  0  0  0  0
   14.2753   -1.7329   16.9332 C   0  0  0  0  0  0  0  0  0  0  0  0
   13.8294   -0.5531   16.3287 C   0  0  0  0  0  0  0  0  0  0  0  0
   12.5743   -0.4937   15.7266 C   0  0  0  0  0  0  0  0  0  0  0  0
   11.7650   -1.6210   15.7098 C   0  0  0  0  0  0  0  0  0  0  0  0
   10.1646   -1.4689   15.1229 Cl  0  0  0  0  0  0  0  0  0  0  0  0
   12.2126   -2.8248   16.2478 C   0  0  0  0  0  0  0  0  0  0  0  0
   13.4603   -2.8784   16.8849 C   0  0  0  0  0  0  0  0  0  0  0  0
   13.8713   -4.1118   17.4854 C   0  0  0  0  0  0  0  0  0  0  0  0
   14.2439   -5.1019   17.9572 N   0  0  0  0  0  0  0  0  0  0  0  0
   18.4993   -2.4989   18.1473 S   0  0  0  0  0  0  0  0  0  0  0  0
   17.5299   -3.5807   18.1811 O   0  0  0  0  0  0  0  0  0  0  0  0
   19.7538   -2.5984   18.8655 O   0  0  0  0  0  0  0  0  0  0  0  0
   18.9118   -2.2179   16.4415 C   0  0  0  0  0  0  0  0  0  0  0  0
   19.6739   -1.0977   16.0938 C   0  0  0  0  0  0  0  0  0  0  0  0
   20.0004   -0.8851   14.7542 C   0  0  0  0  0  0  0  0  0  0  0  0
   19.5776   -1.7926   13.7873 C   0  0  0  0  0  0  0  0  0  0  0  0
   19.9045   -1.5855   12.5059 F   0  0  0  0  0  0  0  0  0  0  0  0
   18.8328   -2.9165   14.1316 C   0  0  0  0  0  0  0  0  0  0  0  0
   18.4932   -3.1350   15.4676 C   0  0  0  0  0  0  0  0  0  0  0  0
  2  1  1  1
  2  3  1  0
  3  4  2  0
  3  5  1  0
  5  6  1  0
  6  7  2  0
  7  8  1  0
  8  9  2  0
  9 10  1  0
  9 11  1  0
 11 12  2  0
 12 13  1  0
 13 14  3  0
  2 15  1  0
 15 16  2  0
 15 17  2  0
 15 18  1  0
 18 19  2  0
 19 20  1  0
 20 21  2  0
 21 22  1  0
 21 23  1  0
 23 24  2  0
 12  6  1  0
 24 18  1  0
M  END
>  <ref_mols>  (859) 
B1396a

>  <gnina_score>  (859) 
5.192

>  <smina_score_min>  (859) 
-2.933

>  <ref_pdb>  (859) 
B1396a

>  <inspiration_score>  (859) 
None

>  <inchikey>  (859) 
VURQKXXWHQWJKB-SNVBAGLBSA-N

>  <tags>  (859) 
BulkDock Fragalysis export,openbind_d68ev3c_c2_elabs_scored,openbind_d68ev3c_c2_elabs_scored_4.5plus,openbind_d68ev3c_c2_elabs,openbind_d68ev3c_c2_elabs_scored_5plus,syndirella_product,openbind_d68ev3c_c2_elabs_scored_top80percent,syndirella_placed

>  <smiles>  (859) 
C[C@H](C(=O)Nc1ccc(Cl)cc1C#N)S(=O)(=O)c1ccc(F)cc1

>  <subsites>  (859) 
None

>  <rmsd(smina/fragmenstein)>  (859) 
1.374

>  <alias>  (859) 
None

>  <energy_score>  (859) 
-30.679976

>  <HIPPO Pose ID>  (859) 
93998

>  <distance_score>  (859) 
0.546397

>  <HIPPO Compound ID>  (859) 
127847

>  <gnina_score_min>  (859) 
5.085

>  <name>  (859) 
P93998

>  <exports>  (859) 
['/opt/xchem-fragalysis-2/maxwin/BulkDock/OUTPUTS/openbind_d68ev3c_c2_elabs_1LOTQJ3.sdf', '/opt/xchem-fragalysis-2/maxwin/BulkDock/OUTPUTS/openbind_d68ev3c_c2_elabs_1LSYI5W.sdf']

$$$$
P94025
     RDKit          3D

 24 25  0  0  0  0  0  0  0  0999 V2000
   14.2588    0.9849   16.5556 C   0  0  0  0  0  0  0  0  0  0  0  0
   13.6756   -0.3958   16.4455 C   0  0  0  0  0  0  0  0  0  0  0  0
   12.4357   -0.4631   15.7835 C   0  0  0  0  0  0  0  0  0  0  0  0
   11.7263   -1.6490   15.7069 C   0  0  0  0  0  0  0  0  0  0  0  0
   10.1407   -1.6071   15.0707 Cl  0  0  0  0  0  0  0  0  0  0  0  0
   12.2483   -2.8137   16.2441 C   0  0  0  0  0  0  0  0  0  0  0  0
   13.4871   -2.7870   16.9072 C   0  0  0  0  0  0  0  0  0  0  0  0
   13.9644   -4.0773   17.5330 C   0  0  0  0  0  0  0  0  0  0  0  0
   14.2289   -1.5729   16.9928 C   0  0  0  0  0  0  0  0  0  0  0  0
   15.4616   -1.6505   17.6687 N   0  0  0  0  0  0  0  0  0  0  0  0
   16.6539   -0.6399   17.7254 C   0  0  0  0  0  0  0  0  0  0  0  0
   16.8195    0.3717   17.1566 O   0  0  0  0  0  0  0  0  0  0  0  0
   17.6727   -1.1094   18.7419 C   0  0  1  0  0  0  0  0  0  0  0  0
   17.0971   -1.2481   20.1446 C   0  0  0  0  0  0  0  0  0  0  0  0
   18.4621   -2.5790   18.1790 S   0  0  0  0  0  0  0  0  0  0  0  0
   19.7044   -2.7217   18.9125 O   0  0  0  0  0  0  0  0  0  0  0  0
   17.4598   -3.6320   18.2082 O   0  0  0  0  0  0  0  0  0  0  0  0
   18.9086   -2.3055   16.4795 C   0  0  0  0  0  0  0  0  0  0  0  0
   18.4426   -3.1772   15.4869 C   0  0  0  0  0  0  0  0  0  0  0  0
   18.8095   -2.9571   14.1578 C   0  0  0  0  0  0  0  0  0  0  0  0
   19.6259   -1.8760   13.8387 C   0  0  0  0  0  0  0  0  0  0  0  0
   19.9775   -1.6691   12.5637 F   0  0  0  0  0  0  0  0  0  0  0  0
   20.0955   -1.0135   14.8241 C   0  0  0  0  0  0  0  0  0  0  0  0
   19.7441   -1.2299   16.1567 C   0  0  0  0  0  0  0  0  0  0  0  0
  1  2  1  0
  2  3  2  0
  3  4  1  0
  4  5  1  0
  4  6  2  0
  6  7  1  0
  7  8  1  0
  7  9  2  0
  9 10  1  0
 10 11  1  0
 11 12  2  0
 11 13  1  0
 13 14  1  1
 13 15  1  0
 15 16  2  0
 15 17  2  0
 15 18  1  0
 18 19  2  0
 19 20  1  0
 20 21  2  0
 21 22  1  0
 21 23  1  0
 23 24  2  0
  9  2  1  0
 24 18  1  0
M  END
>  <ref_mols>  (860) 
B1396a

>  <gnina_score>  (860) 
5.088

>  <smina_score_min>  (860) 
-3.431

>  <ref_pdb>  (860) 
B1396a

>  <inspiration_score>  (860) 
None

>  <inchikey>  (860) 
XWPHBBXRWSNUKM-GFCCVEGCSA-N

>  <tags>  (860) 
BulkDock Fragalysis export,openbind_d68ev3c_c2_elabs_scored,openbind_d68ev3c_c2_elabs_scored_4.5plus,openbind_d68ev3c_c2_elabs,openbind_d68ev3c_c2_elabs_scored_5plus,syndirella_product,openbind_d68ev3c_c2_elabs_scored_top80percent,syndirella_placed

>  <smiles>  (860) 
Cc1cc(Cl)cc(C)c1NC(=O)[C@@H](C)S(=O)(=O)c1ccc(F)cc1

>  <subsites>  (860) 
None

>  <rmsd(smina/fragmenstein)>  (860) 
2.192

>  <alias>  (860) 
None

>  <energy_score>  (860) 
-33.631303

>  <HIPPO Pose ID>  (860) 
94025

>  <distance_score>  (860) 
0.547024

>  <HIPPO Compound ID>  (860) 
127864

>  <gnina_score_min>  (860) 
5.007

>  <name>  (860) 
P94025

>  <exports>  (860) 
['/opt/xchem-fragalysis-2/maxwin/BulkDock/OUTPUTS/openbind_d68ev3c_c2_elabs_1LOTQJ3.sdf', '/opt/xchem-fragalysis-2/maxwin/BulkDock/OUTPUTS/openbind_d68ev3c_c2_elabs_1LSYI5W.sdf']

$$$$
P94093
     RDKit          3D

 24 25  0  0  0  0  0  0  0  0999 V2000
   19.9858   -1.9942   12.2742 C   0  0  0  0  0  0  0  0  0  0  0  0
   19.6026   -2.0692   13.7286 C   0  0  0  0  0  0  0  0  0  0  0  0
   18.8909   -3.1889   14.1901 C   0  0  0  0  0  0  0  0  0  0  0  0
   18.5085   -3.2929   15.5272 C   0  0  0  0  0  0  0  0  0  0  0  0
   18.8526   -2.2744   16.4149 C   0  0  0  0  0  0  0  0  0  0  0  0
   18.3593   -2.3812   18.1137 S   0  0  0  0  0  0  0  0  0  0  0  0
   19.5712   -2.3519   18.9103 O   0  0  0  0  0  0  0  0  0  0  0  0
   17.4282   -3.4913   18.2452 O   0  0  0  0  0  0  0  0  0  0  0  0
   17.4413   -0.9274   18.4765 C   0  0  0  0  0  0  0  0  0  0  0  0
   16.4330   -0.6499   17.3973 C   0  0  0  0  0  0  0  0  0  0  0  0
   16.5884    0.2159   16.6249 O   0  0  0  0  0  0  0  0  0  0  0  0
   15.2526   -1.6602   17.5609 N   0  0  0  0  0  0  0  0  0  0  0  0
   14.0208   -1.7424   16.8860 C   0  0  0  0  0  0  0  0  0  0  0  0
   13.3828   -3.0084   16.9026 C   0  0  0  0  0  0  0  0  0  0  0  0
   13.9445   -4.1937   17.6470 C   0  0  0  0  0  0  0  0  0  0  0  0
   12.1906   -3.1930   16.1872 C   0  0  0  0  0  0  0  0  0  0  0  0
   11.6250   -2.1457   15.4813 C   0  0  0  0  0  0  0  0  0  0  0  0
   10.4704   -2.3406   14.8365 F   0  0  0  0  0  0  0  0  0  0  0  0
   12.2028   -0.8908   15.4927 C   0  0  0  0  0  0  0  0  0  0  0  0
   13.3874   -0.6778   16.2079 C   0  0  0  0  0  0  0  0  0  0  0  0
   13.8497    0.9800   16.3541 Cl  0  0  0  0  0  0  0  0  0  0  0  0
   19.5864   -1.1662   15.9834 C   0  0  0  0  0  0  0  0  0  0  0  0
   19.9618   -1.0509   14.6362 C   0  0  0  0  0  0  0  0  0  0  0  0
   20.7330    0.1609   14.1872 C   0  0  0  0  0  0  0  0  0  0  0  0
  1  2  1  0
  2  3  2  0
  3  4  1  0
  4  5  2  0
  5  6  1  0
  6  7  2  0
  6  8  2  0
  6  9  1  0
  9 10  1  0
 10 11  2  0
 10 12  1  0
 12 13  1  0
 13 14  2  0
 14 15  1  0
 14 16  1  0
 16 17  2  0
 17 18  1  0
 17 19  1  0
 19 20  2  0
 20 21  1  0
  5 22  1  0
 22 23  2  0
 23 24  1  0
 23  2  1  0
 20 13  1  0
M  END
>  <ref_mols>  (861) 
B1396a

>  <gnina_score>  (861) 
5.012

>  <smina_score_min>  (861) 
-3.675

>  <ref_pdb>  (861) 
B1396a

>  <inspiration_score>  (861) 
None

>  <inchikey>  (861) 
AZFKDNUFJNBZFE-UHFFFAOYSA-N

>  <tags>  (861) 
BulkDock Fragalysis export,openbind_d68ev3c_c2_elabs_scored,openbind_d68ev3c_c2_elabs_scored_4.5plus,openbind_d68ev3c_c2_elabs,openbind_d68ev3c_c2_elabs_scored_5plus,syndirella_product,openbind_d68ev3c_c2_elabs_scored_top80percent,syndirella_placed

>  <smiles>  (861) 
Cc1ccc(S(=O)(=O)CC(=O)Nc2c(C)cc(F)cc2Cl)cc1C

>  <subsites>  (861) 
None

>  <rmsd(smina/fragmenstein)>  (861) 
1.626

>  <alias>  (861) 
None

>  <energy_score>  (861) 
-35.837624

>  <HIPPO Pose ID>  (861) 
94093

>  <distance_score>  (861) 
0.315702

>  <HIPPO Compound ID>  (861) 
127929

>  <gnina_score_min>  (861) 
5.056

>  <name>  (861) 
P94093

>  <exports>  (861) 
['/opt/xchem-fragalysis-2/maxwin/BulkDock/OUTPUTS/openbind_d68ev3c_c2_elabs_1LOTQJ3.sdf', '/opt/xchem-fragalysis-2/maxwin/BulkDock/OUTPUTS/openbind_d68ev3c_c2_elabs_1LSYI5W.sdf']

$$$$
P94122
     RDKit          3D

 24 25  0  0  0  0  0  0  0  0999 V2000
   19.9700   -1.2430   12.3315 C   0  0  0  0  0  0  0  0  0  0  0  0
   19.5635   -1.6222   13.7309 C   0  0  0  0  0  0  0  0  0  0  0  0
   20.4555   -1.3776   14.7869 C   0  0  0  0  0  0  0  0  0  0  0  0
   20.1134   -1.6906   16.1011 C   0  0  0  0  0  0  0  0  0  0  0  0
   18.8705   -2.2598   16.3652 C   0  0  0  0  0  0  0  0  0  0  0  0
   18.4332   -2.6469   18.0412 S   0  0  0  0  0  0  0  0  0  0  0  0
   17.4085   -3.6777   18.0124 O   0  0  0  0  0  0  0  0  0  0  0  0
   19.6621   -2.8630   18.7815 O   0  0  0  0  0  0  0  0  0  0  0  0
   17.6845   -1.2063   18.6997 C   0  0  0  0  0  0  0  0  0  0  0  0
   16.6823   -0.6534   17.7322 C   0  0  0  0  0  0  0  0  0  0  0  0
   16.8982    0.3284   17.1310 O   0  0  0  0  0  0  0  0  0  0  0  0
   15.3953   -1.5413   17.7945 N   0  0  0  0  0  0  0  0  0  0  0  0
   14.1877   -1.4514   17.0766 C   0  0  0  0  0  0  0  0  0  0  0  0
   13.4319   -2.6431   16.9078 C   0  0  0  0  0  0  0  0  0  0  0  0
   13.8739   -3.9701   17.4777 C   0  0  0  0  0  0  0  0  0  0  0  0
   12.2014   -2.5999   16.2233 C   0  0  0  0  0  0  0  0  0  0  0  0
   11.7048   -1.3868   15.7600 C   0  0  0  0  0  0  0  0  0  0  0  0
    9.9318   -1.2174   15.1526 Br  0  0  0  0  0  0  0  0  0  0  0  0
   12.4408   -0.2236   15.8993 C   0  0  0  0  0  0  0  0  0  0  0  0
   13.6620   -0.2434   16.5743 C   0  0  0  0  0  0  0  0  0  0  0  0
   14.2720    1.3295   16.9557 Cl  0  0  0  0  0  0  0  0  0  0  0  0
   17.9729   -2.5316   15.3262 C   0  0  0  0  0  0  0  0  0  0  0  0
   18.2964   -2.1772   14.0061 C   0  0  0  0  0  0  0  0  0  0  0  0
   17.2845   -2.3702   12.9092 C   0  0  0  0  0  0  0  0  0  0  0  0
  1  2  1  0
  2  3  2  0
  3  4  1  0
  4  5  2  0
  5  6  1  0
  6  7  2  0
  6  8  2  0
  6  9  1  0
  9 10  1  0
 10 11  2  0
 10 12  1  0
 12 13  1  0
 13 14  2  0
 14 15  1  0
 14 16  1  0
 16 17  2  0
 17 18  1  0
 17 19  1  0
 19 20  2  0
 20 21  1  0
  5 22  1  0
 22 23  2  0
 23 24  1  0
 23  2  1  0
 20 13  1  0
M  END
>  <ref_mols>  (862) 
B1396a

>  <gnina_score>  (862) 
5.273

>  <smina_score_min>  (862) 
-3.375

>  <ref_pdb>  (862) 
B1396a

>  <inspiration_score>  (862) 
None

>  <inchikey>  (862) 
YECNELVRMQEPQI-UHFFFAOYSA-N

>  <tags>  (862) 
BulkDock Fragalysis export,openbind_d68ev3c_c2_elabs_scored,openbind_d68ev3c_c2_elabs_scored_4.5plus,openbind_d68ev3c_c2_elabs,openbind_d68ev3c_c2_elabs_scored_5plus,syndirella_product,openbind_d68ev3c_c2_elabs_scored_top80percent,syndirella_placed

>  <smiles>  (862) 
Cc1ccc(S(=O)(=O)CC(=O)Nc2c(C)cc(Br)cc2Cl)cc1C

>  <subsites>  (862) 
None

>  <rmsd(smina/fragmenstein)>  (862) 
2.026

>  <alias>  (862) 
None

>  <energy_score>  (862) 
-27.008966

>  <HIPPO Pose ID>  (862) 
94122

>  <distance_score>  (862) 
0.685539

>  <HIPPO Compound ID>  (862) 
127971

>  <gnina_score_min>  (862) 
5.052

>  <name>  (862) 
P94122

>  <exports>  (862) 
['/opt/xchem-fragalysis-2/maxwin/BulkDock/OUTPUTS/openbind_d68ev3c_c2_elabs_1LOTQJ3.sdf', '/opt/xchem-fragalysis-2/maxwin/BulkDock/OUTPUTS/openbind_d68ev3c_c2_elabs_1LSYI5W.sdf']

$$$$
P94125
     RDKit          3D

 24 25  0  0  0  0  0  0  0  0999 V2000
   20.2967   -1.8341   12.3640 C   0  0  0  0  0  0  0  0  0  0  0  0
   19.7935   -1.9919   13.7744 C   0  0  0  0  0  0  0  0  0  0  0  0
   19.9002   -0.9098   14.6619 C   0  0  0  0  0  0  0  0  0  0  0  0
   19.4755   -1.0241   15.9847 C   0  0  0  0  0  0  0  0  0  0  0  0
   18.9107   -2.2211   16.4208 C   0  0  0  0  0  0  0  0  0  0  0  0
   18.3541   -2.3715   18.0974 S   0  0  0  0  0  0  0  0  0  0  0  0
   19.5390   -2.3484   18.9334 O   0  0  0  0  0  0  0  0  0  0  0  0
   17.4345   -3.4964   18.1649 O   0  0  0  0  0  0  0  0  0  0  0  0
   17.4040   -0.9437   18.4790 C   0  0  0  0  0  0  0  0  0  0  0  0
   16.4064   -0.6542   17.3924 C   0  0  0  0  0  0  0  0  0  0  0  0
   16.5671    0.2216   16.6319 O   0  0  0  0  0  0  0  0  0  0  0  0
   15.2270   -1.6659   17.5344 N   0  0  0  0  0  0  0  0  0  0  0  0
   13.9991   -1.7408   16.8490 C   0  0  0  0  0  0  0  0  0  0  0  0
   13.3616   -3.0098   16.8807 C   0  0  0  0  0  0  0  0  0  0  0  0
   13.9250   -4.1889   17.6357 C   0  0  0  0  0  0  0  0  0  0  0  0
   12.1663   -3.2068   16.1765 C   0  0  0  0  0  0  0  0  0  0  0  0
   11.5944   -2.1700   15.4652 C   0  0  0  0  0  0  0  0  0  0  0  0
   10.4319   -2.3707   14.8367 F   0  0  0  0  0  0  0  0  0  0  0  0
   12.1732   -0.9146   15.4569 C   0  0  0  0  0  0  0  0  0  0  0  0
   13.3685   -0.6772   16.1572 C   0  0  0  0  0  0  0  0  0  0  0  0
   13.8088    1.0561   16.2345 S   0  0  0  0  0  0  0  0  0  0  0  0
   18.8004   -3.3144   15.5558 C   0  0  0  0  0  0  0  0  0  0  0  0
   19.2644   -3.2161   14.2336 C   0  0  0  0  0  0  0  0  0  0  0  0
   19.2432   -4.4306   13.3444 C   0  0  0  0  0  0  0  0  0  0  0  0
  1  2  1  0
  2  3  2  0
  3  4  1  0
  4  5  2  0
  5  6  1  0
  6  7  2  0
  6  8  2  0
  6  9  1  0
  9 10  1  0
 10 11  2  0
 10 12  1  0
 12 13  1  0
 13 14  2  0
 14 15  1  0
 14 16  1  0
 16 17  2  0
 17 18  1  0
 17 19  1  0
 19 20  2  0
 20 21  1  0
  5 22  1  0
 22 23  2  0
 23 24  1  0
 23  2  1  0
 20 13  1  0
M  END
>  <ref_mols>  (863) 
B1396a

>  <gnina_score>  (863) 
5.032

>  <smina_score_min>  (863) 
-3.838

>  <ref_pdb>  (863) 
B1396a

>  <inspiration_score>  (863) 
None

>  <inchikey>  (863) 
PIXDCQXOZVRQTJ-UHFFFAOYSA-N

>  <tags>  (863) 
BulkDock Fragalysis export,openbind_d68ev3c_c2_elabs_scored,openbind_d68ev3c_c2_elabs_scored_4.5plus,openbind_d68ev3c_c2_elabs,openbind_d68ev3c_c2_elabs_scored_5plus,syndirella_product,openbind_d68ev3c_c2_elabs_scored_top80percent,syndirella_placed

>  <smiles>  (863) 
Cc1ccc(S(=O)(=O)CC(=O)Nc2c(C)cc(F)cc2S)cc1C

>  <subsites>  (863) 
None

>  <rmsd(smina/fragmenstein)>  (863) 
1.953

>  <alias>  (863) 
None

>  <energy_score>  (863) 
-25.941097

>  <HIPPO Pose ID>  (863) 
94125

>  <distance_score>  (863) 
0.374693

>  <HIPPO Compound ID>  (863) 
127976

>  <gnina_score_min>  (863) 
5.046

>  <name>  (863) 
P94125

>  <exports>  (863) 
['/opt/xchem-fragalysis-2/maxwin/BulkDock/OUTPUTS/openbind_d68ev3c_c2_elabs_1LOTQJ3.sdf', '/opt/xchem-fragalysis-2/maxwin/BulkDock/OUTPUTS/openbind_d68ev3c_c2_elabs_1LSYI5W.sdf']

$$$$
P94249
     RDKit          3D

 24 25  0  0  0  0  0  0  0  0999 V2000
   14.2327   -5.1094   18.1270 N   0  0  0  0  0  0  0  0  0  0  0  0
   13.8615   -4.1358   17.6215 C   0  0  0  0  0  0  0  0  0  0  0  0
   13.4685   -2.9175   16.9815 C   0  0  0  0  0  0  0  0  0  0  0  0
   12.2499   -2.8795   16.2929 C   0  0  0  0  0  0  0  0  0  0  0  0
   11.8370   -1.6927   15.6949 C   0  0  0  0  0  0  0  0  0  0  0  0
   10.2549   -1.5479   15.0639 Cl  0  0  0  0  0  0  0  0  0  0  0  0
   12.6634   -0.5769   15.6860 C   0  0  0  0  0  0  0  0  0  0  0  0
   13.8941   -0.6238   16.3381 C   0  0  0  0  0  0  0  0  0  0  0  0
   14.2883   -1.7759   17.0255 C   0  0  0  0  0  0  0  0  0  0  0  0
   15.4579   -1.7532   17.7912 N   0  0  0  0  0  0  0  0  0  0  0  0
   16.6126   -0.6988   17.8503 C   0  0  0  0  0  0  0  0  0  0  0  0
   16.7166    0.3432   17.3237 O   0  0  0  0  0  0  0  0  0  0  0  0
   17.6332   -1.2003   18.8508 C   0  0  1  0  0  0  0  0  0  0  0  0
   17.0039   -1.5998   20.0054 F   0  0  0  0  0  0  0  0  0  0  0  0
   18.5789   -2.5195   18.1378 S   0  0  0  0  0  0  0  0  0  0  0  0
   17.6995   -3.6802   18.1194 O   0  0  0  0  0  0  0  0  0  0  0  0
   19.8586   -2.6064   18.8160 O   0  0  0  0  0  0  0  0  0  0  0  0
   18.9232   -2.1290   16.4359 C   0  0  0  0  0  0  0  0  0  0  0  0
   18.4449   -3.0217   15.4574 C   0  0  0  0  0  0  0  0  0  0  0  0
   18.7165   -2.8009   14.1072 C   0  0  0  0  0  0  0  0  0  0  0  0
   19.4600   -1.6907   13.7244 C   0  0  0  0  0  0  0  0  0  0  0  0
   19.9459   -0.8098   14.6912 C   0  0  0  0  0  0  0  0  0  0  0  0
   19.6910   -1.0261   16.0522 C   0  0  0  0  0  0  0  0  0  0  0  0
   20.4586    0.2287   17.2491 Br  0  0  0  0  0  0  0  0  0  0  0  0
  1  2  3  0
  2  3  1  0
  3  4  2  0
  4  5  1  0
  5  6  1  0
  5  7  2  0
  7  8  1  0
  8  9  2  0
  9 10  1  0
 10 11  1  0
 11 12  2  0
 11 13  1  0
 13 14  1  1
 13 15  1  0
 15 16  2  0
 15 17  2  0
 15 18  1  0
 18 19  2  0
 19 20  1  0
 20 21  2  0
 21 22  1  0
 22 23  2  0
 23 24  1  0
  9  3  1  0
 23 18  1  0
M  END
>  <ref_mols>  (864) 
B1396a

>  <gnina_score>  (864) 
5.298

>  <smina_score_min>  (864) 
-2.994

>  <ref_pdb>  (864) 
B1396a

>  <inspiration_score>  (864) 
None

>  <inchikey>  (864) 
PVDABJOYDOOYOG-AWEZNQCLSA-N

>  <tags>  (864) 
BulkDock Fragalysis export,openbind_d68ev3c_c2_elabs_scored,openbind_d68ev3c_c2_elabs_scored_4.5plus,openbind_d68ev3c_c2_elabs,openbind_d68ev3c_c2_elabs_scored_5plus,syndirella_product,openbind_d68ev3c_c2_elabs_scored_top80percent,syndirella_placed

>  <smiles>  (864) 
N#Cc1cc(Cl)ccc1NC(=O)[C@@H](F)S(=O)(=O)c1ccccc1Br

>  <subsites>  (864) 
None

>  <rmsd(smina/fragmenstein)>  (864) 
1.298

>  <alias>  (864) 
None

>  <energy_score>  (864) 
-35.777584

>  <HIPPO Pose ID>  (864) 
94249

>  <distance_score>  (864) 
0.566028

>  <HIPPO Compound ID>  (864) 
128058

>  <gnina_score_min>  (864) 
5.022

>  <name>  (864) 
P94249

>  <exports>  (864) 
['/opt/xchem-fragalysis-2/maxwin/BulkDock/OUTPUTS/openbind_d68ev3c_c2_elabs_1LOTQJ3.sdf', '/opt/xchem-fragalysis-2/maxwin/BulkDock/OUTPUTS/openbind_d68ev3c_c2_elabs_1LSYI5W.sdf']

$$$$
P94265
     RDKit          3D

 24 25  0  0  0  0  0  0  0  0999 V2000
   13.8549   -4.1549   17.8047 C   0  0  0  0  0  0  0  0  0  0  0  0
   13.3272   -3.0202   16.9643 C   0  0  0  0  0  0  0  0  0  0  0  0
   12.1773   -3.2536   16.2002 C   0  0  0  0  0  0  0  0  0  0  0  0
   11.6559   -2.2577   15.3949 C   0  0  0  0  0  0  0  0  0  0  0  0
   10.5397   -2.4996   14.7008 F   0  0  0  0  0  0  0  0  0  0  0  0
   12.2457   -1.0077   15.3392 C   0  0  0  0  0  0  0  0  0  0  0  0
   13.3964   -0.7365   16.0956 C   0  0  0  0  0  0  0  0  0  0  0  0
   13.8981    0.9814   16.0850 S   0  0  0  0  0  0  0  0  0  0  0  0
   13.9580   -1.7540   16.9045 C   0  0  0  0  0  0  0  0  0  0  0  0
   15.1080   -1.5907   17.6924 N   0  0  0  0  0  0  0  0  0  0  0  0
   16.4035   -0.7548   17.4353 C   0  0  0  0  0  0  0  0  0  0  0  0
   16.6708   -0.0179   16.5646 O   0  0  0  0  0  0  0  0  0  0  0  0
   17.3585   -1.0607   18.5725 C   0  0  1  0  0  0  0  0  0  0  0  0
   16.6671   -1.3480   19.7267 F   0  0  0  0  0  0  0  0  0  0  0  0
   18.4005   -2.4228   18.0904 S   0  0  0  0  0  0  0  0  0  0  0  0
   19.6088   -2.4142   18.8952 O   0  0  0  0  0  0  0  0  0  0  0  0
   17.5564   -3.6109   18.1027 O   0  0  0  0  0  0  0  0  0  0  0  0
   18.9029   -2.1746   16.4005 C   0  0  0  0  0  0  0  0  0  0  0  0
   18.4931   -3.1316   15.4534 C   0  0  0  0  0  0  0  0  0  0  0  0
   18.8588   -2.9989   14.1139 C   0  0  0  0  0  0  0  0  0  0  0  0
   19.6298   -1.9140   13.7114 C   0  0  0  0  0  0  0  0  0  0  0  0
   20.0517   -0.9712   14.6495 C   0  0  0  0  0  0  0  0  0  0  0  0
   19.7010   -1.0981   16.0001 C   0  0  0  0  0  0  0  0  0  0  0  0
   20.3747    0.2423   17.1614 Br  0  0  0  0  0  0  0  0  0  0  0  0
  1  2  1  0
  2  3  2  0
  3  4  1  0
  4  5  1  0
  4  6  2  0
  6  7  1  0
  7  8  1  0
  7  9  2  0
  9 10  1  0
 10 11  1  0
 11 12  2  0
 11 13  1  0
 13 14  1  1
 13 15  1  0
 15 16  2  0
 15 17  2  0
 15 18  1  0
 18 19  2  0
 19 20  1  0
 20 21  2  0
 21 22  1  0
 22 23  2  0
 23 24  1  0
  9  2  1  0
 23 18  1  0
M  END
>  <ref_mols>  (865) 
B1396a

>  <gnina_score>  (865) 
5.071

>  <smina_score_min>  (865) 
-3.737

>  <ref_pdb>  (865) 
B1396a

>  <inspiration_score>  (865) 
None

>  <inchikey>  (865) 
WUJJEXJDKSQYHZ-AWEZNQCLSA-N

>  <tags>  (865) 
BulkDock Fragalysis export,openbind_d68ev3c_c2_elabs_scored,openbind_d68ev3c_c2_elabs_scored_4.5plus,openbind_d68ev3c_c2_elabs,openbind_d68ev3c_c2_elabs_scored_5plus,syndirella_product,openbind_d68ev3c_c2_elabs_scored_top80percent,syndirella_placed

>  <smiles>  (865) 
Cc1cc(F)cc(S)c1NC(=O)[C@@H](F)S(=O)(=O)c1ccccc1Br

>  <subsites>  (865) 
None

>  <rmsd(smina/fragmenstein)>  (865) 
1.58

>  <alias>  (865) 
None

>  <energy_score>  (865) 
-39.088956

>  <HIPPO Pose ID>  (865) 
94265

>  <distance_score>  (865) 
0.288808

>  <HIPPO Compound ID>  (865) 
128069

>  <gnina_score_min>  (865) 
5.025

>  <name>  (865) 
P94265

>  <exports>  (865) 
['/opt/xchem-fragalysis-2/maxwin/BulkDock/OUTPUTS/openbind_d68ev3c_c2_elabs_1LOTQJ3.sdf', '/opt/xchem-fragalysis-2/maxwin/BulkDock/OUTPUTS/openbind_d68ev3c_c2_elabs_1LSYI5W.sdf']

$$$$
P94279
     RDKit          3D

 25 26  0  0  0  0  0  0  0  0999 V2000
   14.2615   -5.1044   18.0397 N   0  0  0  0  0  0  0  0  0  0  0  0
   13.8838   -4.1213   17.5577 C   0  0  0  0  0  0  0  0  0  0  0  0
   13.4736   -2.8935   16.9463 C   0  0  0  0  0  0  0  0  0  0  0  0
   12.2462   -2.8570   16.2709 C   0  0  0  0  0  0  0  0  0  0  0  0
   11.8038   -1.6610   15.7125 C   0  0  0  0  0  0  0  0  0  0  0  0
   10.2189   -1.5295   15.0845 Cl  0  0  0  0  0  0  0  0  0  0  0  0
   12.6019   -0.5258   15.7429 C   0  0  0  0  0  0  0  0  0  0  0  0
   13.8368   -0.5674   16.3866 C   0  0  0  0  0  0  0  0  0  0  0  0
   14.2719   -1.7373   17.0180 C   0  0  0  0  0  0  0  0  0  0  0  0
   15.4670   -1.7150   17.7471 N   0  0  0  0  0  0  0  0  0  0  0  0
   16.6001   -0.6421   17.8027 C   0  0  0  0  0  0  0  0  0  0  0  0
   16.6669    0.4170   17.3071 O   0  0  0  0  0  0  0  0  0  0  0  0
   17.6708   -1.1201   18.7417 C   0  0  0  0  0  0  0  0  0  0  0  0
   18.5038   -2.5278   18.1201 S   0  0  0  0  0  0  0  0  0  0  0  0
   17.5271   -3.6027   18.1318 O   0  0  0  0  0  0  0  0  0  0  0  0
   19.7563   -2.6500   18.8376 O   0  0  0  0  0  0  0  0  0  0  0  0
   18.9177   -2.2076   16.4233 C   0  0  0  0  0  0  0  0  0  0  0  0
   19.6427   -1.0574   16.0979 C   0  0  0  0  0  0  0  0  0  0  0  0
   19.9960   -0.8217   14.7672 C   0  0  0  0  0  0  0  0  0  0  0  0
   19.6328   -1.7459   13.7760 C   0  0  0  0  0  0  0  0  0  0  0  0
   20.0371   -1.5066   12.3848 N   0  0  0  0  0  0  0  0  0  0  0  0
   20.4577   -0.3769   12.0975 O   0  0  0  0  0  0  0  0  0  0  0  0
   19.9384   -2.4490   11.5891 O   0  0  0  0  0  0  0  0  0  0  0  0
   18.9109   -2.9026   14.1048 C   0  0  0  0  0  0  0  0  0  0  0  0
   18.5499   -3.1321   15.4359 C   0  0  0  0  0  0  0  0  0  0  0  0
  1  2  3  0
  2  3  1  0
  3  4  2  0
  4  5  1  0
  5  6  1  0
  5  7  2  0
  7  8  1  0
  8  9  2  0
  9 10  1  0
 10 11  1  0
 11 12  2  0
 11 13  1  0
 13 14  1  0
 14 15  2  0
 14 16  2  0
 14 17  1  0
 17 18  2  0
 18 19  1  0
 19 20  2  0
 20 21  1  0
 21 22  2  0
 21 23  1  0
 20 24  1  0
 24 25  2  0
  9  3  1  0
 25 17  1  0
M  CHG  2  21   1  23  -1
M  END
>  <ref_mols>  (866) 
B1396a

>  <gnina_score>  (866) 
5.172

>  <smina_score_min>  (866) 
-3.098

>  <ref_pdb>  (866) 
B1396a

>  <inspiration_score>  (866) 
None

>  <inchikey>  (866) 
GAZYDLBOMWDAGS-UHFFFAOYSA-N

>  <tags>  (866) 
BulkDock Fragalysis export,openbind_d68ev3c_c2_elabs_scored,openbind_d68ev3c_c2_elabs_scored_4.5plus,openbind_d68ev3c_c2_elabs,openbind_d68ev3c_c2_elabs_scored_5plus,syndirella_product,openbind_d68ev3c_c2_elabs_scored_top80percent,syndirella_placed

>  <smiles>  (866) 
N#Cc1cc(Cl)ccc1NC(=O)CS(=O)(=O)c1ccc([N+](=O)[O-])cc1

>  <subsites>  (866) 
None

>  <rmsd(smina/fragmenstein)>  (866) 
1.814

>  <alias>  (866) 
None

>  <energy_score>  (866) 
-36.445221

>  <HIPPO Pose ID>  (866) 
94279

>  <distance_score>  (866) 
0.563739

>  <HIPPO Compound ID>  (866) 
128082

>  <gnina_score_min>  (866) 
5.004

>  <name>  (866) 
P94279

>  <exports>  (866) 
['/opt/xchem-fragalysis-2/maxwin/BulkDock/OUTPUTS/openbind_d68ev3c_c2_elabs_1LOTQJ3.sdf', '/opt/xchem-fragalysis-2/maxwin/BulkDock/OUTPUTS/openbind_d68ev3c_c2_elabs_1LSYI5W.sdf']

$$$$
P94283
     RDKit          3D

 25 27  0  0  0  0  0  0  0  0999 V2000
   13.7086   -4.0608   17.6002 C   0  0  0  0  0  0  0  0  0  0  0  0
   13.2019   -2.8917   16.7903 C   0  0  0  0  0  0  0  0  0  0  0  0
   12.0790   -3.1008   15.9710 C   0  0  0  0  0  0  0  0  0  0  0  0
   11.5662   -2.0796   15.1832 C   0  0  0  0  0  0  0  0  0  0  0  0
   12.1506   -0.8210   15.2331 C   0  0  0  0  0  0  0  0  0  0  0  0
   13.2662   -0.5787   16.0538 C   0  0  0  0  0  0  0  0  0  0  0  0
   13.7443    1.4681   16.2417 I   0  0  0  0  0  0  0  0  0  0  0  0
   13.8328   -1.6228   16.8117 C   0  0  0  0  0  0  0  0  0  0  0  0
   14.9734   -1.5098   17.6245 N   0  0  0  0  0  0  0  0  0  0  0  0
   16.2808   -0.6849   17.4252 C   0  0  0  0  0  0  0  0  0  0  0  0
   16.5732    0.0865   16.5903 O   0  0  0  0  0  0  0  0  0  0  0  0
   17.2579   -0.9587   18.6074 C   0  0  0  0  0  0  0  0  0  0  0  0
   18.2637   -2.3906   18.1422 S   0  0  0  0  0  0  0  0  0  0  0  0
   17.3857   -3.5516   18.1841 O   0  0  0  0  0  0  0  0  0  0  0  0
   19.4849   -2.4128   18.9296 O   0  0  0  0  0  0  0  0  0  0  0  0
   18.8060   -2.2328   16.4467 C   0  0  0  0  0  0  0  0  0  0  0  0
   18.3939   -3.1650   15.4876 C   0  0  0  0  0  0  0  0  0  0  0  0
   18.8366   -3.0323   14.1685 C   0  0  0  0  0  0  0  0  0  0  0  0
   19.6779   -1.9750   13.8197 C   0  0  0  0  0  0  0  0  0  0  0  0
   20.2242   -1.8162   12.1966 Cl  0  0  0  0  0  0  0  0  0  0  0  0
   20.0953   -1.0547   14.7807 C   0  0  0  0  0  0  0  0  0  0  0  0
   19.6672   -1.1862   16.1030 C   0  0  0  0  0  0  0  0  0  0  0  0
   16.6639   -1.0508   20.0504 C   0  0  0  0  0  0  0  0  0  0  0  0
   17.8529   -0.2296   20.5657 C   0  0  0  0  0  0  0  0  0  0  0  0
   18.0731    0.2685   19.1299 C   0  0  0  0  0  0  0  0  0  0  0  0
  1  2  1  0
  2  3  2  0
  3  4  1  0
  4  5  2  0
  5  6  1  0
  6  7  1  0
  6  8  2  0
  8  9  1  0
  9 10  1  0
 10 11  2  0
 10 12  1  0
 12 13  1  0
 13 14  2  0
 13 15  2  0
 13 16  1  0
 16 17  2  0
 17 18  1  0
 18 19  2  0
 19 20  1  0
 19 21  1  0
 21 22  2  0
 12 23  1  0
 23 24  1  0
 24 25  1  0
  8  2  1  0
 25 12  1  0
 22 16  1  0
M  END
>  <ref_mols>  (867) 
B1396a

>  <gnina_score>  (867) 
5.152

>  <smina_score_min>  (867) 
-3.607

>  <ref_pdb>  (867) 
B1396a

>  <inspiration_score>  (867) 
None

>  <inchikey>  (867) 
STYRLZWVDVRSPG-UHFFFAOYSA-N

>  <tags>  (867) 
BulkDock Fragalysis export,openbind_d68ev3c_c2_elabs_scored,openbind_d68ev3c_c2_elabs_scored_4.5plus,openbind_d68ev3c_c2_elabs,openbind_d68ev3c_c2_elabs_scored_5plus,syndirella_product,openbind_d68ev3c_c2_elabs_scored_top80percent,syndirella_placed

>  <smiles>  (867) 
Cc1cccc(I)c1NC(=O)C1(S(=O)(=O)c2ccc(Cl)cc2)CCC1

>  <subsites>  (867) 
None

>  <rmsd(smina/fragmenstein)>  (867) 
1.973

>  <alias>  (867) 
None

>  <energy_score>  (867) 
-24.124093

>  <HIPPO Pose ID>  (867) 
94283

>  <distance_score>  (867) 
0.288239

>  <HIPPO Compound ID>  (867) 
128086

>  <gnina_score_min>  (867) 
5.024

>  <name>  (867) 
P94283

>  <exports>  (867) 
['/opt/xchem-fragalysis-2/maxwin/BulkDock/OUTPUTS/openbind_d68ev3c_c2_elabs_1LOTQJ3.sdf', '/opt/xchem-fragalysis-2/maxwin/BulkDock/OUTPUTS/openbind_d68ev3c_c2_elabs_1LSYI5W.sdf']

$$$$
P94287
     RDKit          3D

 25 27  0  0  0  0  0  0  0  0999 V2000
   13.7285   -3.6061   17.2695 C   0  0  0  0  0  0  0  0  0  0  0  0
   13.4890   -2.2038   16.7620 C   0  0  0  0  0  0  0  0  0  0  0  0
   12.4889   -1.8850   15.8237 C   0  0  0  0  0  0  0  0  0  0  0  0
   11.4714   -3.2519   14.6932 I   0  0  0  0  0  0  0  0  0  0  0  0
   12.2044   -0.5642   15.4608 C   0  0  0  0  0  0  0  0  0  0  0  0
   12.9776    0.4658   15.9549 C   0  0  0  0  0  0  0  0  0  0  0  0
   14.0562    0.1685   16.7769 C   0  0  0  0  0  0  0  0  0  0  0  0
   14.3270   -1.1473   17.1717 C   0  0  0  0  0  0  0  0  0  0  0  0
   15.4837   -1.3997   17.9105 N   0  0  0  0  0  0  0  0  0  0  0  0
   16.6832   -0.4682   18.2630 C   0  0  0  0  0  0  0  0  0  0  0  0
   16.9191    0.6305   17.9215 O   0  0  0  0  0  0  0  0  0  0  0  0
   17.6646   -1.2075   19.2126 C   0  0  0  0  0  0  0  0  0  0  0  0
   18.3950   -2.6010   18.3190 S   0  0  0  0  0  0  0  0  0  0  0  0
   17.3556   -3.6207   18.2503 O   0  0  0  0  0  0  0  0  0  0  0  0
   19.6788   -2.9350   18.9078 O   0  0  0  0  0  0  0  0  0  0  0  0
   18.7700   -2.1906   16.6215 C   0  0  0  0  0  0  0  0  0  0  0  0
   19.4759   -1.0228   16.3269 C   0  0  0  0  0  0  0  0  0  0  0  0
   19.7990   -0.7367   14.9972 C   0  0  0  0  0  0  0  0  0  0  0  0
   19.4245   -1.6157   13.9795 C   0  0  0  0  0  0  0  0  0  0  0  0
   19.8394   -1.2566   12.3500 Cl  0  0  0  0  0  0  0  0  0  0  0  0
   18.7252   -2.7849   14.2762 C   0  0  0  0  0  0  0  0  0  0  0  0
   18.3924   -3.0755   15.6017 C   0  0  0  0  0  0  0  0  0  0  0  0
   17.0983   -1.5972   20.6173 C   0  0  0  0  0  0  0  0  0  0  0  0
   18.4316   -1.1662   21.2445 C   0  0  0  0  0  0  0  0  0  0  0  0
   18.7004   -0.3264   19.9863 C   0  0  0  0  0  0  0  0  0  0  0  0
  1  2  1  0
  2  3  2  0
  3  4  1  0
  3  5  1  0
  5  6  2  0
  6  7  1  0
  7  8  2  0
  8  9  1  0
  9 10  1  0
 10 11  2  0
 10 12  1  0
 12 13  1  0
 13 14  2  0
 13 15  2  0
 13 16  1  0
 16 17  2  0
 17 18  1  0
 18 19  2  0
 19 20  1  0
 19 21  1  0
 21 22  2  0
 12 23  1  0
 23 24  1  0
 24 25  1  0
  8  2  1  0
 25 12  1  0
 22 16  1  0
M  END
>  <ref_mols>  (868) 
B1396a

>  <gnina_score>  (868) 
5.239

>  <smina_score_min>  (868) 
-3.042

>  <ref_pdb>  (868) 
B1396a

>  <inspiration_score>  (868) 
None

>  <inchikey>  (868) 
BTWFRKXLHOXAJG-UHFFFAOYSA-N

>  <tags>  (868) 
BulkDock Fragalysis export,openbind_d68ev3c_c2_elabs_scored,openbind_d68ev3c_c2_elabs_scored_4.5plus,openbind_d68ev3c_c2_elabs,openbind_d68ev3c_c2_elabs_scored_5plus,syndirella_product,openbind_d68ev3c_c2_elabs_scored_top80percent,syndirella_placed

>  <smiles>  (868) 
Cc1c(I)cccc1NC(=O)C1(S(=O)(=O)c2ccc(Cl)cc2)CCC1

>  <subsites>  (868) 
None

>  <rmsd(smina/fragmenstein)>  (868) 
2.319

>  <alias>  (868) 
None

>  <energy_score>  (868) 
-19.155825

>  <HIPPO Pose ID>  (868) 
94287

>  <distance_score>  (868) 
1.037654

>  <HIPPO Compound ID>  (868) 
128090

>  <gnina_score_min>  (868) 
5.033

>  <name>  (868) 
P94287

>  <exports>  (868) 
['/opt/xchem-fragalysis-2/maxwin/BulkDock/OUTPUTS/openbind_d68ev3c_c2_elabs_1LOTQJ3.sdf', '/opt/xchem-fragalysis-2/maxwin/BulkDock/OUTPUTS/openbind_d68ev3c_c2_elabs_1LSYI5W.sdf']

$$$$
P94326
     RDKit          3D

 25 26  0  0  0  0  0  0  0  0999 V2000
   14.8039   -5.0437   17.5586 C   0  0  0  0  0  0  0  0  0  0  0  0
   13.8136   -4.0056   18.0512 C   0  0  0  0  0  0  0  0  0  0  0  0
   13.5564   -2.8570   17.0989 C   0  0  0  0  0  0  0  0  0  0  0  0
   12.3254   -2.8033   16.4208 C   0  0  0  0  0  0  0  0  0  0  0  0
   11.9647   -1.6580   15.7100 C   0  0  0  0  0  0  0  0  0  0  0  0
   10.1992   -1.3990   15.1207 Br  0  0  0  0  0  0  0  0  0  0  0  0
   12.8606   -0.6146   15.5421 C   0  0  0  0  0  0  0  0  0  0  0  0
   14.1095   -0.6861   16.1464 C   0  0  0  0  0  0  0  0  0  0  0  0
   14.4508   -1.7769   16.9523 C   0  0  0  0  0  0  0  0  0  0  0  0
   15.6634   -1.7618   17.6397 N   0  0  0  0  0  0  0  0  0  0  0  0
   16.7522   -0.6494   17.7484 C   0  0  0  0  0  0  0  0  0  0  0  0
   16.8301    0.3902   17.2154 O   0  0  0  0  0  0  0  0  0  0  0  0
   17.7703   -1.0811   18.7620 C   0  0  0  0  0  0  0  0  0  0  0  0
   18.6491   -2.4965   18.2145 S   0  0  0  0  0  0  0  0  0  0  0  0
   17.7261   -3.6147   18.3134 O   0  0  0  0  0  0  0  0  0  0  0  0
   19.9151   -2.5280   18.9185 O   0  0  0  0  0  0  0  0  0  0  0  0
   19.0262   -2.2480   16.4952 C   0  0  0  0  0  0  0  0  0  0  0  0
   19.7766   -1.1283   16.1202 C   0  0  0  0  0  0  0  0  0  0  0  0
   20.0963   -0.9319   14.7750 C   0  0  0  0  0  0  0  0  0  0  0  0
   19.6764   -1.8671   13.8181 C   0  0  0  0  0  0  0  0  0  0  0  0
   20.0481   -1.6751   12.4105 N   0  0  0  0  0  0  0  0  0  0  0  0
   19.8912   -2.6318   11.6413 O   0  0  0  0  0  0  0  0  0  0  0  0
   20.5048   -0.5704   12.0841 O   0  0  0  0  0  0  0  0  0  0  0  0
   18.9310   -2.9940   14.1964 C   0  0  0  0  0  0  0  0  0  0  0  0
   18.6011   -3.1827   15.5424 C   0  0  0  0  0  0  0  0  0  0  0  0
  1  2  1  0
  2  3  1  0
  3  4  2  0
  4  5  1  0
  5  6  1  0
  5  7  2  0
  7  8  1  0
  8  9  2  0
  9 10  1  0
 10 11  1  0
 11 12  2  0
 11 13  1  0
 13 14  1  0
 14 15  2  0
 14 16  2  0
 14 17  1  0
 17 18  2  0
 18 19  1  0
 19 20  2  0
 20 21  1  0
 21 22  2  0
 21 23  1  0
 20 24  1  0
 24 25  2  0
  9  3  1  0
 25 17  1  0
M  CHG  2  21   1  23  -1
M  END
>  <ref_mols>  (869) 
B1396a

>  <gnina_score>  (869) 
5.092

>  <smina_score_min>  (869) 
-2.813

>  <ref_pdb>  (869) 
B1396a

>  <inspiration_score>  (869) 
None

>  <inchikey>  (869) 
FKDPCAZPFBJQNO-UHFFFAOYSA-N

>  <tags>  (869) 
BulkDock Fragalysis export,openbind_d68ev3c_c2_elabs_scored,openbind_d68ev3c_c2_elabs_scored_4.5plus,openbind_d68ev3c_c2_elabs,openbind_d68ev3c_c2_elabs_scored_5plus,syndirella_product,openbind_d68ev3c_c2_elabs_scored_top80percent,syndirella_placed

>  <smiles>  (869) 
CCc1cc(Br)ccc1NC(=O)CS(=O)(=O)c1ccc([N+](=O)[O-])cc1

>  <subsites>  (869) 
None

>  <rmsd(smina/fragmenstein)>  (869) 
1.902

>  <alias>  (869) 
None

>  <energy_score>  (869) 
-40.070256

>  <HIPPO Pose ID>  (869) 
94326

>  <distance_score>  (869) 
0.651311

>  <HIPPO Compound ID>  (869) 
128133

>  <gnina_score_min>  (869) 
5.052

>  <name>  (869) 
P94326

>  <exports>  (869) 
['/opt/xchem-fragalysis-2/maxwin/BulkDock/OUTPUTS/openbind_d68ev3c_c2_elabs_1LOTQJ3.sdf', '/opt/xchem-fragalysis-2/maxwin/BulkDock/OUTPUTS/openbind_d68ev3c_c2_elabs_1LSYI5W.sdf']

$$$$
P94353
     RDKit          3D

 25 27  0  0  0  0  0  0  0  0999 V2000
   13.6767   -4.0901   17.6037 C   0  0  0  0  0  0  0  0  0  0  0  0
   13.3342   -2.8645   16.8041 C   0  0  0  0  0  0  0  0  0  0  0  0
   12.2059   -2.8769   15.9754 C   0  0  0  0  0  0  0  0  0  0  0  0
   11.4566   -3.9786   15.8956 F   0  0  0  0  0  0  0  0  0  0  0  0
   11.8241   -1.7763   15.2182 C   0  0  0  0  0  0  0  0  0  0  0  0
   12.5932   -0.6232   15.2703 C   0  0  0  0  0  0  0  0  0  0  0  0
   13.7352   -0.5867   16.0758 C   0  0  0  0  0  0  0  0  0  0  0  0
   14.1075   -1.6950   16.8469 C   0  0  0  0  0  0  0  0  0  0  0  0
   15.2371   -1.6419   17.6645 N   0  0  0  0  0  0  0  0  0  0  0  0
   16.3389   -0.5487   17.7980 C   0  0  0  0  0  0  0  0  0  0  0  0
   16.4244    0.5097   17.2975 O   0  0  0  0  0  0  0  0  0  0  0  0
   17.3883   -1.0029   18.8629 C   0  0  0  0  0  0  0  0  0  0  0  0
   18.3141   -2.4118   18.2044 S   0  0  0  0  0  0  0  0  0  0  0  0
   19.5909   -2.5236   18.8874 O   0  0  0  0  0  0  0  0  0  0  0  0
   17.4036   -3.5487   18.2235 O   0  0  0  0  0  0  0  0  0  0  0  0
   18.7342   -2.1460   16.4894 C   0  0  0  0  0  0  0  0  0  0  0  0
   18.3844   -3.1040   15.5298 C   0  0  0  0  0  0  0  0  0  0  0  0
   18.7573   -2.9099   14.1971 C   0  0  0  0  0  0  0  0  0  0  0  0
   19.4665   -1.7648   13.8343 C   0  0  0  0  0  0  0  0  0  0  0  0
   19.9295   -1.5283   12.1952 Cl  0  0  0  0  0  0  0  0  0  0  0  0
   19.8154   -0.8141   14.7937 C   0  0  0  0  0  0  0  0  0  0  0  0
   19.4545   -1.0042   16.1296 C   0  0  0  0  0  0  0  0  0  0  0  0
   18.2782    0.1145   19.5005 C   0  0  0  0  0  0  0  0  0  0  0  0
   18.0787   -0.5460   20.8729 C   0  0  0  0  0  0  0  0  0  0  0  0
   16.8361   -1.2462   20.3071 C   0  0  0  0  0  0  0  0  0  0  0  0
  1  2  1  0
  2  3  2  0
  3  4  1  0
  3  5  1  0
  5  6  2  0
  6  7  1  0
  7  8  2  0
  8  9  1  0
  9 10  1  0
 10 11  2  0
 10 12  1  0
 12 13  1  0
 13 14  2  0
 13 15  2  0
 13 16  1  0
 16 17  2  0
 17 18  1  0
 18 19  2  0
 19 20  1  0
 19 21  1  0
 21 22  2  0
 12 23  1  0
 23 24  1  0
 24 25  1  0
  8  2  1  0
 25 12  1  0
 22 16  1  0
M  END
>  <ref_mols>  (870) 
B1396a

>  <gnina_score>  (870) 
5.105

>  <smina_score_min>  (870) 
-3.838

>  <ref_pdb>  (870) 
B1396a

>  <inspiration_score>  (870) 
None

>  <inchikey>  (870) 
PZNIUEDYGYOHHV-UHFFFAOYSA-N

>  <tags>  (870) 
BulkDock Fragalysis export,openbind_d68ev3c_c2_elabs_scored,openbind_d68ev3c_c2_elabs_scored_4.5plus,openbind_d68ev3c_c2_elabs,openbind_d68ev3c_c2_elabs_scored_5plus,syndirella_product,openbind_d68ev3c_c2_elabs_scored_top80percent,syndirella_placed

>  <smiles>  (870) 
Cc1c(F)cccc1NC(=O)C1(S(=O)(=O)c2ccc(Cl)cc2)CCC1

>  <subsites>  (870) 
None

>  <rmsd(smina/fragmenstein)>  (870) 
2.087

>  <alias>  (870) 
None

>  <energy_score>  (870) 
-44.32061

>  <HIPPO Pose ID>  (870) 
94353

>  <distance_score>  (870) 
0.497445

>  <HIPPO Compound ID>  (870) 
128162

>  <gnina_score_min>  (870) 
5.175

>  <name>  (870) 
P94353

>  <exports>  (870) 
['/opt/xchem-fragalysis-2/maxwin/BulkDock/OUTPUTS/openbind_d68ev3c_c2_elabs_1LOTQJ3.sdf', '/opt/xchem-fragalysis-2/maxwin/BulkDock/OUTPUTS/openbind_d68ev3c_c2_elabs_1LSYI5W.sdf']

$$$$
P94354
     RDKit          3D

 25 27  0  0  0  0  0  0  0  0999 V2000
   13.8142   -4.1913   17.5767 C   0  0  0  0  0  0  0  0  0  0  0  0
   13.4286   -2.9057   16.8962 C   0  0  0  0  0  0  0  0  0  0  0  0
   12.1887   -2.8302   16.2401 C   0  0  0  0  0  0  0  0  0  0  0  0
   11.7597   -1.6260   15.6842 C   0  0  0  0  0  0  0  0  0  0  0  0
   10.1578   -1.4560   15.1045 Cl  0  0  0  0  0  0  0  0  0  0  0  0
   12.5850   -0.5117   15.6881 C   0  0  0  0  0  0  0  0  0  0  0  0
   13.8292   -0.5825   16.3079 C   0  0  0  0  0  0  0  0  0  0  0  0
   14.2411   -1.7582   16.9425 C   0  0  0  0  0  0  0  0  0  0  0  0
   15.4344   -1.7738   17.6598 N   0  0  0  0  0  0  0  0  0  0  0  0
   16.5355   -0.6824   17.8160 C   0  0  0  0  0  0  0  0  0  0  0  0
   16.6435    0.3678   17.3024 O   0  0  0  0  0  0  0  0  0  0  0  0
   17.5751   -1.1487   18.8775 C   0  0  0  0  0  0  0  0  0  0  0  0
   18.4900   -2.5443   18.1873 S   0  0  0  0  0  0  0  0  0  0  0  0
   17.5724   -3.6762   18.1964 O   0  0  0  0  0  0  0  0  0  0  0  0
   19.7732   -2.6692   18.8539 O   0  0  0  0  0  0  0  0  0  0  0  0
   18.8818   -2.2444   16.4712 C   0  0  0  0  0  0  0  0  0  0  0  0
   19.5948   -1.0945   16.1227 C   0  0  0  0  0  0  0  0  0  0  0  0
   19.9123   -0.8660   14.7820 C   0  0  0  0  0  0  0  0  0  0  0  0
   19.5275   -1.7866   13.8067 C   0  0  0  0  0  0  0  0  0  0  0  0
   19.9360   -1.5016   12.1609 Cl  0  0  0  0  0  0  0  0  0  0  0  0
   18.8257   -2.9399   14.1581 C   0  0  0  0  0  0  0  0  0  0  0  0
   18.4964   -3.1724   15.4959 C   0  0  0  0  0  0  0  0  0  0  0  0
   18.4664   -0.0451   19.5337 C   0  0  0  0  0  0  0  0  0  0  0  0
   18.2661   -0.7310   20.8937 C   0  0  0  0  0  0  0  0  0  0  0  0
   17.0203   -1.4157   20.3150 C   0  0  0  0  0  0  0  0  0  0  0  0
  1  2  1  0
  2  3  2  0
  3  4  1  0
  4  5  1  0
  4  6  2  0
  6  7  1  0
  7  8  2  0
  8  9  1  0
  9 10  1  0
 10 11  2  0
 10 12  1  0
 12 13  1  0
 13 14  2  0
 13 15  2  0
 13 16  1  0
 16 17  2  0
 17 18  1  0
 18 19  2  0
 19 20  1  0
 19 21  1  0
 21 22  2  0
 12 23  1  0
 23 24  1  0
 24 25  1  0
  8  2  1  0
 25 12  1  0
 22 16  1  0
M  END
>  <ref_mols>  (871) 
B1396a

>  <gnina_score>  (871) 
5.376

>  <smina_score_min>  (871) 
-3.275

>  <ref_pdb>  (871) 
B1396a

>  <inspiration_score>  (871) 
None

>  <inchikey>  (871) 
GGVUWSJBKDEQTR-UHFFFAOYSA-N

>  <tags>  (871) 
BulkDock Fragalysis export,openbind_d68ev3c_c2_elabs_scored,openbind_d68ev3c_c2_elabs_scored_4.5plus,openbind_d68ev3c_c2_elabs,openbind_d68ev3c_c2_elabs_scored_5plus,syndirella_product,openbind_d68ev3c_c2_elabs_scored_top80percent,syndirella_placed

>  <smiles>  (871) 
Cc1cc(Cl)ccc1NC(=O)C1(S(=O)(=O)c2ccc(Cl)cc2)CCC1

>  <subsites>  (871) 
None

>  <rmsd(smina/fragmenstein)>  (871) 
1.966

>  <alias>  (871) 
None

>  <energy_score>  (871) 
-49.321096

>  <HIPPO Pose ID>  (871) 
94354

>  <distance_score>  (871) 
0.536245

>  <HIPPO Compound ID>  (871) 
128163

>  <gnina_score_min>  (871) 
5.149

>  <name>  (871) 
P94354

>  <exports>  (871) 
['/opt/xchem-fragalysis-2/maxwin/BulkDock/OUTPUTS/openbind_d68ev3c_c2_elabs_1LOTQJ3.sdf', '/opt/xchem-fragalysis-2/maxwin/BulkDock/OUTPUTS/openbind_d68ev3c_c2_elabs_1LSYI5W.sdf']

$$$$
P94355
     RDKit          3D

 25 27  0  0  0  0  0  0  0  0999 V2000
   13.6591   -4.1884   17.6299 C   0  0  0  0  0  0  0  0  0  0  0  0
   13.2492   -3.0017   16.7998 C   0  0  0  0  0  0  0  0  0  0  0  0
   12.0990   -3.1001   15.9987 C   0  0  0  0  0  0  0  0  0  0  0  0
   11.6761   -2.0281   15.2152 C   0  0  0  0  0  0  0  0  0  0  0  0
   12.4086   -0.8471   15.2239 C   0  0  0  0  0  0  0  0  0  0  0  0
   11.8839    0.4810   14.2632 Cl  0  0  0  0  0  0  0  0  0  0  0  0
   13.5581   -0.7296   16.0064 C   0  0  0  0  0  0  0  0  0  0  0  0
   13.9799   -1.8003   16.8004 C   0  0  0  0  0  0  0  0  0  0  0  0
   15.1091   -1.6782   17.6131 N   0  0  0  0  0  0  0  0  0  0  0  0
   16.2278   -0.5949   17.6342 C   0  0  0  0  0  0  0  0  0  0  0  0
   16.3318    0.4023   17.0243 O   0  0  0  0  0  0  0  0  0  0  0  0
   17.2723   -0.9607   18.7381 C   0  0  0  0  0  0  0  0  0  0  0  0
   18.2466   -2.3704   18.1570 S   0  0  0  0  0  0  0  0  0  0  0  0
   19.5014   -2.4390   18.8851 O   0  0  0  0  0  0  0  0  0  0  0  0
   17.3556   -3.5230   18.1827 O   0  0  0  0  0  0  0  0  0  0  0  0
   18.7152   -2.1463   16.4488 C   0  0  0  0  0  0  0  0  0  0  0  0
   18.3776   -3.1180   15.4989 C   0  0  0  0  0  0  0  0  0  0  0  0
   18.7832   -2.9516   14.1719 C   0  0  0  0  0  0  0  0  0  0  0  0
   19.5135   -1.8210   13.8052 C   0  0  0  0  0  0  0  0  0  0  0  0
   20.0182   -1.6203   12.1737 Cl  0  0  0  0  0  0  0  0  0  0  0  0
   19.8518   -0.8575   14.7553 C   0  0  0  0  0  0  0  0  0  0  0  0
   19.4584   -1.0202   16.0855 C   0  0  0  0  0  0  0  0  0  0  0  0
   18.1160    0.2139   19.3310 C   0  0  0  0  0  0  0  0  0  0  0  0
   17.9163   -0.3831   20.7320 C   0  0  0  0  0  0  0  0  0  0  0  0
   16.7073   -1.1529   20.1848 C   0  0  0  0  0  0  0  0  0  0  0  0
  1  2  1  0
  2  3  2  0
  3  4  1  0
  4  5  2  0
  5  6  1  0
  5  7  1  0
  7  8  2  0
  8  9  1  0
  9 10  1  0
 10 11  2  0
 10 12  1  0
 12 13  1  0
 13 14  2  0
 13 15  2  0
 13 16  1  0
 16 17  2  0
 17 18  1  0
 18 19  2  0
 19 20  1  0
 19 21  1  0
 21 22  2  0
 12 23  1  0
 23 24  1  0
 24 25  1  0
  8  2  1  0
 25 12  1  0
 22 16  1  0
M  END
>  <ref_mols>  (872) 
B1396a

>  <gnina_score>  (872) 
5.129

>  <smina_score_min>  (872) 
-3.902

>  <ref_pdb>  (872) 
B1396a

>  <inspiration_score>  (872) 
None

>  <inchikey>  (872) 
XDSSHCJKZVGGMX-UHFFFAOYSA-N

>  <tags>  (872) 
BulkDock Fragalysis export,openbind_d68ev3c_c2_elabs_scored,openbind_d68ev3c_c2_elabs_scored_4.5plus,openbind_d68ev3c_c2_elabs,openbind_d68ev3c_c2_elabs_scored_5plus,syndirella_product,openbind_d68ev3c_c2_elabs_scored_top80percent,syndirella_placed

>  <smiles>  (872) 
Cc1ccc(Cl)cc1NC(=O)C1(S(=O)(=O)c2ccc(Cl)cc2)CCC1

>  <subsites>  (872) 
None

>  <rmsd(smina/fragmenstein)>  (872) 
2.253

>  <alias>  (872) 
None

>  <energy_score>  (872) 
-35.106309

>  <HIPPO Pose ID>  (872) 
94355

>  <distance_score>  (872) 
0.372734

>  <HIPPO Compound ID>  (872) 
128164

>  <gnina_score_min>  (872) 
5.02

>  <name>  (872) 
P94355

>  <exports>  (872) 
['/opt/xchem-fragalysis-2/maxwin/BulkDock/OUTPUTS/openbind_d68ev3c_c2_elabs_1LOTQJ3.sdf', '/opt/xchem-fragalysis-2/maxwin/BulkDock/OUTPUTS/openbind_d68ev3c_c2_elabs_1LSYI5W.sdf']

$$$$
P94356
     RDKit          3D

 25 27  0  0  0  0  0  0  0  0999 V2000
   13.7025   -4.1182   17.5888 C   0  0  0  0  0  0  0  0  0  0  0  0
   13.2114   -2.9278   16.8027 C   0  0  0  0  0  0  0  0  0  0  0  0
   12.0847   -3.1004   15.9786 C   0  0  0  0  0  0  0  0  0  0  0  0
   11.5804   -2.0512   15.2199 C   0  0  0  0  0  0  0  0  0  0  0  0
   12.1808   -0.8020   15.3027 C   0  0  0  0  0  0  0  0  0  0  0  0
   13.2995   -0.5994   16.1240 C   0  0  0  0  0  0  0  0  0  0  0  0
   13.7760    1.0508   16.3140 Cl  0  0  0  0  0  0  0  0  0  0  0  0
   13.8544   -1.6682   16.8556 C   0  0  0  0  0  0  0  0  0  0  0  0
   14.9959   -1.5693   17.6723 N   0  0  0  0  0  0  0  0  0  0  0  0
   16.2535   -0.6554   17.5486 C   0  0  0  0  0  0  0  0  0  0  0  0
   16.4942    0.2083   16.7910 O   0  0  0  0  0  0  0  0  0  0  0  0
   17.2505   -0.9847   18.6997 C   0  0  0  0  0  0  0  0  0  0  0  0
   18.2404   -2.4034   18.1684 S   0  0  0  0  0  0  0  0  0  0  0  0
   17.3556   -3.5601   18.1985 O   0  0  0  0  0  0  0  0  0  0  0  0
   19.4792   -2.4525   18.9260 O   0  0  0  0  0  0  0  0  0  0  0  0
   18.7476   -2.2105   16.4660 C   0  0  0  0  0  0  0  0  0  0  0  0
   18.4000   -3.1802   15.5181 C   0  0  0  0  0  0  0  0  0  0  0  0
   18.8254   -3.0306   14.1952 C   0  0  0  0  0  0  0  0  0  0  0  0
   19.5847   -1.9183   13.8305 C   0  0  0  0  0  0  0  0  0  0  0  0
   20.1119   -1.7388   12.2034 Cl  0  0  0  0  0  0  0  0  0  0  0  0
   19.9347   -0.9576   14.7789 C   0  0  0  0  0  0  0  0  0  0  0  0
   19.5231   -1.1050   16.1052 C   0  0  0  0  0  0  0  0  0  0  0  0
   18.0790    0.2119   19.2699 C   0  0  0  0  0  0  0  0  0  0  0  0
   17.8633   -0.3461   20.6842 C   0  0  0  0  0  0  0  0  0  0  0  0
   16.6646   -1.1351   20.1418 C   0  0  0  0  0  0  0  0  0  0  0  0
  1  2  1  0
  2  3  2  0
  3  4  1  0
  4  5  2  0
  5  6  1  0
  6  7  1  0
  6  8  2  0
  8  9  1  0
  9 10  1  0
 10 11  2  0
 10 12  1  0
 12 13  1  0
 13 14  2  0
 13 15  2  0
 13 16  1  0
 16 17  2  0
 17 18  1  0
 18 19  2  0
 19 20  1  0
 19 21  1  0
 21 22  2  0
 12 23  1  0
 23 24  1  0
 24 25  1  0
  8  2  1  0
 25 12  1  0
 22 16  1  0
M  END
>  <ref_mols>  (873) 
B1396a

>  <gnina_score>  (873) 
5.168

>  <smina_score_min>  (873) 
-3.913

>  <ref_pdb>  (873) 
B1396a

>  <inspiration_score>  (873) 
None

>  <inchikey>  (873) 
YVWVNKDYGOLDDM-UHFFFAOYSA-N

>  <tags>  (873) 
BulkDock Fragalysis export,openbind_d68ev3c_c2_elabs_scored,openbind_d68ev3c_c2_elabs_scored_4.5plus,openbind_d68ev3c_c2_elabs,openbind_d68ev3c_c2_elabs_scored_5plus,syndirella_product,openbind_d68ev3c_c2_elabs_scored_top80percent,syndirella_placed

>  <smiles>  (873) 
Cc1cccc(Cl)c1NC(=O)C1(S(=O)(=O)c2ccc(Cl)cc2)CCC1

>  <subsites>  (873) 
None

>  <rmsd(smina/fragmenstein)>  (873) 
2.683

>  <alias>  (873) 
None

>  <energy_score>  (873) 
-25.057741

>  <HIPPO Pose ID>  (873) 
94356

>  <distance_score>  (873) 
0.306292

>  <HIPPO Compound ID>  (873) 
128165

>  <gnina_score_min>  (873) 
5.009

>  <name>  (873) 
P94356

>  <exports>  (873) 
['/opt/xchem-fragalysis-2/maxwin/BulkDock/OUTPUTS/openbind_d68ev3c_c2_elabs_1LOTQJ3.sdf', '/opt/xchem-fragalysis-2/maxwin/BulkDock/OUTPUTS/openbind_d68ev3c_c2_elabs_1LSYI5W.sdf']

$$$$
P94366
     RDKit          3D

 25 27  0  0  0  0  0  0  0  0999 V2000
   13.6618   -4.1902   17.6331 C   0  0  0  0  0  0  0  0  0  0  0  0
   13.2489   -3.0052   16.8024 C   0  0  0  0  0  0  0  0  0  0  0  0
   12.0979   -3.1066   16.0028 C   0  0  0  0  0  0  0  0  0  0  0  0
   11.6712   -2.0374   15.2178 C   0  0  0  0  0  0  0  0  0  0  0  0
   12.4017   -0.8552   15.2244 C   0  0  0  0  0  0  0  0  0  0  0  0
   11.8220    0.6001   14.1650 Br  0  0  0  0  0  0  0  0  0  0  0  0
   13.5523   -0.7336   16.0054 C   0  0  0  0  0  0  0  0  0  0  0  0
   13.9771   -1.8025   16.8004 C   0  0  0  0  0  0  0  0  0  0  0  0
   15.1068   -1.6778   17.6120 N   0  0  0  0  0  0  0  0  0  0  0  0
   16.2245   -0.5935   17.6300 C   0  0  0  0  0  0  0  0  0  0  0  0
   16.3270    0.4027   17.0181 O   0  0  0  0  0  0  0  0  0  0  0  0
   17.2697   -0.9563   18.7342 C   0  0  0  0  0  0  0  0  0  0  0  0
   18.2461   -2.3655   18.1550 S   0  0  0  0  0  0  0  0  0  0  0  0
   17.3575   -3.5197   18.1821 O   0  0  0  0  0  0  0  0  0  0  0  0
   19.5011   -2.4312   18.8834 O   0  0  0  0  0  0  0  0  0  0  0  0
   18.7147   -2.1418   16.4468 C   0  0  0  0  0  0  0  0  0  0  0  0
   18.3708   -3.1097   15.4955 C   0  0  0  0  0  0  0  0  0  0  0  0
   18.7772   -2.9436   14.1687 C   0  0  0  0  0  0  0  0  0  0  0  0
   19.5145   -1.8170   13.8037 C   0  0  0  0  0  0  0  0  0  0  0  0
   20.0198   -1.6166   12.1723 Cl  0  0  0  0  0  0  0  0  0  0  0  0
   19.8592   -0.8573   14.7553 C   0  0  0  0  0  0  0  0  0  0  0  0
   19.4652   -1.0199   16.0853 C   0  0  0  0  0  0  0  0  0  0  0  0
   18.1118    0.2205   19.3251 C   0  0  0  0  0  0  0  0  0  0  0  0
   17.9135   -0.3746   20.7271 C   0  0  0  0  0  0  0  0  0  0  0  0
   16.7055   -1.1472   20.1815 C   0  0  0  0  0  0  0  0  0  0  0  0
  1  2  1  0
  2  3  2  0
  3  4  1  0
  4  5  2  0
  5  6  1  0
  5  7  1  0
  7  8  2  0
  8  9  1  0
  9 10  1  0
 10 11  2  0
 10 12  1  0
 12 13  1  0
 13 14  2  0
 13 15  2  0
 13 16  1  0
 16 17  2  0
 17 18  1  0
 18 19  2  0
 19 20  1  0
 19 21  1  0
 21 22  2  0
 12 23  1  0
 23 24  1  0
 24 25  1  0
  8  2  1  0
 25 12  1  0
 22 16  1  0
M  END
>  <ref_mols>  (874) 
B1396a

>  <gnina_score>  (874) 
5.098

>  <smina_score_min>  (874) 
-3.924

>  <ref_pdb>  (874) 
B1396a

>  <inspiration_score>  (874) 
None

>  <inchikey>  (874) 
JZHJMFJIHQMBFB-UHFFFAOYSA-N

>  <tags>  (874) 
BulkDock Fragalysis export,openbind_d68ev3c_c2_elabs_scored,openbind_d68ev3c_c2_elabs_scored_4.5plus,openbind_d68ev3c_c2_elabs,openbind_d68ev3c_c2_elabs_scored_5plus,syndirella_product,openbind_d68ev3c_c2_elabs_scored_top80percent,syndirella_placed

>  <smiles>  (874) 
Cc1ccc(Br)cc1NC(=O)C1(S(=O)(=O)c2ccc(Cl)cc2)CCC1

>  <subsites>  (874) 
None

>  <rmsd(smina/fragmenstein)>  (874) 
2.351

>  <alias>  (874) 
None

>  <energy_score>  (874) 
-35.461943

>  <HIPPO Pose ID>  (874) 
94366

>  <distance_score>  (874) 
0.369976

>  <HIPPO Compound ID>  (874) 
128176

>  <gnina_score_min>  (874) 
5.063

>  <name>  (874) 
P94366

>  <exports>  (874) 
['/opt/xchem-fragalysis-2/maxwin/BulkDock/OUTPUTS/openbind_d68ev3c_c2_elabs_1LOTQJ3.sdf', '/opt/xchem-fragalysis-2/maxwin/BulkDock/OUTPUTS/openbind_d68ev3c_c2_elabs_1LSYI5W.sdf']

$$$$
P94367
     RDKit          3D

 25 27  0  0  0  0  0  0  0  0999 V2000
   13.6463   -4.1877   17.6194 C   0  0  0  0  0  0  0  0  0  0  0  0
   13.2437   -2.9945   16.7955 C   0  0  0  0  0  0  0  0  0  0  0  0
   12.0962   -3.0830   15.9891 C   0  0  0  0  0  0  0  0  0  0  0  0
   11.6779   -2.0048   15.2106 C   0  0  0  0  0  0  0  0  0  0  0  0
   12.4141   -0.8255   15.2304 C   0  0  0  0  0  0  0  0  0  0  0  0
   11.7960    0.7907   14.0766 I   0  0  0  0  0  0  0  0  0  0  0  0
   13.5621   -0.7181   16.0186 C   0  0  0  0  0  0  0  0  0  0  0  0
   13.9780   -1.7960   16.8064 C   0  0  0  0  0  0  0  0  0  0  0  0
   15.1058   -1.6826   17.6223 N   0  0  0  0  0  0  0  0  0  0  0  0
   16.2276   -0.6026   17.6528 C   0  0  0  0  0  0  0  0  0  0  0  0
   16.3358    0.3985   17.0497 O   0  0  0  0  0  0  0  0  0  0  0  0
   17.2690   -0.9781   18.7555 C   0  0  0  0  0  0  0  0  0  0  0  0
   18.2458   -2.3812   18.1632 S   0  0  0  0  0  0  0  0  0  0  0  0
   19.5021   -2.4509   18.8890 O   0  0  0  0  0  0  0  0  0  0  0  0
   17.3589   -3.5368   18.1820 O   0  0  0  0  0  0  0  0  0  0  0  0
   18.7116   -2.1427   16.4561 C   0  0  0  0  0  0  0  0  0  0  0  0
   19.4738   -1.0250   16.1060 C   0  0  0  0  0  0  0  0  0  0  0  0
   19.8668   -0.8513   14.7771 C   0  0  0  0  0  0  0  0  0  0  0  0
   19.5095   -1.7960   13.8151 C   0  0  0  0  0  0  0  0  0  0  0  0
   20.0127   -1.5813   12.1848 Cl  0  0  0  0  0  0  0  0  0  0  0  0
   18.7607   -2.9187   14.1686 C   0  0  0  0  0  0  0  0  0  0  0  0
   18.3555   -3.0958   15.4944 C   0  0  0  0  0  0  0  0  0  0  0  0
   18.1111    0.1921   19.3597 C   0  0  0  0  0  0  0  0  0  0  0  0
   17.9106   -0.4180   20.7550 C   0  0  0  0  0  0  0  0  0  0  0  0
   16.7023   -1.1831   20.1996 C   0  0  0  0  0  0  0  0  0  0  0  0
  1  2  1  0
  2  3  2  0
  3  4  1  0
  4  5  2  0
  5  6  1  0
  5  7  1  0
  7  8  2  0
  8  9  1  0
  9 10  1  0
 10 11  2  0
 10 12  1  0
 12 13  1  0
 13 14  2  0
 13 15  2  0
 13 16  1  0
 16 17  2  0
 17 18  1  0
 18 19  2  0
 19 20  1  0
 19 21  1  0
 21 22  2  0
 12 23  1  0
 23 24  1  0
 24 25  1  0
  8  2  1  0
 25 12  1  0
 22 16  1  0
M  END
>  <ref_mols>  (875) 
B1396a

>  <gnina_score>  (875) 
5.167

>  <smina_score_min>  (875) 
-3.957

>  <ref_pdb>  (875) 
B1396a

>  <inspiration_score>  (875) 
None

>  <inchikey>  (875) 
UZDLMUZNAUOAGO-UHFFFAOYSA-N

>  <tags>  (875) 
BulkDock Fragalysis export,openbind_d68ev3c_c2_elabs_scored,openbind_d68ev3c_c2_elabs_scored_4.5plus,openbind_d68ev3c_c2_elabs,openbind_d68ev3c_c2_elabs_scored_5plus,syndirella_product,openbind_d68ev3c_c2_elabs_scored_top80percent,syndirella_placed

>  <smiles>  (875) 
Cc1ccc(I)cc1NC(=O)C1(S(=O)(=O)c2ccc(Cl)cc2)CCC1

>  <subsites>  (875) 
None

>  <rmsd(smina/fragmenstein)>  (875) 
2.389

>  <alias>  (875) 
None

>  <energy_score>  (875) 
-39.690432

>  <HIPPO Pose ID>  (875) 
94367

>  <distance_score>  (875) 
0.376958

>  <HIPPO Compound ID>  (875) 
128177

>  <gnina_score_min>  (875) 
5.149

>  <name>  (875) 
P94367

>  <exports>  (875) 
['/opt/xchem-fragalysis-2/maxwin/BulkDock/OUTPUTS/openbind_d68ev3c_c2_elabs_1LOTQJ3.sdf', '/opt/xchem-fragalysis-2/maxwin/BulkDock/OUTPUTS/openbind_d68ev3c_c2_elabs_1LSYI5W.sdf']

$$$$
P94369
     RDKit          3D

 25 27  0  0  0  0  0  0  0  0999 V2000
   13.7717   -4.1166   17.5551 C   0  0  0  0  0  0  0  0  0  0  0  0
   13.4187   -2.8061   16.9045 C   0  0  0  0  0  0  0  0  0  0  0  0
   12.1836   -2.6856   16.2416 C   0  0  0  0  0  0  0  0  0  0  0  0
   11.7793   -1.4515   15.7319 C   0  0  0  0  0  0  0  0  0  0  0  0
   10.0071   -1.1635   15.1641 Br  0  0  0  0  0  0  0  0  0  0  0  0
   12.6332   -0.3599   15.7615 C   0  0  0  0  0  0  0  0  0  0  0  0
   13.8700   -0.4765   16.3859 C   0  0  0  0  0  0  0  0  0  0  0  0
   14.2494   -1.6742   16.9991 C   0  0  0  0  0  0  0  0  0  0  0  0
   15.4113   -1.7022   17.7694 N   0  0  0  0  0  0  0  0  0  0  0  0
   16.5616   -0.6582   17.9052 C   0  0  0  0  0  0  0  0  0  0  0  0
   16.6693    0.4188   17.4489 O   0  0  0  0  0  0  0  0  0  0  0  0
   17.6404   -1.1884   18.9020 C   0  0  0  0  0  0  0  0  0  0  0  0
   18.4606   -2.6031   18.1563 S   0  0  0  0  0  0  0  0  0  0  0  0
   17.4769   -3.6777   18.1329 O   0  0  0  0  0  0  0  0  0  0  0  0
   19.7357   -2.8269   18.8123 O   0  0  0  0  0  0  0  0  0  0  0  0
   18.8636   -2.2636   16.4529 C   0  0  0  0  0  0  0  0  0  0  0  0
   18.4683   -3.1605   15.4530 C   0  0  0  0  0  0  0  0  0  0  0  0
   18.8042   -2.8974   14.1227 C   0  0  0  0  0  0  0  0  0  0  0  0
   19.5225   -1.7448   13.8039 C   0  0  0  0  0  0  0  0  0  0  0  0
   19.9388   -1.4213   12.1671 Cl  0  0  0  0  0  0  0  0  0  0  0  0
   19.9168   -0.8551   14.8042 C   0  0  0  0  0  0  0  0  0  0  0  0
   19.5922   -1.1140   16.1376 C   0  0  0  0  0  0  0  0  0  0  0  0
   17.1732   -1.4565   20.3716 C   0  0  0  0  0  0  0  0  0  0  0  0
   17.6491   -0.0362   20.7221 C   0  0  0  0  0  0  0  0  0  0  0  0
   18.6134   -0.1296   19.5266 C   0  0  0  0  0  0  0  0  0  0  0  0
  1  2  1  0
  2  3  2  0
  3  4  1  0
  4  5  1  0
  4  6  2  0
  6  7  1  0
  7  8  2  0
  8  9  1  0
  9 10  1  0
 10 11  2  0
 10 12  1  0
 12 13  1  0
 13 14  2  0
 13 15  2  0
 13 16  1  0
 16 17  2  0
 17 18  1  0
 18 19  2  0
 19 20  1  0
 19 21  1  0
 21 22  2  0
 12 23  1  0
 23 24  1  0
 24 25  1  0
  8  2  1  0
 25 12  1  0
 22 16  1  0
M  END
>  <ref_mols>  (876) 
B1396a

>  <gnina_score>  (876) 
5.378

>  <smina_score_min>  (876) 
-3.177

>  <ref_pdb>  (876) 
B1396a

>  <inspiration_score>  (876) 
None

>  <inchikey>  (876) 
GXTSAJSOZLWOAA-UHFFFAOYSA-N

>  <tags>  (876) 
BulkDock Fragalysis export,openbind_d68ev3c_c2_elabs_scored,openbind_d68ev3c_c2_elabs_scored_4.5plus,openbind_d68ev3c_c2_elabs,openbind_d68ev3c_c2_elabs_scored_5plus,syndirella_product,openbind_d68ev3c_c2_elabs_scored_top80percent,syndirella_placed

>  <smiles>  (876) 
Cc1cc(Br)ccc1NC(=O)C1(S(=O)(=O)c2ccc(Cl)cc2)CCC1

>  <subsites>  (876) 
None

>  <rmsd(smina/fragmenstein)>  (876) 
2.107

>  <alias>  (876) 
None

>  <energy_score>  (876) 
-38.487893

>  <HIPPO Pose ID>  (876) 
94369

>  <distance_score>  (876) 
0.609666

>  <HIPPO Compound ID>  (876) 
128179

>  <gnina_score_min>  (876) 
5.094

>  <name>  (876) 
P94369

>  <exports>  (876) 
['/opt/xchem-fragalysis-2/maxwin/BulkDock/OUTPUTS/openbind_d68ev3c_c2_elabs_1LOTQJ3.sdf', '/opt/xchem-fragalysis-2/maxwin/BulkDock/OUTPUTS/openbind_d68ev3c_c2_elabs_1LSYI5W.sdf']

$$$$
P94467
     RDKit          3D

 25 26  0  0  0  0  0  0  0  0999 V2000
   13.8738   -4.2095   17.6353 C   0  0  0  0  0  0  0  0  0  0  0  0
   13.4854   -2.9308   16.9446 C   0  0  0  0  0  0  0  0  0  0  0  0
   12.2520   -2.8711   16.2739 C   0  0  0  0  0  0  0  0  0  0  0  0
   11.8251   -1.6790   15.6920 C   0  0  0  0  0  0  0  0  0  0  0  0
   10.2355   -1.5327   15.0772 Cl  0  0  0  0  0  0  0  0  0  0  0  0
   12.6439   -0.5603   15.6895 C   0  0  0  0  0  0  0  0  0  0  0  0
   13.8795   -0.6144   16.3284 C   0  0  0  0  0  0  0  0  0  0  0  0
   14.2904   -1.7775   16.9876 C   0  0  0  0  0  0  0  0  0  0  0  0
   15.4709   -1.7686   17.7289 N   0  0  0  0  0  0  0  0  0  0  0  0
   16.5662   -0.6664   17.8765 C   0  0  0  0  0  0  0  0  0  0  0  0
   16.6027    0.4276   17.4593 O   0  0  0  0  0  0  0  0  0  0  0  0
   17.6432   -1.1724   18.7922 C   0  0  0  0  0  0  0  0  0  0  0  0
   18.4731   -2.5722   18.1491 S   0  0  0  0  0  0  0  0  0  0  0  0
   17.5170   -3.6670   18.1944 O   0  0  0  0  0  0  0  0  0  0  0  0
   19.7438   -2.6784   18.8385 O   0  0  0  0  0  0  0  0  0  0  0  0
   18.8438   -2.2392   16.4466 C   0  0  0  0  0  0  0  0  0  0  0  0
   18.4128   -3.1280   15.4576 C   0  0  0  0  0  0  0  0  0  0  0  0
   18.7358   -2.8784   14.1244 C   0  0  0  0  0  0  0  0  0  0  0  0
   19.4768   -1.7449   13.7838 C   0  0  0  0  0  0  0  0  0  0  0  0
   19.9141   -0.8479   14.7721 C   0  0  0  0  0  0  0  0  0  0  0  0
   20.7450    0.3553   14.3903 C   0  0  0  0  0  0  0  0  0  0  0  0
   20.3037    0.9668   13.2573 F   0  0  0  0  0  0  0  0  0  0  0  0
   20.7596    1.3197   15.3527 F   0  0  0  0  0  0  0  0  0  0  0  0
   22.0473    0.0335   14.1639 F   0  0  0  0  0  0  0  0  0  0  0  0
   19.6012   -1.1109   16.1157 C   0  0  0  0  0  0  0  0  0  0  0  0
  1  2  1  0
  2  3  2  0
  3  4  1  0
  4  5  1  0
  4  6  2  0
  6  7  1  0
  7  8  2  0
  8  9  1  0
  9 10  1  0
 10 11  2  0
 10 12  1  0
 12 13  1  0
 13 14  2  0
 13 15  2  0
 13 16  1  0
 16 17  2  0
 17 18  1  0
 18 19  2  0
 19 20  1  0
 20 21  1  0
 21 22  1  0
 21 23  1  0
 21 24  1  0
 20 25  2  0
  8  2  1  0
 25 16  1  0
M  END
>  <ref_mols>  (877) 
B1396a

>  <gnina_score>  (877) 
4.938

>  <smina_score_min>  (877) 
-3.102

>  <ref_pdb>  (877) 
B1396a

>  <inspiration_score>  (877) 
None

>  <inchikey>  (877) 
IAVWGJREQAQJCN-UHFFFAOYSA-N

>  <tags>  (877) 
BulkDock Fragalysis export,openbind_d68ev3c_c2_elabs_scored,openbind_d68ev3c_c2_elabs_scored_4.5plus,openbind_d68ev3c_c2_elabs,openbind_d68ev3c_c2_elabs_scored_5plus,syndirella_product,openbind_d68ev3c_c2_elabs_scored_top80percent,syndirella_placed

>  <smiles>  (877) 
Cc1cc(Cl)ccc1NC(=O)CS(=O)(=O)c1cccc(C(F)(F)F)c1

>  <subsites>  (877) 
None

>  <rmsd(smina/fragmenstein)>  (877) 
2.662

>  <alias>  (877) 
None

>  <energy_score>  (877) 
-31.027257

>  <HIPPO Pose ID>  (877) 
94467

>  <distance_score>  (877) 
0.563791

>  <HIPPO Compound ID>  (877) 
128246

>  <gnina_score_min>  (877) 
5.041

>  <name>  (877) 
P94467

>  <exports>  (877) 
['/opt/xchem-fragalysis-2/maxwin/BulkDock/OUTPUTS/openbind_d68ev3c_c2_elabs_1LOTQJ3.sdf', '/opt/xchem-fragalysis-2/maxwin/BulkDock/OUTPUTS/openbind_d68ev3c_c2_elabs_1LSYI5W.sdf']

$$$$
P94499
     RDKit          3D

 25 26  0  0  0  0  0  0  0  0999 V2000
   10.4436   -1.6092   14.9671 C   0  0  0  0  0  0  0  0  0  0  0  0
   11.7887   -1.6919   15.6128 C   0  0  0  0  0  0  0  0  0  0  0  0
   12.5867   -0.5515   15.6705 C   0  0  0  0  0  0  0  0  0  0  0  0
   13.8168   -0.5883   16.3201 C   0  0  0  0  0  0  0  0  0  0  0  0
   14.2579   -1.7570   16.9433 C   0  0  0  0  0  0  0  0  0  0  0  0
   15.4799   -1.7626   17.6154 N   0  0  0  0  0  0  0  0  0  0  0  0
   16.4913   -0.6069   17.8872 C   0  0  0  0  0  0  0  0  0  0  0  0
   16.4879    0.5068   17.5212 O   0  0  0  0  0  0  0  0  0  0  0  0
   17.5829   -1.0704   18.8386 C   0  0  1  0  0  0  0  0  0  0  0  0
   17.1878   -1.1304   20.3340 C   0  0  0  0  0  0  0  0  0  0  0  0
   16.9114    0.2812   20.8706 C   0  0  0  0  0  0  0  0  0  0  0  0
   16.0069   -2.0343   20.6927 C   0  0  0  0  0  0  0  0  0  0  0  0
   18.4039   -2.5197   18.2447 S   0  0  0  0  0  0  0  0  0  0  0  0
   17.4465   -3.6126   18.2719 O   0  0  0  0  0  0  0  0  0  0  0  0
   19.6700   -2.6350   18.9426 O   0  0  0  0  0  0  0  0  0  0  0  0
   18.8102   -2.2154   16.5373 C   0  0  0  0  0  0  0  0  0  0  0  0
   19.6319   -1.1325   16.2100 C   0  0  0  0  0  0  0  0  0  0  0  0
   19.9692   -0.9045   14.8741 C   0  0  0  0  0  0  0  0  0  0  0  0
   19.4998   -1.7657   13.8823 C   0  0  0  0  0  0  0  0  0  0  0  0
   19.9655   -1.4558   12.0768 Br  0  0  0  0  0  0  0  0  0  0  0  0
   18.6976   -2.8584   14.2117 C   0  0  0  0  0  0  0  0  0  0  0  0
   18.3457   -3.0859   15.5446 C   0  0  0  0  0  0  0  0  0  0  0  0
   13.4644   -2.9163   16.8999 C   0  0  0  0  0  0  0  0  0  0  0  0
   13.8674   -4.1919   17.5882 C   0  0  0  0  0  0  0  0  0  0  0  0
   12.2350   -2.8716   16.2195 C   0  0  0  0  0  0  0  0  0  0  0  0
  1  2  1  0
  2  3  2  0
  3  4  1  0
  4  5  2  0
  5  6  1  0
  6  7  1  0
  7  8  2  0
  7  9  1  0
  9 10  1  1
 10 11  1  0
 10 12  1  0
  9 13  1  0
 13 14  2  0
 13 15  2  0
 13 16  1  0
 16 17  2  0
 17 18  1  0
 18 19  2  0
 19 20  1  0
 19 21  1  0
 21 22  2  0
  5 23  1  0
 23 24  1  0
 23 25  2  0
 25  2  1  0
 22 16  1  0
M  END
>  <ref_mols>  (878) 
B1396a

>  <gnina_score>  (878) 
5.15

>  <smina_score_min>  (878) 
-3.262

>  <ref_pdb>  (878) 
B1396a

>  <inspiration_score>  (878) 
None

>  <inchikey>  (878) 
JOHJMHBRPGYVTE-GOSISDBHSA-N

>  <tags>  (878) 
BulkDock Fragalysis export,openbind_d68ev3c_c2_elabs_scored,openbind_d68ev3c_c2_elabs_scored_4.5plus,openbind_d68ev3c_c2_elabs,openbind_d68ev3c_c2_elabs_scored_5plus,syndirella_product,openbind_d68ev3c_c2_elabs_scored_top80percent,syndirella_placed

>  <smiles>  (878) 
Cc1ccc(NC(=O)[C@@H](C(C)C)S(=O)(=O)c2ccc(Br)cc2)c(C)c1

>  <subsites>  (878) 
None

>  <rmsd(smina/fragmenstein)>  (878) 
1.995

>  <alias>  (878) 
None

>  <energy_score>  (878) 
-42.671094

>  <HIPPO Pose ID>  (878) 
94499

>  <distance_score>  (878) 
0.557876

>  <HIPPO Compound ID>  (878) 
128275

>  <gnina_score_min>  (878) 
5.076

>  <name>  (878) 
P94499

>  <exports>  (878) 
['/opt/xchem-fragalysis-2/maxwin/BulkDock/OUTPUTS/openbind_d68ev3c_c2_elabs_1LOTQJ3.sdf', '/opt/xchem-fragalysis-2/maxwin/BulkDock/OUTPUTS/openbind_d68ev3c_c2_elabs_1LSYI5W.sdf']

$$$$
P94501
     RDKit          3D

 25 26  0  0  0  0  0  0  0  0999 V2000
   13.6861   -4.2118   17.5690 C   0  0  0  0  0  0  0  0  0  0  0  0
   13.2740   -3.0166   16.7524 C   0  0  0  0  0  0  0  0  0  0  0  0
   12.0909   -3.0845   15.9976 C   0  0  0  0  0  0  0  0  0  0  0  0
   11.6557   -1.9974   15.2410 C   0  0  0  0  0  0  0  0  0  0  0  0
   12.4085   -0.8284   15.2349 C   0  0  0  0  0  0  0  0  0  0  0  0
   11.7640    0.8024   14.1169 I   0  0  0  0  0  0  0  0  0  0  0  0
   13.5943   -0.7433   15.9680 C   0  0  0  0  0  0  0  0  0  0  0  0
   14.0328   -1.8337   16.7254 C   0  0  0  0  0  0  0  0  0  0  0  0
   15.2173   -1.7608   17.4603 N   0  0  0  0  0  0  0  0  0  0  0  0
   16.2817   -0.6228   17.5567 C   0  0  0  0  0  0  0  0  0  0  0  0
   16.3634    0.3911   16.9750 O   0  0  0  0  0  0  0  0  0  0  0  0
   17.2770   -0.9563   18.6645 C   0  0  1  0  0  0  0  0  0  0  0  0
   16.6005   -1.0937   20.0544 C   0  0  0  0  0  0  0  0  0  0  0  0
   15.7267    0.1294   20.3719 C   0  0  0  0  0  0  0  0  0  0  0  0
   17.6229   -1.2624   21.1850 C   0  0  0  0  0  0  0  0  0  0  0  0
   18.2247   -2.3810   18.1813 S   0  0  0  0  0  0  0  0  0  0  0  0
   17.3256   -3.5229   18.2343 O   0  0  0  0  0  0  0  0  0  0  0  0
   19.4677   -2.3900   18.9287 O   0  0  0  0  0  0  0  0  0  0  0  0
   18.6937   -2.1491   16.4804 C   0  0  0  0  0  0  0  0  0  0  0  0
   18.3293   -3.0982   15.5190 C   0  0  0  0  0  0  0  0  0  0  0  0
   18.7418   -2.9267   14.1951 C   0  0  0  0  0  0  0  0  0  0  0  0
   19.5062   -1.8131   13.8449 C   0  0  0  0  0  0  0  0  0  0  0  0
   20.0639   -1.5841   12.0535 Br  0  0  0  0  0  0  0  0  0  0  0  0
   19.8756   -0.8732   14.8071 C   0  0  0  0  0  0  0  0  0  0  0  0
   19.4762   -1.0432   16.1340 C   0  0  0  0  0  0  0  0  0  0  0  0
  1  2  1  0
  2  3  2  0
  3  4  1  0
  4  5  2  0
  5  6  1  0
  5  7  1  0
  7  8  2  0
  8  9  1  0
  9 10  1  0
 10 11  2  0
 10 12  1  0
 12 13  1  1
 13 14  1  0
 13 15  1  0
 12 16  1  0
 16 17  2  0
 16 18  2  0
 16 19  1  0
 19 20  2  0
 20 21  1  0
 21 22  2  0
 22 23  1  0
 22 24  1  0
 24 25  2  0
  8  2  1  0
 25 19  1  0
M  END
>  <ref_mols>  (879) 
B1396a

>  <gnina_score>  (879) 
5.119

>  <smina_score_min>  (879) 
-3.83

>  <ref_pdb>  (879) 
B1396a

>  <inspiration_score>  (879) 
None

>  <inchikey>  (879) 
VIXCUPRWSXNQDD-QGZVFWFLSA-N

>  <tags>  (879) 
BulkDock Fragalysis export,openbind_d68ev3c_c2_elabs_scored,openbind_d68ev3c_c2_elabs_scored_4.5plus,openbind_d68ev3c_c2_elabs,openbind_d68ev3c_c2_elabs_scored_5plus,syndirella_product,openbind_d68ev3c_c2_elabs_scored_top80percent,syndirella_placed

>  <smiles>  (879) 
Cc1ccc(I)cc1NC(=O)[C@@H](C(C)C)S(=O)(=O)c1ccc(Br)cc1

>  <subsites>  (879) 
None

>  <rmsd(smina/fragmenstein)>  (879) 
2.29

>  <alias>  (879) 
None

>  <energy_score>  (879) 
-45.48213

>  <HIPPO Pose ID>  (879) 
94501

>  <distance_score>  (879) 
0.369505

>  <HIPPO Compound ID>  (879) 
128276

>  <gnina_score_min>  (879) 
5.124

>  <name>  (879) 
P94501

>  <exports>  (879) 
['/opt/xchem-fragalysis-2/maxwin/BulkDock/OUTPUTS/openbind_d68ev3c_c2_elabs_1LOTQJ3.sdf', '/opt/xchem-fragalysis-2/maxwin/BulkDock/OUTPUTS/openbind_d68ev3c_c2_elabs_1LSYI5W.sdf']

$$$$
P94503
     RDKit          3D

 25 26  0  0  0  0  0  0  0  0999 V2000
   13.7049   -4.2195   17.5804 C   0  0  0  0  0  0  0  0  0  0  0  0
   13.2798   -3.0305   16.7608 C   0  0  0  0  0  0  0  0  0  0  0  0
   12.0928   -3.1109   16.0136 C   0  0  0  0  0  0  0  0  0  0  0  0
   11.6471   -2.0314   15.2536 C   0  0  0  0  0  0  0  0  0  0  0  0
   12.3923   -0.8585   15.2369 C   0  0  0  0  0  0  0  0  0  0  0  0
   11.7848    0.6124   14.2153 Br  0  0  0  0  0  0  0  0  0  0  0  0
   13.5812   -0.7597   15.9618 C   0  0  0  0  0  0  0  0  0  0  0  0
   14.0309   -1.8427   16.7231 C   0  0  0  0  0  0  0  0  0  0  0  0
   15.2184   -1.7596   17.4520 N   0  0  0  0  0  0  0  0  0  0  0  0
   16.2774   -0.6159   17.5366 C   0  0  0  0  0  0  0  0  0  0  0  0
   16.3514    0.3949   16.9487 O   0  0  0  0  0  0  0  0  0  0  0  0
   17.2774   -0.9370   18.6447 C   0  0  1  0  0  0  0  0  0  0  0  0
   16.6040   -1.0619   20.0375 C   0  0  0  0  0  0  0  0  0  0  0  0
   15.7290    0.1629   20.3450 C   0  0  0  0  0  0  0  0  0  0  0  0
   17.6287   -1.2182   21.1676 C   0  0  0  0  0  0  0  0  0  0  0  0
   18.2258   -2.3657   18.1737 S   0  0  0  0  0  0  0  0  0  0  0  0
   19.4678   -2.3700   18.9226 O   0  0  0  0  0  0  0  0  0  0  0  0
   17.3259   -3.5067   18.2342 O   0  0  0  0  0  0  0  0  0  0  0  0
   18.6965   -2.1461   16.4718 C   0  0  0  0  0  0  0  0  0  0  0  0
   19.4719   -1.0380   16.1167 C   0  0  0  0  0  0  0  0  0  0  0  0
   19.8720   -0.8771   14.7890 C   0  0  0  0  0  0  0  0  0  0  0  0
   19.5107   -1.8282   13.8347 C   0  0  0  0  0  0  0  0  0  0  0  0
   20.0703   -1.6120   12.0424 Br  0  0  0  0  0  0  0  0  0  0  0  0
   18.7534   -2.9439   14.1938 C   0  0  0  0  0  0  0  0  0  0  0  0
   18.3400   -3.1063   15.5185 C   0  0  0  0  0  0  0  0  0  0  0  0
  1  2  1  0
  2  3  2  0
  3  4  1  0
  4  5  2  0
  5  6  1  0
  5  7  1  0
  7  8  2  0
  8  9  1  0
  9 10  1  0
 10 11  2  0
 10 12  1  0
 12 13  1  1
 13 14  1  0
 13 15  1  0
 12 16  1  0
 16 17  2  0
 16 18  2  0
 16 19  1  0
 19 20  2  0
 20 21  1  0
 21 22  2  0
 22 23  1  0
 22 24  1  0
 24 25  2  0
  8  2  1  0
 25 19  1  0
M  END
>  <ref_mols>  (880) 
B1396a

>  <gnina_score>  (880) 
5.064

>  <smina_score_min>  (880) 
-3.884

>  <ref_pdb>  (880) 
B1396a

>  <inspiration_score>  (880) 
None

>  <inchikey>  (880) 
QEFRPBDGGITUAL-QGZVFWFLSA-N

>  <tags>  (880) 
BulkDock Fragalysis export,openbind_d68ev3c_c2_elabs_scored,openbind_d68ev3c_c2_elabs_scored_4.5plus,openbind_d68ev3c_c2_elabs,openbind_d68ev3c_c2_elabs_scored_5plus,syndirella_product,openbind_d68ev3c_c2_elabs_scored_top80percent,syndirella_placed

>  <smiles>  (880) 
Cc1ccc(Br)cc1NC(=O)[C@@H](C(C)C)S(=O)(=O)c1ccc(Br)cc1

>  <subsites>  (880) 
None

>  <rmsd(smina/fragmenstein)>  (880) 
2.82

>  <alias>  (880) 
None

>  <energy_score>  (880) 
-49.344227

>  <HIPPO Pose ID>  (880) 
94503

>  <distance_score>  (880) 
0.362427

>  <HIPPO Compound ID>  (880) 
128277

>  <gnina_score_min>  (880) 
5.006

>  <name>  (880) 
P94503

>  <exports>  (880) 
['/opt/xchem-fragalysis-2/maxwin/BulkDock/OUTPUTS/openbind_d68ev3c_c2_elabs_1LOTQJ3.sdf', '/opt/xchem-fragalysis-2/maxwin/BulkDock/OUTPUTS/openbind_d68ev3c_c2_elabs_1LSYI5W.sdf']

$$$$
P94545
     RDKit          3D

 25 26  0  0  0  0  0  0  0  0999 V2000
   13.5439   -3.8258   17.3057 C   0  0  0  0  0  0  0  0  0  0  0  0
   13.3138   -2.4951   16.6329 C   0  0  0  0  0  0  0  0  0  0  0  0
   12.2896   -2.2964   15.6861 C   0  0  0  0  0  0  0  0  0  0  0  0
   11.3520   -3.5671   15.0349 Cl  0  0  0  0  0  0  0  0  0  0  0  0
   12.0217   -1.0417   15.1361 C   0  0  0  0  0  0  0  0  0  0  0  0
   12.8187    0.0374   15.4682 C   0  0  0  0  0  0  0  0  0  0  0  0
   13.9004   -0.1514   16.3222 C   0  0  0  0  0  0  0  0  0  0  0  0
   14.1597   -1.4015   16.8992 C   0  0  0  0  0  0  0  0  0  0  0  0
   15.2944   -1.5511   17.6999 N   0  0  0  0  0  0  0  0  0  0  0  0
   16.5052   -0.5887   17.9346 C   0  0  0  0  0  0  0  0  0  0  0  0
   16.7676    0.4368   17.4324 O   0  0  0  0  0  0  0  0  0  0  0  0
   17.3958   -1.2013   19.0160 C   0  0  2  0  0  0  0  0  0  0  0  0
   18.2721   -0.1325   19.7311 C   0  0  0  0  0  0  0  0  0  0  0  0
   17.3876    0.9692   20.3527 C   0  0  0  0  0  0  0  0  0  0  0  0
   19.1249   -0.6998   20.8767 C   0  0  0  0  0  0  0  0  0  0  0  0
   18.2694   -2.5563   18.2474 S   0  0  0  0  0  0  0  0  0  0  0  0
   17.3042   -3.6444   18.1730 O   0  0  0  0  0  0  0  0  0  0  0  0
   19.5361   -2.7882   18.9098 O   0  0  0  0  0  0  0  0  0  0  0  0
   18.6742   -2.1169   16.5694 C   0  0  0  0  0  0  0  0  0  0  0  0
   18.0324   -2.7646   15.5055 C   0  0  0  0  0  0  0  0  0  0  0  0
   18.4082   -2.4725   14.1920 C   0  0  0  0  0  0  0  0  0  0  0  0
   19.4235   -1.5468   13.9528 C   0  0  0  0  0  0  0  0  0  0  0  0
   19.9326   -1.1505   12.1761 Br  0  0  0  0  0  0  0  0  0  0  0  0
   20.0718   -0.9130   15.0134 C   0  0  0  0  0  0  0  0  0  0  0  0
   19.7037   -1.2032   16.3292 C   0  0  0  0  0  0  0  0  0  0  0  0
  1  2  1  0
  2  3  2  0
  3  4  1  0
  3  5  1  0
  5  6  2  0
  6  7  1  0
  7  8  2  0
  8  9  1  0
  9 10  1  0
 10 11  2  0
 10 12  1  0
 12 13  1  6
 13 14  1  0
 13 15  1  0
 12 16  1  0
 16 17  2  0
 16 18  2  0
 16 19  1  0
 19 20  2  0
 20 21  1  0
 21 22  2  0
 22 23  1  0
 22 24  1  0
 24 25  2  0
  8  2  1  0
 25 19  1  0
M  END
>  <ref_mols>  (881) 
B1396a

>  <gnina_score>  (881) 
5.19

>  <smina_score_min>  (881) 
-3.572

>  <ref_pdb>  (881) 
B1396a

>  <inspiration_score>  (881) 
None

>  <inchikey>  (881) 
QESRCUWAKPXMOE-KRWDZBQOSA-N

>  <tags>  (881) 
BulkDock Fragalysis export,openbind_d68ev3c_c2_elabs_scored,openbind_d68ev3c_c2_elabs_scored_4.5plus,openbind_d68ev3c_c2_elabs,openbind_d68ev3c_c2_elabs_scored_5plus,syndirella_product,openbind_d68ev3c_c2_elabs_scored_top80percent,syndirella_placed

>  <smiles>  (881) 
Cc1c(Cl)cccc1NC(=O)[C@H](C(C)C)S(=O)(=O)c1ccc(Br)cc1

>  <subsites>  (881) 
None

>  <rmsd(smina/fragmenstein)>  (881) 
2.38

>  <alias>  (881) 
None

>  <energy_score>  (881) 
-44.505348

>  <HIPPO Pose ID>  (881) 
94545

>  <distance_score>  (881) 
0.760806

>  <HIPPO Compound ID>  (881) 
128315

>  <gnina_score_min>  (881) 
5.02

>  <name>  (881) 
P94545

>  <exports>  (881) 
['/opt/xchem-fragalysis-2/maxwin/BulkDock/OUTPUTS/openbind_d68ev3c_c2_elabs_1LOTQJ3.sdf', '/opt/xchem-fragalysis-2/maxwin/BulkDock/OUTPUTS/openbind_d68ev3c_c2_elabs_1LSYI5W.sdf']

$$$$
P94571
     RDKit          3D

 25 26  0  0  0  0  0  0  0  0999 V2000
   13.7508   -4.1248   17.5952 C   0  0  0  0  0  0  0  0  0  0  0  0
   13.2377   -2.9473   16.8027 C   0  0  0  0  0  0  0  0  0  0  0  0
   12.0806   -3.1327   16.0273 C   0  0  0  0  0  0  0  0  0  0  0  0
   11.5555   -2.0994   15.2645 C   0  0  0  0  0  0  0  0  0  0  0  0
   12.1670   -0.8531   15.2958 C   0  0  0  0  0  0  0  0  0  0  0  0
   13.3280   -0.6296   16.0592 C   0  0  0  0  0  0  0  0  0  0  0  0
   13.8161    1.0905   16.1440 S   0  0  0  0  0  0  0  0  0  0  0  0
   13.8982   -1.6941   16.7938 C   0  0  0  0  0  0  0  0  0  0  0  0
   15.0909   -1.6166   17.5373 N   0  0  0  0  0  0  0  0  0  0  0  0
   16.3243   -0.6699   17.3806 C   0  0  0  0  0  0  0  0  0  0  0  0
   16.5648    0.1338   16.5627 O   0  0  0  0  0  0  0  0  0  0  0  0
   17.2741   -0.9286   18.5562 C   0  0  2  0  0  0  0  0  0  0  0  0
   18.0792    0.3517   18.9163 C   0  0  0  0  0  0  0  0  0  0  0  0
   17.1180    1.4906   19.3136 C   0  0  0  0  0  0  0  0  0  0  0  0
   19.0590    0.1665   20.0818 C   0  0  0  0  0  0  0  0  0  0  0  0
   18.2315   -2.3699   18.1029 S   0  0  0  0  0  0  0  0  0  0  0  0
   17.3033   -3.4908   18.1054 O   0  0  0  0  0  0  0  0  0  0  0  0
   19.4248   -2.4631   18.9200 O   0  0  0  0  0  0  0  0  0  0  0  0
   18.7794   -2.1427   16.4259 C   0  0  0  0  0  0  0  0  0  0  0  0
   18.1612   -2.8502   15.3879 C   0  0  0  0  0  0  0  0  0  0  0  0
   18.6083   -2.6758   14.0761 C   0  0  0  0  0  0  0  0  0  0  0  0
   19.6698   -1.8088   13.8157 C   0  0  0  0  0  0  0  0  0  0  0  0
   20.2730   -1.5708   12.0401 Br  0  0  0  0  0  0  0  0  0  0  0  0
   20.2989   -1.1222   14.8544 C   0  0  0  0  0  0  0  0  0  0  0  0
   19.8609   -1.2960   16.1683 C   0  0  0  0  0  0  0  0  0  0  0  0
  1  2  1  0
  2  3  2  0
  3  4  1  0
  4  5  2  0
  5  6  1  0
  6  7  1  0
  6  8  2  0
  8  9  1  0
  9 10  1  0
 10 11  2  0
 10 12  1  0
 12 13  1  6
 13 14  1  0
 13 15  1  0
 12 16  1  0
 16 17  2  0
 16 18  2  0
 16 19  1  0
 19 20  2  0
 20 21  1  0
 21 22  2  0
 22 23  1  0
 22 24  1  0
 24 25  2  0
  8  2  1  0
 25 19  1  0
M  END
>  <ref_mols>  (882) 
B1396a

>  <gnina_score>  (882) 
5.218

>  <smina_score_min>  (882) 
-3.533

>  <ref_pdb>  (882) 
B1396a

>  <inspiration_score>  (882) 
None

>  <inchikey>  (882) 
YZUYKGWOUWRTHC-KRWDZBQOSA-N

>  <tags>  (882) 
BulkDock Fragalysis export,openbind_d68ev3c_c2_elabs_scored,openbind_d68ev3c_c2_elabs_scored_4.5plus,openbind_d68ev3c_c2_elabs,openbind_d68ev3c_c2_elabs_scored_5plus,syndirella_product,openbind_d68ev3c_c2_elabs_scored_top80percent,syndirella_placed

>  <smiles>  (882) 
Cc1cccc(S)c1NC(=O)[C@H](C(C)C)S(=O)(=O)c1ccc(Br)cc1

>  <subsites>  (882) 
None

>  <rmsd(smina/fragmenstein)>  (882) 
2.241

>  <alias>  (882) 
None

>  <energy_score>  (882) 
-35.950339

>  <HIPPO Pose ID>  (882) 
94571

>  <distance_score>  (882) 
0.311811

>  <HIPPO Compound ID>  (882) 
128341

>  <gnina_score_min>  (882) 
5.05

>  <name>  (882) 
P94571

>  <exports>  (882) 
['/opt/xchem-fragalysis-2/maxwin/BulkDock/OUTPUTS/openbind_d68ev3c_c2_elabs_1LOTQJ3.sdf', '/opt/xchem-fragalysis-2/maxwin/BulkDock/OUTPUTS/openbind_d68ev3c_c2_elabs_1LSYI5W.sdf']

$$$$
P94573
     RDKit          3D

 25 26  0  0  0  0  0  0  0  0999 V2000
   13.7375   -4.1292   17.5878 C   0  0  0  0  0  0  0  0  0  0  0  0
   13.2289   -2.9458   16.8032 C   0  0  0  0  0  0  0  0  0  0  0  0
   12.0752   -3.1178   16.0177 C   0  0  0  0  0  0  0  0  0  0  0  0
   11.5566   -2.0741   15.2603 C   0  0  0  0  0  0  0  0  0  0  0  0
   12.1692   -0.8292   15.3088 C   0  0  0  0  0  0  0  0  0  0  0  0
   13.3189   -0.6295   16.0865 C   0  0  0  0  0  0  0  0  0  0  0  0
   13.8197    1.0174   16.2424 Cl  0  0  0  0  0  0  0  0  0  0  0  0
   13.8898   -1.6961   16.8091 C   0  0  0  0  0  0  0  0  0  0  0  0
   15.0841   -1.6138   17.5459 N   0  0  0  0  0  0  0  0  0  0  0  0
   16.3197   -0.6712   17.3738 C   0  0  0  0  0  0  0  0  0  0  0  0
   16.5585    0.1229   16.5467 O   0  0  0  0  0  0  0  0  0  0  0  0
   17.2736   -0.9194   18.5471 C   0  0  2  0  0  0  0  0  0  0  0  0
   18.0784    0.3648   18.8934 C   0  0  0  0  0  0  0  0  0  0  0  0
   19.0654    0.1898   20.0542 C   0  0  0  0  0  0  0  0  0  0  0  0
   17.1169    1.5045   19.2877 C   0  0  0  0  0  0  0  0  0  0  0  0
   18.2300   -2.3628   18.1003 S   0  0  0  0  0  0  0  0  0  0  0  0
   19.4204   -2.4555   18.9220 O   0  0  0  0  0  0  0  0  0  0  0  0
   17.3012   -3.4837   18.1056 O   0  0  0  0  0  0  0  0  0  0  0  0
   18.7833   -2.1433   16.4243 C   0  0  0  0  0  0  0  0  0  0  0  0
   19.8657   -1.2981   16.1661 C   0  0  0  0  0  0  0  0  0  0  0  0
   20.3080   -1.1304   14.8529 C   0  0  0  0  0  0  0  0  0  0  0  0
   19.6825   -1.8219   13.8155 C   0  0  0  0  0  0  0  0  0  0  0  0
   20.2922   -1.5932   12.0408 Br  0  0  0  0  0  0  0  0  0  0  0  0
   18.6201   -2.6876   14.0764 C   0  0  0  0  0  0  0  0  0  0  0  0
   18.1684   -2.8557   15.3875 C   0  0  0  0  0  0  0  0  0  0  0  0
  1  2  1  0
  2  3  2  0
  3  4  1  0
  4  5  2  0
  5  6  1  0
  6  7  1  0
  6  8  2  0
  8  9  1  0
  9 10  1  0
 10 11  2  0
 10 12  1  0
 12 13  1  6
 13 14  1  0
 13 15  1  0
 12 16  1  0
 16 17  2  0
 16 18  2  0
 16 19  1  0
 19 20  2  0
 20 21  1  0
 21 22  2  0
 22 23  1  0
 22 24  1  0
 24 25  2  0
  8  2  1  0
 25 19  1  0
M  END
>  <ref_mols>  (883) 
B1396a

>  <gnina_score>  (883) 
5.252

>  <smina_score_min>  (883) 
-3.589

>  <ref_pdb>  (883) 
B1396a

>  <inspiration_score>  (883) 
None

>  <inchikey>  (883) 
DESOOPOKEVYBTD-KRWDZBQOSA-N

>  <tags>  (883) 
BulkDock Fragalysis export,openbind_d68ev3c_c2_elabs_scored,openbind_d68ev3c_c2_elabs_scored_4.5plus,openbind_d68ev3c_c2_elabs,openbind_d68ev3c_c2_elabs_scored_5plus,syndirella_product,openbind_d68ev3c_c2_elabs_scored_top80percent,syndirella_placed

>  <smiles>  (883) 
Cc1cccc(Cl)c1NC(=O)[C@H](C(C)C)S(=O)(=O)c1ccc(Br)cc1

>  <subsites>  (883) 
None

>  <rmsd(smina/fragmenstein)>  (883) 
2.247

>  <alias>  (883) 
None

>  <energy_score>  (883) 
-43.335244

>  <HIPPO Pose ID>  (883) 
94573

>  <distance_score>  (883) 
0.308703

>  <HIPPO Compound ID>  (883) 
128342

>  <gnina_score_min>  (883) 
5.104

>  <name>  (883) 
P94573

>  <exports>  (883) 
['/opt/xchem-fragalysis-2/maxwin/BulkDock/OUTPUTS/openbind_d68ev3c_c2_elabs_1LOTQJ3.sdf', '/opt/xchem-fragalysis-2/maxwin/BulkDock/OUTPUTS/openbind_d68ev3c_c2_elabs_1LSYI5W.sdf']

$$$$
P94575
     RDKit          3D

 25 26  0  0  0  0  0  0  0  0999 V2000
   13.7008   -4.1969   17.6449 C   0  0  0  0  0  0  0  0  0  0  0  0
   13.2751   -3.0232   16.8045 C   0  0  0  0  0  0  0  0  0  0  0  0
   12.0983   -3.1240   16.0436 C   0  0  0  0  0  0  0  0  0  0  0  0
   11.6643   -2.0660   15.2470 C   0  0  0  0  0  0  0  0  0  0  0  0
   12.4128   -0.8962   15.2018 C   0  0  0  0  0  0  0  0  0  0  0  0
   11.8764    0.4144   14.2239 Cl  0  0  0  0  0  0  0  0  0  0  0  0
   13.5916   -0.7791   15.9390 C   0  0  0  0  0  0  0  0  0  0  0  0
   14.0253   -1.8364   16.7450 C   0  0  0  0  0  0  0  0  0  0  0  0
   15.2036   -1.7260   17.4848 N   0  0  0  0  0  0  0  0  0  0  0  0
   16.3087   -0.6223   17.4722 C   0  0  0  0  0  0  0  0  0  0  0  0
   16.4337    0.3177   16.7853 O   0  0  0  0  0  0  0  0  0  0  0  0
   17.2946   -0.9266   18.6134 C   0  0  2  0  0  0  0  0  0  0  0  0
   18.0976    0.3436   19.0180 C   0  0  0  0  0  0  0  0  0  0  0  0
   19.1563    0.1100   20.1027 C   0  0  0  0  0  0  0  0  0  0  0  0
   17.1399    1.4264   19.5584 C   0  0  0  0  0  0  0  0  0  0  0  0
   18.2498   -2.3500   18.1024 S   0  0  0  0  0  0  0  0  0  0  0  0
   19.4641   -2.4614   18.8847 O   0  0  0  0  0  0  0  0  0  0  0  0
   17.3246   -3.4747   18.1025 O   0  0  0  0  0  0  0  0  0  0  0  0
   18.7518   -2.0819   16.4184 C   0  0  0  0  0  0  0  0  0  0  0  0
   18.1338   -2.7951   15.3839 C   0  0  0  0  0  0  0  0  0  0  0  0
   18.5591   -2.6036   14.0674 C   0  0  0  0  0  0  0  0  0  0  0  0
   19.5989   -1.7133   13.7984 C   0  0  0  0  0  0  0  0  0  0  0  0
   20.1742   -1.4534   12.0167 Br  0  0  0  0  0  0  0  0  0  0  0  0
   20.2262   -1.0186   14.8329 C   0  0  0  0  0  0  0  0  0  0  0  0
   19.8094   -1.2087   16.1515 C   0  0  0  0  0  0  0  0  0  0  0  0
  1  2  1  0
  2  3  2  0
  3  4  1  0
  4  5  2  0
  5  6  1  0
  5  7  1  0
  7  8  2  0
  8  9  1  0
  9 10  1  0
 10 11  2  0
 10 12  1  0
 12 13  1  6
 13 14  1  0
 13 15  1  0
 12 16  1  0
 16 17  2  0
 16 18  2  0
 16 19  1  0
 19 20  2  0
 20 21  1  0
 21 22  2  0
 22 23  1  0
 22 24  1  0
 24 25  2  0
  8  2  1  0
 25 19  1  0
M  END
>  <ref_mols>  (884) 
B1396a

>  <gnina_score>  (884) 
5.208

>  <smina_score_min>  (884) 
-3.615

>  <ref_pdb>  (884) 
B1396a

>  <inspiration_score>  (884) 
None

>  <inchikey>  (884) 
RYMIYMQEPCGGHI-KRWDZBQOSA-N

>  <tags>  (884) 
BulkDock Fragalysis export,openbind_d68ev3c_c2_elabs_scored,openbind_d68ev3c_c2_elabs_scored_4.5plus,openbind_d68ev3c_c2_elabs,openbind_d68ev3c_c2_elabs_scored_5plus,syndirella_product,openbind_d68ev3c_c2_elabs_scored_top80percent,syndirella_placed

>  <smiles>  (884) 
Cc1ccc(Cl)cc1NC(=O)[C@H](C(C)C)S(=O)(=O)c1ccc(Br)cc1

>  <subsites>  (884) 
None

>  <rmsd(smina/fragmenstein)>  (884) 
2.33

>  <alias>  (884) 
None

>  <energy_score>  (884) 
-51.106368

>  <HIPPO Pose ID>  (884) 
94575

>  <distance_score>  (884) 
0.369593

>  <HIPPO Compound ID>  (884) 
128343

>  <gnina_score_min>  (884) 
5.15

>  <name>  (884) 
P94575

>  <exports>  (884) 
['/opt/xchem-fragalysis-2/maxwin/BulkDock/OUTPUTS/openbind_d68ev3c_c2_elabs_1LOTQJ3.sdf', '/opt/xchem-fragalysis-2/maxwin/BulkDock/OUTPUTS/openbind_d68ev3c_c2_elabs_1LSYI5W.sdf']

$$$$
P94577
     RDKit          3D

 25 26  0  0  0  0  0  0  0  0999 V2000
   13.8341   -4.1894   17.6156 C   0  0  0  0  0  0  0  0  0  0  0  0
   13.4463   -2.9151   16.9165 C   0  0  0  0  0  0  0  0  0  0  0  0
   12.2041   -2.8495   16.2635 C   0  0  0  0  0  0  0  0  0  0  0  0
   11.7779   -1.6577   15.6794 C   0  0  0  0  0  0  0  0  0  0  0  0
   10.1762   -1.4964   15.0980 Cl  0  0  0  0  0  0  0  0  0  0  0  0
   12.6081   -0.5478   15.6512 C   0  0  0  0  0  0  0  0  0  0  0  0
   13.8549   -0.6103   16.2660 C   0  0  0  0  0  0  0  0  0  0  0  0
   14.2636   -1.7712   16.9305 C   0  0  0  0  0  0  0  0  0  0  0  0
   15.4625   -1.7682   17.6389 N   0  0  0  0  0  0  0  0  0  0  0  0
   16.5952   -0.6934   17.7113 C   0  0  0  0  0  0  0  0  0  0  0  0
   16.7241    0.3134   17.1265 O   0  0  0  0  0  0  0  0  0  0  0  0
   17.5899   -1.1269   18.7963 C   0  0  2  0  0  0  0  0  0  0  0  0
   18.4491    0.0722   19.2927 C   0  0  0  0  0  0  0  0  0  0  0  0
   17.5451    1.1353   19.9523 C   0  0  0  0  0  0  0  0  0  0  0  0
   19.5208   -0.2952   20.3267 C   0  0  0  0  0  0  0  0  0  0  0  0
   18.4690   -2.5335   18.1409 S   0  0  0  0  0  0  0  0  0  0  0  0
   17.5062   -3.6265   18.1287 O   0  0  0  0  0  0  0  0  0  0  0  0
   19.7227   -2.7225   18.8397 O   0  0  0  0  0  0  0  0  0  0  0  0
   18.8786   -2.1778   16.4477 C   0  0  0  0  0  0  0  0  0  0  0  0
   18.2159   -2.8508   15.4136 C   0  0  0  0  0  0  0  0  0  0  0  0
   18.5669   -2.5900   14.0872 C   0  0  0  0  0  0  0  0  0  0  0  0
   19.5766   -1.6692   13.8072 C   0  0  0  0  0  0  0  0  0  0  0  0
   20.0504   -1.3135   12.0123 Br  0  0  0  0  0  0  0  0  0  0  0  0
   20.2472   -1.0127   14.8397 C   0  0  0  0  0  0  0  0  0  0  0  0
   19.9053   -1.2728   16.1679 C   0  0  0  0  0  0  0  0  0  0  0  0
  1  2  1  0
  2  3  2  0
  3  4  1  0
  4  5  1  0
  4  6  2  0
  6  7  1  0
  7  8  2  0
  8  9  1  0
  9 10  1  0
 10 11  2  0
 10 12  1  0
 12 13  1  6
 13 14  1  0
 13 15  1  0
 12 16  1  0
 16 17  2  0
 16 18  2  0
 16 19  1  0
 19 20  2  0
 20 21  1  0
 21 22  2  0
 22 23  1  0
 22 24  1  0
 24 25  2  0
  8  2  1  0
 25 19  1  0
M  END
>  <ref_mols>  (885) 
B1396a

>  <gnina_score>  (885) 
5.363

>  <smina_score_min>  (885) 
-2.852

>  <ref_pdb>  (885) 
B1396a

>  <inspiration_score>  (885) 
None

>  <inchikey>  (885) 
NSJNAMHEKYGNFJ-KRWDZBQOSA-N

>  <tags>  (885) 
BulkDock Fragalysis export,openbind_d68ev3c_c2_elabs_scored,openbind_d68ev3c_c2_elabs_scored_4.5plus,openbind_d68ev3c_c2_elabs,openbind_d68ev3c_c2_elabs_scored_5plus,syndirella_product,openbind_d68ev3c_c2_elabs_scored_top80percent,syndirella_placed

>  <smiles>  (885) 
Cc1cc(Cl)ccc1NC(=O)[C@H](C(C)C)S(=O)(=O)c1ccc(Br)cc1

>  <subsites>  (885) 
None

>  <rmsd(smina/fragmenstein)>  (885) 
2.139

>  <alias>  (885) 
None

>  <energy_score>  (885) 
-18.689707

>  <HIPPO Pose ID>  (885) 
94577

>  <distance_score>  (885) 
0.532207

>  <HIPPO Compound ID>  (885) 
128344

>  <gnina_score_min>  (885) 
5.388

>  <name>  (885) 
P94577

>  <exports>  (885) 
['/opt/xchem-fragalysis-2/maxwin/BulkDock/OUTPUTS/openbind_d68ev3c_c2_elabs_1LOTQJ3.sdf', '/opt/xchem-fragalysis-2/maxwin/BulkDock/OUTPUTS/openbind_d68ev3c_c2_elabs_1LSYI5W.sdf']

$$$$
P94579
     RDKit          3D

 25 26  0  0  0  0  0  0  0  0999 V2000
   13.7243   -4.0837   17.6214 C   0  0  0  0  0  0  0  0  0  0  0  0
   13.3547   -2.8714   16.8142 C   0  0  0  0  0  0  0  0  0  0  0  0
   12.2005   -2.8971   16.0231 C   0  0  0  0  0  0  0  0  0  0  0  0
   11.4510   -4.0005   15.9887 F   0  0  0  0  0  0  0  0  0  0  0  0
   11.7942   -1.8112   15.2568 C   0  0  0  0  0  0  0  0  0  0  0  0
   12.5645   -0.6581   15.2616 C   0  0  0  0  0  0  0  0  0  0  0  0
   13.7344   -0.6104   16.0248 C   0  0  0  0  0  0  0  0  0  0  0  0
   14.1330   -1.7060   16.8018 C   0  0  0  0  0  0  0  0  0  0  0  0
   15.3086   -1.6472   17.5502 N   0  0  0  0  0  0  0  0  0  0  0  0
   16.4374   -0.5678   17.5819 C   0  0  0  0  0  0  0  0  0  0  0  0
   16.5863    0.3931   16.9291 O   0  0  0  0  0  0  0  0  0  0  0  0
   17.4155   -0.9394   18.7077 C   0  0  2  0  0  0  0  0  0  0  0  0
   18.2578    0.2904   19.1548 C   0  0  0  0  0  0  0  0  0  0  0  0
   17.3346    1.3851   19.7302 C   0  0  0  0  0  0  0  0  0  0  0  0
   19.3053   -0.0135   20.2332 C   0  0  0  0  0  0  0  0  0  0  0  0
   18.3240   -2.3728   18.1435 S   0  0  0  0  0  0  0  0  0  0  0  0
   19.5558   -2.5267   18.8898 O   0  0  0  0  0  0  0  0  0  0  0  0
   17.3710   -3.4741   18.1457 O   0  0  0  0  0  0  0  0  0  0  0  0
   18.7895   -2.0866   16.4512 C   0  0  0  0  0  0  0  0  0  0  0  0
   19.8446   -1.2148   16.1711 C   0  0  0  0  0  0  0  0  0  0  0  0
   20.2335   -1.0114   14.8459 C   0  0  0  0  0  0  0  0  0  0  0  0
   19.5809   -1.6916   13.8174 C   0  0  0  0  0  0  0  0  0  0  0  0
   20.1177   -1.4130   12.0266 Br  0  0  0  0  0  0  0  0  0  0  0  0
   18.5431   -2.5802   14.0988 C   0  0  0  0  0  0  0  0  0  0  0  0
   18.1456   -2.7849   15.4221 C   0  0  0  0  0  0  0  0  0  0  0  0
  1  2  1  0
  2  3  2  0
  3  4  1  0
  3  5  1  0
  5  6  2  0
  6  7  1  0
  7  8  2  0
  8  9  1  0
  9 10  1  0
 10 11  2  0
 10 12  1  0
 12 13  1  6
 13 14  1  0
 13 15  1  0
 12 16  1  0
 16 17  2  0
 16 18  2  0
 16 19  1  0
 19 20  2  0
 20 21  1  0
 21 22  2  0
 22 23  1  0
 22 24  1  0
 24 25  2  0
  8  2  1  0
 25 19  1  0
M  END
>  <ref_mols>  (886) 
B1396a

>  <gnina_score>  (886) 
5.18

>  <smina_score_min>  (886) 
-3.309

>  <ref_pdb>  (886) 
B1396a

>  <inspiration_score>  (886) 
None

>  <inchikey>  (886) 
RZEZGBCFUMBRBZ-KRWDZBQOSA-N

>  <tags>  (886) 
BulkDock Fragalysis export,openbind_d68ev3c_c2_elabs_scored,openbind_d68ev3c_c2_elabs_scored_4.5plus,openbind_d68ev3c_c2_elabs,openbind_d68ev3c_c2_elabs_scored_5plus,syndirella_product,openbind_d68ev3c_c2_elabs_scored_top80percent,syndirella_placed

>  <smiles>  (886) 
Cc1c(F)cccc1NC(=O)[C@H](C(C)C)S(=O)(=O)c1ccc(Br)cc1

>  <subsites>  (886) 
None

>  <rmsd(smina/fragmenstein)>  (886) 
2.585

>  <alias>  (886) 
None

>  <energy_score>  (886) 
-34.092318

>  <HIPPO Pose ID>  (886) 
94579

>  <distance_score>  (886) 
0.464007

>  <HIPPO Compound ID>  (886) 
128345

>  <gnina_score_min>  (886) 
5.369

>  <name>  (886) 
P94579

>  <exports>  (886) 
['/opt/xchem-fragalysis-2/maxwin/BulkDock/OUTPUTS/openbind_d68ev3c_c2_elabs_1LOTQJ3.sdf', '/opt/xchem-fragalysis-2/maxwin/BulkDock/OUTPUTS/openbind_d68ev3c_c2_elabs_1LSYI5W.sdf']

$$$$
P94588
     RDKit          3D

 25 26  0  0  0  0  0  0  0  0999 V2000
   13.7912   -4.0912   17.5729 C   0  0  0  0  0  0  0  0  0  0  0  0
   13.2647   -2.9102   16.7944 C   0  0  0  0  0  0  0  0  0  0  0  0
   12.1171   -3.1092   16.0047 C   0  0  0  0  0  0  0  0  0  0  0  0
   11.5727   -2.0763   15.2539 C   0  0  0  0  0  0  0  0  0  0  0  0
   12.1457   -0.8144   15.3214 C   0  0  0  0  0  0  0  0  0  0  0  0
   13.2836   -0.5837   16.1123 C   0  0  0  0  0  0  0  0  0  0  0  0
   13.7154    1.2572   16.3240 Br  0  0  0  0  0  0  0  0  0  0  0  0
   13.8940   -1.6404   16.8176 C   0  0  0  0  0  0  0  0  0  0  0  0
   15.0766   -1.5345   17.5766 N   0  0  0  0  0  0  0  0  0  0  0  0
   16.3083   -0.5918   17.4069 C   0  0  0  0  0  0  0  0  0  0  0  0
   16.4911    0.2903   16.6581 O   0  0  0  0  0  0  0  0  0  0  0  0
   17.3381   -0.8819   18.4924 C   0  0  1  0  0  0  0  0  0  0  0  0
   16.8133   -0.6933   19.9403 C   0  0  0  0  0  0  0  0  0  0  0  0
   16.4102   -1.9573   20.7061 C   0  0  0  0  0  0  0  0  0  0  0  0
   17.8482    0.0697   20.7837 C   0  0  0  0  0  0  0  0  0  0  0  0
   18.1999   -2.3790   18.1323 S   0  0  0  0  0  0  0  0  0  0  0  0
   17.2350   -3.4648   18.1753 O   0  0  0  0  0  0  0  0  0  0  0  0
   19.3932   -2.4281   18.9558 O   0  0  0  0  0  0  0  0  0  0  0  0
   18.7673   -2.2329   16.4510 C   0  0  0  0  0  0  0  0  0  0  0  0
   19.6483   -1.1989   16.1165 C   0  0  0  0  0  0  0  0  0  0  0  0
   20.0947   -1.0748   14.7999 C   0  0  0  0  0  0  0  0  0  0  0  0
   19.6755   -1.9920   13.8365 C   0  0  0  0  0  0  0  0  0  0  0  0
   20.2965   -1.8284   12.0587 Br  0  0  0  0  0  0  0  0  0  0  0  0
   18.8161   -3.0379   14.1762 C   0  0  0  0  0  0  0  0  0  0  0  0
   18.3550   -3.1613   15.4895 C   0  0  0  0  0  0  0  0  0  0  0  0
  1  2  1  0
  2  3  2  0
  3  4  1  0
  4  5  2  0
  5  6  1  0
  6  7  1  0
  6  8  2  0
  8  9  1  0
  9 10  1  0
 10 11  2  0
 10 12  1  0
 12 13  1  1
 13 14  1  0
 13 15  1  0
 12 16  1  0
 16 17  2  0
 16 18  2  0
 16 19  1  0
 19 20  2  0
 20 21  1  0
 21 22  2  0
 22 23  1  0
 22 24  1  0
 24 25  2  0
  8  2  1  0
 25 19  1  0
M  END
>  <ref_mols>  (887) 
B1396a

>  <gnina_score>  (887) 
5.062

>  <smina_score_min>  (887) 
-3.769

>  <ref_pdb>  (887) 
B1396a

>  <inspiration_score>  (887) 
None

>  <inchikey>  (887) 
JSUYCGQUHNZVLV-QGZVFWFLSA-N

>  <tags>  (887) 
BulkDock Fragalysis export,openbind_d68ev3c_c2_elabs_scored,openbind_d68ev3c_c2_elabs_scored_4.5plus,openbind_d68ev3c_c2_elabs,openbind_d68ev3c_c2_elabs_scored_5plus,syndirella_product,openbind_d68ev3c_c2_elabs_scored_top80percent,syndirella_placed

>  <smiles>  (887) 
Cc1cccc(Br)c1NC(=O)[C@@H](C(C)C)S(=O)(=O)c1ccc(Br)cc1

>  <subsites>  (887) 
None

>  <rmsd(smina/fragmenstein)>  (887) 
2.26

>  <alias>  (887) 
None

>  <energy_score>  (887) 
-44.723202

>  <HIPPO Pose ID>  (887) 
94588

>  <distance_score>  (887) 
0.316798

>  <HIPPO Compound ID>  (887) 
128350

>  <gnina_score_min>  (887) 
5.032

>  <name>  (887) 
P94588

>  <exports>  (887) 
['/opt/xchem-fragalysis-2/maxwin/BulkDock/OUTPUTS/openbind_d68ev3c_c2_elabs_1LOTQJ3.sdf', '/opt/xchem-fragalysis-2/maxwin/BulkDock/OUTPUTS/openbind_d68ev3c_c2_elabs_1LSYI5W.sdf']

$$$$
P94600
     RDKit          3D

 25 26  0  0  0  0  0  0  0  0999 V2000
   13.6977   -3.6139   17.3197 C   0  0  0  0  0  0  0  0  0  0  0  0
   13.4917   -2.2155   16.7882 C   0  0  0  0  0  0  0  0  0  0  0  0
   12.5177   -1.8960   15.8212 C   0  0  0  0  0  0  0  0  0  0  0  0
   11.4718   -3.2593   14.7124 I   0  0  0  0  0  0  0  0  0  0  0  0
   12.2710   -0.5783   15.4194 C   0  0  0  0  0  0  0  0  0  0  0  0
   13.0563    0.4463   15.9030 C   0  0  0  0  0  0  0  0  0  0  0  0
   14.1060    0.1452   16.7590 C   0  0  0  0  0  0  0  0  0  0  0  0
   14.3368   -1.1656   17.1978 C   0  0  0  0  0  0  0  0  0  0  0  0
   15.4512   -1.3951   18.0075 N   0  0  0  0  0  0  0  0  0  0  0  0
   16.7307   -0.5259   18.2439 C   0  0  0  0  0  0  0  0  0  0  0  0
   17.0028    0.5452   17.8545 O   0  0  0  0  0  0  0  0  0  0  0  0
   17.6499   -1.2812   19.2034 C   0  0  2  0  0  0  0  0  0  0  0  0
   18.6515   -0.3300   19.9229 C   0  0  0  0  0  0  0  0  0  0  0  0
   17.8909    0.7394   20.7366 C   0  0  0  0  0  0  0  0  0  0  0  0
   19.5893   -1.0382   20.9122 C   0  0  0  0  0  0  0  0  0  0  0  0
   18.3542   -2.6344   18.2825 S   0  0  0  0  0  0  0  0  0  0  0  0
   19.6349   -3.0136   18.8405 O   0  0  0  0  0  0  0  0  0  0  0  0
   17.2971   -3.6335   18.2017 O   0  0  0  0  0  0  0  0  0  0  0  0
   18.6908   -2.1167   16.6125 C   0  0  0  0  0  0  0  0  0  0  0  0
   17.9683   -2.6804   15.5520 C   0  0  0  0  0  0  0  0  0  0  0  0
   18.2998   -2.3490   14.2360 C   0  0  0  0  0  0  0  0  0  0  0  0
   19.3513   -1.4667   13.9898 C   0  0  0  0  0  0  0  0  0  0  0  0
   19.8006   -1.0159   12.2101 Br  0  0  0  0  0  0  0  0  0  0  0  0
   20.0772   -0.9141   15.0457 C   0  0  0  0  0  0  0  0  0  0  0  0
   19.7534   -1.2446   16.3641 C   0  0  0  0  0  0  0  0  0  0  0  0
  1  2  1  0
  2  3  2  0
  3  4  1  0
  3  5  1  0
  5  6  2  0
  6  7  1  0
  7  8  2  0
  8  9  1  0
  9 10  1  0
 10 11  2  0
 10 12  1  0
 12 13  1  6
 13 14  1  0
 13 15  1  0
 12 16  1  0
 16 17  2  0
 16 18  2  0
 16 19  1  0
 19 20  2  0
 20 21  1  0
 21 22  2  0
 22 23  1  0
 22 24  1  0
 24 25  2  0
  8  2  1  0
 25 19  1  0
M  END
>  <ref_mols>  (888) 
B1396a

>  <gnina_score>  (888) 
5.25

>  <smina_score_min>  (888) 
-2.825

>  <ref_pdb>  (888) 
B1396a

>  <inspiration_score>  (888) 
None

>  <inchikey>  (888) 
VFCZRTTYUAUVSS-KRWDZBQOSA-N

>  <tags>  (888) 
BulkDock Fragalysis export,openbind_d68ev3c_c2_elabs_scored,openbind_d68ev3c_c2_elabs_scored_4.5plus,openbind_d68ev3c_c2_elabs,openbind_d68ev3c_c2_elabs_scored_5plus,syndirella_product,openbind_d68ev3c_c2_elabs_scored_top80percent,syndirella_placed

>  <smiles>  (888) 
Cc1c(I)cccc1NC(=O)[C@H](C(C)C)S(=O)(=O)c1ccc(Br)cc1

>  <subsites>  (888) 
None

>  <rmsd(smina/fragmenstein)>  (888) 
2.109

>  <alias>  (888) 
None

>  <energy_score>  (888) 
-50.083864

>  <HIPPO Pose ID>  (888) 
94600

>  <distance_score>  (888) 
1.051217

>  <HIPPO Compound ID>  (888) 
128357

>  <gnina_score_min>  (888) 
5.216

>  <name>  (888) 
P94600

>  <exports>  (888) 
['/opt/xchem-fragalysis-2/maxwin/BulkDock/OUTPUTS/openbind_d68ev3c_c2_elabs_1LOTQJ3.sdf', '/opt/xchem-fragalysis-2/maxwin/BulkDock/OUTPUTS/openbind_d68ev3c_c2_elabs_1LSYI5W.sdf']

$$$$
P94606
     RDKit          3D

 25 26  0  0  0  0  0  0  0  0999 V2000
   13.7579   -4.0504   17.6486 C   0  0  0  0  0  0  0  0  0  0  0  0
   13.2310   -2.8987   16.8283 C   0  0  0  0  0  0  0  0  0  0  0  0
   12.1009   -3.1326   16.0249 C   0  0  0  0  0  0  0  0  0  0  0  0
   11.5725   -2.1338   15.2185 C   0  0  0  0  0  0  0  0  0  0  0  0
   12.1481   -0.8710   15.2346 C   0  0  0  0  0  0  0  0  0  0  0  0
   13.2716   -0.6049   16.0368 C   0  0  0  0  0  0  0  0  0  0  0  0
   13.7395    1.4478   16.1719 I   0  0  0  0  0  0  0  0  0  0  0  0
   13.8561   -1.6279   16.8113 C   0  0  0  0  0  0  0  0  0  0  0  0
   15.0178   -1.4857   17.5908 N   0  0  0  0  0  0  0  0  0  0  0  0
   16.3250   -0.6696   17.3247 C   0  0  0  0  0  0  0  0  0  0  0  0
   16.5961    0.0658   16.4543 O   0  0  0  0  0  0  0  0  0  0  0  0
   17.2844   -0.9114   18.4957 C   0  0  2  0  0  0  0  0  0  0  0  0
   18.1142    0.3654   18.8107 C   0  0  0  0  0  0  0  0  0  0  0  0
   19.1012    0.1962   19.9726 C   0  0  0  0  0  0  0  0  0  0  0  0
   17.1776    1.5322   19.1812 C   0  0  0  0  0  0  0  0  0  0  0  0
   18.2167   -2.3739   18.0621 S   0  0  0  0  0  0  0  0  0  0  0  0
   19.3973   -2.4827   18.8963 O   0  0  0  0  0  0  0  0  0  0  0  0
   17.2698   -3.4787   18.0631 O   0  0  0  0  0  0  0  0  0  0  0  0
   18.7888   -2.1682   16.3910 C   0  0  0  0  0  0  0  0  0  0  0  0
   19.8985   -1.3562   16.1421 C   0  0  0  0  0  0  0  0  0  0  0  0
   20.3498   -1.1933   14.8315 C   0  0  0  0  0  0  0  0  0  0  0  0
   19.7056   -1.8573   13.7875 C   0  0  0  0  0  0  0  0  0  0  0  0
   20.3265   -1.6342   12.0160 Br  0  0  0  0  0  0  0  0  0  0  0  0
   18.6160   -2.6913   14.0394 C   0  0  0  0  0  0  0  0  0  0  0  0
   18.1556   -2.8545   15.3480 C   0  0  0  0  0  0  0  0  0  0  0  0
  1  2  1  0
  2  3  2  0
  3  4  1  0
  4  5  2  0
  5  6  1  0
  6  7  1  0
  6  8  2  0
  8  9  1  0
  9 10  1  0
 10 11  2  0
 10 12  1  0
 12 13  1  6
 13 14  1  0
 13 15  1  0
 12 16  1  0
 16 17  2  0
 16 18  2  0
 16 19  1  0
 19 20  2  0
 20 21  1  0
 21 22  2  0
 22 23  1  0
 22 24  1  0
 24 25  2  0
  8  2  1  0
 25 19  1  0
M  END
>  <ref_mols>  (889) 
B1396a

>  <gnina_score>  (889) 
5.241

>  <smina_score_min>  (889) 
-3.56

>  <ref_pdb>  (889) 
B1396a

>  <inspiration_score>  (889) 
None

>  <inchikey>  (889) 
JQHACCCTBMOQPH-KRWDZBQOSA-N

>  <tags>  (889) 
BulkDock Fragalysis export,openbind_d68ev3c_c2_elabs_scored,openbind_d68ev3c_c2_elabs_scored_4.5plus,openbind_d68ev3c_c2_elabs,openbind_d68ev3c_c2_elabs_scored_5plus,syndirella_product,openbind_d68ev3c_c2_elabs_scored_top80percent,syndirella_placed

>  <smiles>  (889) 
Cc1cccc(I)c1NC(=O)[C@H](C(C)C)S(=O)(=O)c1ccc(Br)cc1

>  <subsites>  (889) 
None

>  <rmsd(smina/fragmenstein)>  (889) 
2.145

>  <alias>  (889) 
None

>  <energy_score>  (889) 
-44.888025

>  <HIPPO Pose ID>  (889) 
94606

>  <distance_score>  (889) 
0.324158

>  <HIPPO Compound ID>  (889) 
128360

>  <gnina_score_min>  (889) 
5.17

>  <name>  (889) 
P94606

>  <exports>  (889) 
['/opt/xchem-fragalysis-2/maxwin/BulkDock/OUTPUTS/openbind_d68ev3c_c2_elabs_1LOTQJ3.sdf', '/opt/xchem-fragalysis-2/maxwin/BulkDock/OUTPUTS/openbind_d68ev3c_c2_elabs_1LSYI5W.sdf']

$$$$
P94608
     RDKit          3D

 25 26  0  0  0  0  0  0  0  0999 V2000
   13.6907   -4.2056   17.6525 C   0  0  0  0  0  0  0  0  0  0  0  0
   13.2850   -3.0284   16.8069 C   0  0  0  0  0  0  0  0  0  0  0  0
   12.1047   -3.1134   16.0467 C   0  0  0  0  0  0  0  0  0  0  0  0
   11.6915   -2.0520   15.2453 C   0  0  0  0  0  0  0  0  0  0  0  0
   12.4658   -0.9034   15.1967 C   0  0  0  0  0  0  0  0  0  0  0  0
   12.0725    0.1206   14.4282 F   0  0  0  0  0  0  0  0  0  0  0  0
   13.6446   -0.7977   15.9281 C   0  0  0  0  0  0  0  0  0  0  0  0
   14.0568   -1.8543   16.7430 C   0  0  0  0  0  0  0  0  0  0  0  0
   15.2354   -1.7605   17.4857 N   0  0  0  0  0  0  0  0  0  0  0  0
   16.3114   -0.6297   17.5411 C   0  0  0  0  0  0  0  0  0  0  0  0
   16.4089    0.3554   16.9156 O   0  0  0  0  0  0  0  0  0  0  0  0
   17.2987   -0.9684   18.6725 C   0  0  2  0  0  0  0  0  0  0  0  0
   18.0953    0.2920   19.1222 C   0  0  0  0  0  0  0  0  0  0  0  0
   19.1620    0.0284   20.1924 C   0  0  0  0  0  0  0  0  0  0  0  0
   17.1325    1.3459   19.7099 C   0  0  0  0  0  0  0  0  0  0  0  0
   18.2614   -2.3735   18.1251 S   0  0  0  0  0  0  0  0  0  0  0  0
   17.3518   -3.5105   18.1258 O   0  0  0  0  0  0  0  0  0  0  0  0
   19.4904   -2.4811   18.8847 O   0  0  0  0  0  0  0  0  0  0  0  0
   18.7357   -2.0778   16.4376 C   0  0  0  0  0  0  0  0  0  0  0  0
   18.1232   -2.7965   15.4037 C   0  0  0  0  0  0  0  0  0  0  0  0
   18.5343   -2.5891   14.0850 C   0  0  0  0  0  0  0  0  0  0  0  0
   19.5546   -1.6774   13.8131 C   0  0  0  0  0  0  0  0  0  0  0  0
   20.1110   -1.3966   12.0286 Br  0  0  0  0  0  0  0  0  0  0  0  0
   20.1759   -0.9759   14.8466 C   0  0  0  0  0  0  0  0  0  0  0  0
   19.7731   -1.1816   16.1673 C   0  0  0  0  0  0  0  0  0  0  0  0
  1  2  1  0
  2  3  2  0
  3  4  1  0
  4  5  2  0
  5  6  1  0
  5  7  1  0
  7  8  2  0
  8  9  1  0
  9 10  1  0
 10 11  2  0
 10 12  1  0
 12 13  1  6
 13 14  1  0
 13 15  1  0
 12 16  1  0
 16 17  2  0
 16 18  2  0
 16 19  1  0
 19 20  2  0
 20 21  1  0
 21 22  2  0
 22 23  1  0
 22 24  1  0
 24 25  2  0
  8  2  1  0
 25 19  1  0
M  END
>  <ref_mols>  (890) 
B1396a

>  <gnina_score>  (890) 
5.097

>  <smina_score_min>  (890) 
-3.586

>  <ref_pdb>  (890) 
B1396a

>  <inspiration_score>  (890) 
None

>  <inchikey>  (890) 
DXXACCPWOWRART-KRWDZBQOSA-N

>  <tags>  (890) 
BulkDock Fragalysis export,openbind_d68ev3c_c2_elabs_scored,openbind_d68ev3c_c2_elabs_scored_4.5plus,openbind_d68ev3c_c2_elabs,openbind_d68ev3c_c2_elabs_scored_5plus,syndirella_product,openbind_d68ev3c_c2_elabs_scored_top80percent,syndirella_placed

>  <smiles>  (890) 
Cc1ccc(F)cc1NC(=O)[C@H](C(C)C)S(=O)(=O)c1ccc(Br)cc1

>  <subsites>  (890) 
None

>  <rmsd(smina/fragmenstein)>  (890) 
2.333

>  <alias>  (890) 
None

>  <energy_score>  (890) 
-40.181208

>  <HIPPO Pose ID>  (890) 
94608

>  <distance_score>  (890) 
0.39202

>  <HIPPO Compound ID>  (890) 
128361

>  <gnina_score_min>  (890) 
5.134

>  <name>  (890) 
P94608

>  <exports>  (890) 
['/opt/xchem-fragalysis-2/maxwin/BulkDock/OUTPUTS/openbind_d68ev3c_c2_elabs_1LOTQJ3.sdf', '/opt/xchem-fragalysis-2/maxwin/BulkDock/OUTPUTS/openbind_d68ev3c_c2_elabs_1LSYI5W.sdf']

$$$$
P94613
     RDKit          3D

 25 28  0  0  0  0  0  0  0  0999 V2000
   16.7255   -0.5901   16.3708 O   0  0  0  0  0  0  0  0  0  0  0  0
   16.3349   -1.1089   17.3491 C   0  0  0  0  0  0  0  0  0  0  0  0
   15.0127   -1.7670   17.6414 N   0  0  0  0  0  0  0  0  0  0  0  0
   15.0474   -3.3085   17.2881 C   0  0  0  0  0  0  0  0  0  0  0  0
   13.7475   -4.0409   17.5403 C   0  0  0  0  0  0  0  0  0  0  0  0
   13.0314   -3.0230   16.7934 C   0  0  0  0  0  0  0  0  0  0  0  0
   11.8643   -3.1182   16.0653 C   0  0  0  0  0  0  0  0  0  0  0  0
   11.4144   -1.9856   15.4040 C   0  0  0  0  0  0  0  0  0  0  0  0
   10.2425   -2.0337   14.7653 F   0  0  0  0  0  0  0  0  0  0  0  0
   12.1391   -0.7968   15.4283 C   0  0  0  0  0  0  0  0  0  0  0  0
   13.3402   -0.7372   16.1398 C   0  0  0  0  0  0  0  0  0  0  0  0
   13.7915   -1.8668   16.8278 C   0  0  0  0  0  0  0  0  0  0  0  0
   17.2738   -1.2403   18.4811 C   0  0  0  0  0  0  0  0  0  0  0  0
   18.6284   -2.4309   18.2135 S   0  0  0  0  0  0  0  0  0  0  0  0
   18.0549   -3.7496   18.4121 O   0  0  0  0  0  0  0  0  0  0  0  0
   19.7764   -2.0133   18.9953 O   0  0  0  0  0  0  0  0  0  0  0  0
   19.0873   -2.3036   16.5009 C   0  0  0  0  0  0  0  0  0  0  0  0
   19.8209   -1.1917   16.0755 C   0  0  0  0  0  0  0  0  0  0  0  0
   20.1606   -1.0706   14.7272 C   0  0  0  0  0  0  0  0  0  0  0  0
   19.7809   -2.0627   13.8219 C   0  0  0  0  0  0  0  0  0  0  0  0
   20.2129   -1.9108   12.1635 Cl  0  0  0  0  0  0  0  0  0  0  0  0
   19.0699   -3.1843   14.2521 C   0  0  0  0  0  0  0  0  0  0  0  0
   18.7225   -3.3112   15.5991 C   0  0  0  0  0  0  0  0  0  0  0  0
   17.6460   -0.0264   19.3062 C   0  0  0  0  0  0  0  0  0  0  0  0
   16.8511   -1.1392   19.9305 C   0  0  0  0  0  0  0  0  0  0  0  0
  1  2  2  0
  2  3  1  0
  3  4  1  0
  4  5  1  0
  5  6  1  0
  6  7  2  0
  7  8  1  0
  8  9  1  0
  8 10  2  0
 10 11  1  0
 11 12  2  0
  2 13  1  0
 13 14  1  0
 14 15  2  0
 14 16  2  0
 14 17  1  0
 17 18  2  0
 18 19  1  0
 19 20  2  0
 20 21  1  0
 20 22  1  0
 22 23  2  0
 13 24  1  0
 24 25  1  0
 12  3  1  0
 25 13  1  0
 12  6  1  0
 23 17  1  0
M  END
>  <ref_mols>  (891) 
B1396a

>  <gnina_score>  (891) 
5.076

>  <smina_score_min>  (891) 
-3.441

>  <ref_pdb>  (891) 
B1396a

>  <inspiration_score>  (891) 
None

>  <inchikey>  (891) 
UUWTUSGEJOSNHU-UHFFFAOYSA-N

>  <tags>  (891) 
BulkDock Fragalysis export,openbind_d68ev3c_c2_elabs_scored,openbind_d68ev3c_c2_elabs_scored_4.5plus,openbind_d68ev3c_c2_elabs,openbind_d68ev3c_c2_elabs_scored_5plus,syndirella_product,openbind_d68ev3c_c2_elabs_scored_top80percent,syndirella_placed

>  <smiles>  (891) 
O=C(N1CCc2cc(F)ccc21)C1(S(=O)(=O)c2ccc(Cl)cc2)CC1

>  <subsites>  (891) 
None

>  <rmsd(smina/fragmenstein)>  (891) 
0.365

>  <alias>  (891) 
None

>  <energy_score>  (891) 
-5.303643

>  <HIPPO Pose ID>  (891) 
94613

>  <distance_score>  (891) 
0.338517

>  <HIPPO Compound ID>  (891) 
128367

>  <gnina_score_min>  (891) 
5.01

>  <name>  (891) 
P94613

>  <exports>  (891) 
['/opt/xchem-fragalysis-2/maxwin/BulkDock/OUTPUTS/openbind_d68ev3c_c2_elabs_1LOTQJ3.sdf', '/opt/xchem-fragalysis-2/maxwin/BulkDock/OUTPUTS/openbind_d68ev3c_c2_elabs_1LSYI5W.sdf']

$$$$
P94614
     RDKit          3D

 25 27  0  0  0  0  0  0  0  0999 V2000
   13.8880   -4.1772   17.6962 C   0  0  0  0  0  0  0  0  0  0  0  0
   13.3406   -2.9995   16.9300 C   0  0  0  0  0  0  0  0  0  0  0  0
   12.1827   -3.1994   16.1653 C   0  0  0  0  0  0  0  0  0  0  0  0
   11.6356   -2.1608   15.4325 C   0  0  0  0  0  0  0  0  0  0  0  0
   10.5104   -2.3730   14.7434 F   0  0  0  0  0  0  0  0  0  0  0  0
   12.2004   -0.8998   15.4580 C   0  0  0  0  0  0  0  0  0  0  0  0
   13.3485   -0.6702   16.2247 C   0  0  0  0  0  0  0  0  0  0  0  0
   13.7983    0.9907   16.3778 Cl  0  0  0  0  0  0  0  0  0  0  0  0
   13.9563   -1.7234   16.9429 C   0  0  0  0  0  0  0  0  0  0  0  0
   15.1328   -1.6020   17.7024 N   0  0  0  0  0  0  0  0  0  0  0  0
   16.3500   -0.6671   17.5247 C   0  0  0  0  0  0  0  0  0  0  0  0
   16.5326    0.1999   16.7673 O   0  0  0  0  0  0  0  0  0  0  0  0
   17.3948   -0.9755   18.5194 C   0  0  0  0  0  0  0  0  0  0  0  0
   18.3984   -2.4304   18.1306 S   0  0  0  0  0  0  0  0  0  0  0  0
   17.4763   -3.5478   18.2397 O   0  0  0  0  0  0  0  0  0  0  0  0
   19.6140   -2.3880   18.9182 O   0  0  0  0  0  0  0  0  0  0  0  0
   18.8668   -2.2650   16.4289 C   0  0  0  0  0  0  0  0  0  0  0  0
   18.5462   -3.2737   15.5137 C   0  0  0  0  0  0  0  0  0  0  0  0
   18.9249   -3.1303   14.1764 C   0  0  0  0  0  0  0  0  0  0  0  0
   19.6105   -1.9855   13.7665 C   0  0  0  0  0  0  0  0  0  0  0  0
   20.0807   -1.8144   12.1213 Cl  0  0  0  0  0  0  0  0  0  0  0  0
   19.9304   -0.9835   14.6830 C   0  0  0  0  0  0  0  0  0  0  0  0
   19.5635   -1.1227   16.0227 C   0  0  0  0  0  0  0  0  0  0  0  0
   17.1335   -0.8085   20.0026 C   0  0  0  0  0  0  0  0  0  0  0  0
   18.0936    0.1120   19.3024 C   0  0  0  0  0  0  0  0  0  0  0  0
  1  2  1  0
  2  3  2  0
  3  4  1  0
  4  5  1  0
  4  6  2  0
  6  7  1  0
  7  8  1  0
  7  9  2  0
  9 10  1  0
 10 11  1  0
 11 12  2  0
 11 13  1  0
 13 14  1  0
 14 15  2  0
 14 16  2  0
 14 17  1  0
 17 18  2  0
 18 19  1  0
 19 20  2  0
 20 21  1  0
 20 22  1  0
 22 23  2  0
 13 24  1  0
 24 25  1  0
  9  2  1  0
 25 13  1  0
 23 17  1  0
M  END
>  <ref_mols>  (892) 
B1396a

>  <gnina_score>  (892) 
5.273

>  <smina_score_min>  (892) 
-3.767

>  <ref_pdb>  (892) 
B1396a

>  <inspiration_score>  (892) 
None

>  <inchikey>  (892) 
BFHMCOMVJSHYJH-UHFFFAOYSA-N

>  <tags>  (892) 
BulkDock Fragalysis export,openbind_d68ev3c_c2_elabs_scored,openbind_d68ev3c_c2_elabs_scored_4.5plus,openbind_d68ev3c_c2_elabs,openbind_d68ev3c_c2_elabs_scored_5plus,syndirella_product,openbind_d68ev3c_c2_elabs_scored_top80percent,syndirella_placed

>  <smiles>  (892) 
Cc1cc(F)cc(Cl)c1NC(=O)C1(S(=O)(=O)c2ccc(Cl)cc2)CC1

>  <subsites>  (892) 
None

>  <rmsd(smina/fragmenstein)>  (892) 
1.512

>  <alias>  (892) 
None

>  <energy_score>  (892) 
-30.940511

>  <HIPPO Pose ID>  (892) 
94614

>  <distance_score>  (892) 
0.310701

>  <HIPPO Compound ID>  (892) 
128368

>  <gnina_score_min>  (892) 
5.076

>  <name>  (892) 
P94614

>  <exports>  (892) 
['/opt/xchem-fragalysis-2/maxwin/BulkDock/OUTPUTS/openbind_d68ev3c_c2_elabs_1LOTQJ3.sdf', '/opt/xchem-fragalysis-2/maxwin/BulkDock/OUTPUTS/openbind_d68ev3c_c2_elabs_1LSYI5W.sdf']

$$$$
P94625
     RDKit          3D

 25 27  0  0  0  0  0  0  0  0999 V2000
   14.1990   -5.1069   17.9296 N   0  0  0  0  0  0  0  0  0  0  0  0
   13.8249   -4.1160   17.4607 C   0  0  0  0  0  0  0  0  0  0  0  0
   13.4218   -2.8767   16.8670 C   0  0  0  0  0  0  0  0  0  0  0  0
   12.1755   -2.8087   16.2303 C   0  0  0  0  0  0  0  0  0  0  0  0
   11.7389   -1.5971   15.7010 C   0  0  0  0  0  0  0  0  0  0  0  0
   10.1345   -1.4228   15.1299 Cl  0  0  0  0  0  0  0  0  0  0  0  0
   12.5622   -0.4794   15.7178 C   0  0  0  0  0  0  0  0  0  0  0  0
   13.8186   -0.5547   16.3158 C   0  0  0  0  0  0  0  0  0  0  0  0
   14.2484   -1.7397   16.9210 C   0  0  0  0  0  0  0  0  0  0  0  0
   15.4804   -1.7719   17.5842 N   0  0  0  0  0  0  0  0  0  0  0  0
   16.5262   -0.6575   17.8136 C   0  0  0  0  0  0  0  0  0  0  0  0
   16.5601    0.4401   17.4202 O   0  0  0  0  0  0  0  0  0  0  0  0
   17.5948   -1.1135   18.7277 C   0  0  0  0  0  0  0  0  0  0  0  0
   18.5612   -2.5332   18.1574 S   0  0  0  0  0  0  0  0  0  0  0  0
   19.8237   -2.5541   18.8658 O   0  0  0  0  0  0  0  0  0  0  0  0
   17.6308   -3.6450   18.2302 O   0  0  0  0  0  0  0  0  0  0  0  0
   18.9205   -2.2432   16.4465 C   0  0  0  0  0  0  0  0  0  0  0  0
   18.5758   -3.2069   15.4911 C   0  0  0  0  0  0  0  0  0  0  0  0
   18.8757   -2.9774   14.1463 C   0  0  0  0  0  0  0  0  0  0  0  0
   19.5081   -1.7920   13.7694 C   0  0  0  0  0  0  0  0  0  0  0  0
   19.8791   -1.5098   12.1143 Cl  0  0  0  0  0  0  0  0  0  0  0  0
   19.8514   -0.8350   14.7257 C   0  0  0  0  0  0  0  0  0  0  0  0
   19.5615   -1.0591   16.0729 C   0  0  0  0  0  0  0  0  0  0  0  0
   18.3183   -0.1619   19.6556 C   0  0  0  0  0  0  0  0  0  0  0  0
   17.3390   -1.1487   20.2236 C   0  0  0  0  0  0  0  0  0  0  0  0
  1  2  3  0
  2  3  1  0
  3  4  2  0
  4  5  1  0
  5  6  1  0
  5  7  2  0
  7  8  1  0
  8  9  2  0
  9 10  1  0
 10 11  1  0
 11 12  2  0
 11 13  1  0
 13 14  1  0
 14 15  2  0
 14 16  2  0
 14 17  1  0
 17 18  2  0
 18 19  1  0
 19 20  2  0
 20 21  1  0
 20 22  1  0
 22 23  2  0
 13 24  1  0
 24 25  1  0
  9  3  1  0
 25 13  1  0
 23 17  1  0
M  END
>  <ref_mols>  (893) 
B1396a

>  <gnina_score>  (893) 
5.49

>  <smina_score_min>  (893) 
-2.999

>  <ref_pdb>  (893) 
B1396a

>  <inspiration_score>  (893) 
None

>  <inchikey>  (893) 
KTUGOUSKVPRXLE-UHFFFAOYSA-N

>  <tags>  (893) 
BulkDock Fragalysis export,openbind_d68ev3c_c2_elabs_scored,openbind_d68ev3c_c2_elabs_scored_4.5plus,openbind_d68ev3c_c2_elabs,openbind_d68ev3c_c2_elabs_scored_5plus,syndirella_product,openbind_d68ev3c_c2_elabs_scored_top80percent,syndirella_placed

>  <smiles>  (893) 
N#Cc1cc(Cl)ccc1NC(=O)C1(S(=O)(=O)c2ccc(Cl)cc2)CC1

>  <subsites>  (893) 
None

>  <rmsd(smina/fragmenstein)>  (893) 
1.455

>  <alias>  (893) 
None

>  <energy_score>  (893) 
-40.122628

>  <HIPPO Pose ID>  (893) 
94625

>  <distance_score>  (893) 
0.556855

>  <HIPPO Compound ID>  (893) 
128381

>  <gnina_score_min>  (893) 
5.312

>  <name>  (893) 
P94625

>  <exports>  (893) 
['/opt/xchem-fragalysis-2/maxwin/BulkDock/OUTPUTS/openbind_d68ev3c_c2_elabs_1LOTQJ3.sdf', '/opt/xchem-fragalysis-2/maxwin/BulkDock/OUTPUTS/openbind_d68ev3c_c2_elabs_1LSYI5W.sdf']

$$$$
P94631
     RDKit          3D

 25 27  0  0  0  0  0  0  0  0999 V2000
   13.8957   -4.1670   17.6990 C   0  0  0  0  0  0  0  0  0  0  0  0
   13.3442   -2.9974   16.9216 C   0  0  0  0  0  0  0  0  0  0  0  0
   12.1825   -3.2116   16.1687 C   0  0  0  0  0  0  0  0  0  0  0  0
   11.6292   -2.1848   15.4279 C   0  0  0  0  0  0  0  0  0  0  0  0
   10.4998   -2.4069   14.7486 F   0  0  0  0  0  0  0  0  0  0  0  0
   12.1948   -0.9229   15.4327 C   0  0  0  0  0  0  0  0  0  0  0  0
   13.3549   -0.6679   16.1831 C   0  0  0  0  0  0  0  0  0  0  0  0
   13.7871    1.0669   16.2680 S   0  0  0  0  0  0  0  0  0  0  0  0
   13.9603   -1.7185   16.9155 C   0  0  0  0  0  0  0  0  0  0  0  0
   15.1350   -1.5986   17.6806 N   0  0  0  0  0  0  0  0  0  0  0  0
   16.3552   -0.6692   17.5058 C   0  0  0  0  0  0  0  0  0  0  0  0
   16.5444    0.1953   16.7463 O   0  0  0  0  0  0  0  0  0  0  0  0
   17.3938   -0.9770   18.5076 C   0  0  0  0  0  0  0  0  0  0  0  0
   18.4020   -2.4315   18.1260 S   0  0  0  0  0  0  0  0  0  0  0  0
   17.4817   -3.5503   18.2326 O   0  0  0  0  0  0  0  0  0  0  0  0
   19.6149   -2.3841   18.9173 O   0  0  0  0  0  0  0  0  0  0  0  0
   18.8743   -2.2642   16.4255 C   0  0  0  0  0  0  0  0  0  0  0  0
   19.5891   -1.1302   16.0272 C   0  0  0  0  0  0  0  0  0  0  0  0
   19.9580   -0.9875   14.6886 C   0  0  0  0  0  0  0  0  0  0  0  0
   19.6223   -1.9781   13.7653 C   0  0  0  0  0  0  0  0  0  0  0  0
   20.0941   -1.8023   12.1210 Cl  0  0  0  0  0  0  0  0  0  0  0  0
   18.9195   -3.1152   14.1675 C   0  0  0  0  0  0  0  0  0  0  0  0
   18.5387   -3.2620   15.5038 C   0  0  0  0  0  0  0  0  0  0  0  0
   18.0867    0.1114   19.2947 C   0  0  0  0  0  0  0  0  0  0  0  0
   17.1232   -0.8099   19.9890 C   0  0  0  0  0  0  0  0  0  0  0  0
  1  2  1  0
  2  3  2  0
  3  4  1  0
  4  5  1  0
  4  6  2  0
  6  7  1  0
  7  8  1  0
  7  9  2  0
  9 10  1  0
 10 11  1  0
 11 12  2  0
 11 13  1  0
 13 14  1  0
 14 15  2  0
 14 16  2  0
 14 17  1  0
 17 18  2  0
 18 19  1  0
 19 20  2  0
 20 21  1  0
 20 22  1  0
 22 23  2  0
 13 24  1  0
 24 25  1  0
  9  2  1  0
 25 13  1  0
 23 17  1  0
M  END
>  <ref_mols>  (894) 
B1396a

>  <gnina_score>  (894) 
5.252

>  <smina_score_min>  (894) 
-3.735

>  <ref_pdb>  (894) 
B1396a

>  <inspiration_score>  (894) 
None

>  <inchikey>  (894) 
RDNIYPPWVQWPLQ-UHFFFAOYSA-N

>  <tags>  (894) 
BulkDock Fragalysis export,openbind_d68ev3c_c2_elabs_scored,openbind_d68ev3c_c2_elabs_scored_4.5plus,openbind_d68ev3c_c2_elabs,openbind_d68ev3c_c2_elabs_scored_5plus,syndirella_product,openbind_d68ev3c_c2_elabs_scored_top80percent,syndirella_placed

>  <smiles>  (894) 
Cc1cc(F)cc(S)c1NC(=O)C1(S(=O)(=O)c2ccc(Cl)cc2)CC1

>  <subsites>  (894) 
None

>  <rmsd(smina/fragmenstein)>  (894) 
1.748

>  <alias>  (894) 
None

>  <energy_score>  (894) 
-38.530428

>  <HIPPO Pose ID>  (894) 
94631

>  <distance_score>  (894) 
0.307765

>  <HIPPO Compound ID>  (894) 
128389

>  <gnina_score_min>  (894) 
5.169

>  <name>  (894) 
P94631

>  <exports>  (894) 
['/opt/xchem-fragalysis-2/maxwin/BulkDock/OUTPUTS/openbind_d68ev3c_c2_elabs_1LOTQJ3.sdf', '/opt/xchem-fragalysis-2/maxwin/BulkDock/OUTPUTS/openbind_d68ev3c_c2_elabs_1LSYI5W.sdf']

$$$$
P94646
     RDKit          3D

 25 27  0  0  0  0  0  0  0  0999 V2000
   14.7740    0.5656   15.6316 C   0  0  0  0  0  0  0  0  0  0  0  0
   13.9055   -0.6081   15.9852 C   0  0  0  0  0  0  0  0  0  0  0  0
   12.5931   -0.5559   15.4788 C   0  0  0  0  0  0  0  0  0  0  0  0
   11.7256   -1.6241   15.6277 C   0  0  0  0  0  0  0  0  0  0  0  0
   10.0926   -1.4358   15.1479 Cl  0  0  0  0  0  0  0  0  0  0  0  0
   12.1627   -2.7949   16.2251 C   0  0  0  0  0  0  0  0  0  0  0  0
   13.4381   -2.8528   16.8109 C   0  0  0  0  0  0  0  0  0  0  0  0
   13.8005   -4.1173   17.5548 C   0  0  0  0  0  0  0  0  0  0  0  0
   14.3027   -1.7250   16.7476 C   0  0  0  0  0  0  0  0  0  0  0  0
   15.4961   -1.8252   17.4881 N   0  0  0  0  0  0  0  0  0  0  0  0
   16.5072   -0.7353   17.9174 C   0  0  0  0  0  0  0  0  0  0  0  0
   16.5488    0.4018   17.6591 O   0  0  0  0  0  0  0  0  0  0  0  0
   17.5289   -1.2884   18.8292 C   0  0  0  0  0  0  0  0  0  0  0  0
   18.5043   -2.6644   18.1765 S   0  0  0  0  0  0  0  0  0  0  0  0
   17.5839   -3.7894   18.1871 O   0  0  0  0  0  0  0  0  0  0  0  0
   19.7673   -2.7162   18.8828 O   0  0  0  0  0  0  0  0  0  0  0  0
   18.8667   -2.2839   16.4833 C   0  0  0  0  0  0  0  0  0  0  0  0
   19.5139   -1.0853   16.1726 C   0  0  0  0  0  0  0  0  0  0  0  0
   19.8113   -0.7953   14.8392 C   0  0  0  0  0  0  0  0  0  0  0  0
   19.4685   -1.7010   13.8339 C   0  0  0  0  0  0  0  0  0  0  0  0
   19.8475   -1.3363   12.1969 Cl  0  0  0  0  0  0  0  0  0  0  0  0
   18.8292   -2.9008   14.1476 C   0  0  0  0  0  0  0  0  0  0  0  0
   18.5235   -3.1966   15.4781 C   0  0  0  0  0  0  0  0  0  0  0  0
   18.2196   -0.4356   19.8720 C   0  0  0  0  0  0  0  0  0  0  0  0
   17.2057   -1.4554   20.3034 C   0  0  0  0  0  0  0  0  0  0  0  0
  1  2  1  0
  2  3  2  0
  3  4  1  0
  4  5  1  0
  4  6  2  0
  6  7  1  0
  7  8  1  0
  7  9  2  0
  9 10  1  0
 10 11  1  0
 11 12  2  0
 11 13  1  0
 13 14  1  0
 14 15  2  0
 14 16  2  0
 14 17  1  0
 17 18  2  0
 18 19  1  0
 19 20  2  0
 20 21  1  0
 20 22  1  0
 22 23  2  0
 13 24  1  0
 24 25  1  0
  9  2  1  0
 25 13  1  0
 23 17  1  0
M  END
>  <ref_mols>  (895) 
B1396a

>  <gnina_score>  (895) 
5.362

>  <smina_score_min>  (895) 
-3.145

>  <ref_pdb>  (895) 
B1396a

>  <inspiration_score>  (895) 
None

>  <inchikey>  (895) 
AASSBHRPZQMOAJ-UHFFFAOYSA-N

>  <tags>  (895) 
BulkDock Fragalysis export,openbind_d68ev3c_c2_elabs_scored,openbind_d68ev3c_c2_elabs_scored_4.5plus,openbind_d68ev3c_c2_elabs,openbind_d68ev3c_c2_elabs_scored_5plus,syndirella_product,openbind_d68ev3c_c2_elabs_scored_top80percent,syndirella_placed

>  <smiles>  (895) 
Cc1cc(Cl)cc(C)c1NC(=O)C1(S(=O)(=O)c2ccc(Cl)cc2)CC1

>  <subsites>  (895) 
None

>  <rmsd(smina/fragmenstein)>  (895) 
1.304

>  <alias>  (895) 
None

>  <energy_score>  (895) 
-30.96964

>  <HIPPO Pose ID>  (895) 
94646

>  <distance_score>  (895) 
0.594801

>  <HIPPO Compound ID>  (895) 
128409

>  <gnina_score_min>  (895) 
5.09

>  <name>  (895) 
P94646

>  <exports>  (895) 
['/opt/xchem-fragalysis-2/maxwin/BulkDock/OUTPUTS/openbind_d68ev3c_c2_elabs_1LOTQJ3.sdf', '/opt/xchem-fragalysis-2/maxwin/BulkDock/OUTPUTS/openbind_d68ev3c_c2_elabs_1LSYI5W.sdf']

$$$$
P94650
     RDKit          3D

 25 27  0  0  0  0  0  0  0  0999 V2000
   14.1100   -5.0241   18.1838 N   0  0  0  0  0  0  0  0  0  0  0  0
   13.6940   -4.1278   17.5794 C   0  0  0  0  0  0  0  0  0  0  0  0
   13.2531   -2.9945   16.8219 C   0  0  0  0  0  0  0  0  0  0  0  0
   12.0934   -3.1117   16.0418 C   0  0  0  0  0  0  0  0  0  0  0  0
   11.6417   -2.0369   15.2775 C   0  0  0  0  0  0  0  0  0  0  0  0
   12.3580   -0.8440   15.2908 C   0  0  0  0  0  0  0  0  0  0  0  0
   11.7410    0.6185   14.2636 Br  0  0  0  0  0  0  0  0  0  0  0  0
   13.5246   -0.7184   16.0508 C   0  0  0  0  0  0  0  0  0  0  0  0
   13.9836   -1.7932   16.8209 C   0  0  0  0  0  0  0  0  0  0  0  0
   15.1554   -1.6721   17.5828 N   0  0  0  0  0  0  0  0  0  0  0  0
   16.2486   -0.5810   17.5752 C   0  0  0  0  0  0  0  0  0  0  0  0
   16.3075    0.4257   16.9898 O   0  0  0  0  0  0  0  0  0  0  0  0
   17.3333   -0.9156   18.5258 C   0  0  0  0  0  0  0  0  0  0  0  0
   18.3431   -2.3569   18.0908 S   0  0  0  0  0  0  0  0  0  0  0  0
   19.5670   -2.3292   18.8655 O   0  0  0  0  0  0  0  0  0  0  0  0
   17.4206   -3.4745   18.1755 O   0  0  0  0  0  0  0  0  0  0  0  0
   18.7944   -2.1580   16.3895 C   0  0  0  0  0  0  0  0  0  0  0  0
   19.4585   -0.9955   15.9896 C   0  0  0  0  0  0  0  0  0  0  0  0
   19.8260   -0.8442   14.6513 C   0  0  0  0  0  0  0  0  0  0  0  0
   19.5365   -1.8519   13.7302 C   0  0  0  0  0  0  0  0  0  0  0  0
   20.0052   -1.6613   12.0868 Cl  0  0  0  0  0  0  0  0  0  0  0  0
   18.8813   -3.0161   14.1341 C   0  0  0  0  0  0  0  0  0  0  0  0
   18.5048   -3.1733   15.4700 C   0  0  0  0  0  0  0  0  0  0  0  0
   18.0337    0.1448   19.3462 C   0  0  0  0  0  0  0  0  0  0  0  0
   17.0865   -0.8073   20.0194 C   0  0  0  0  0  0  0  0  0  0  0  0
  1  2  3  0
  2  3  1  0
  3  4  2  0
  4  5  1  0
  5  6  2  0
  6  7  1  0
  6  8  1  0
  8  9  2  0
  9 10  1  0
 10 11  1  0
 11 12  2  0
 11 13  1  0
 13 14  1  0
 14 15  2  0
 14 16  2  0
 14 17  1  0
 17 18  2  0
 18 19  1  0
 19 20  2  0
 20 21  1  0
 20 22  1  0
 22 23  2  0
 13 24  1  0
 24 25  1  0
  9  3  1  0
 25 13  1  0
 23 17  1  0
M  END
>  <ref_mols>  (896) 
B1396a

>  <gnina_score>  (896) 
5.258

>  <smina_score_min>  (896) 
-3.647

>  <ref_pdb>  (896) 
B1396a

>  <inspiration_score>  (896) 
None

>  <inchikey>  (896) 
DLXILMSFSUIVIP-UHFFFAOYSA-N

>  <tags>  (896) 
BulkDock Fragalysis export,openbind_d68ev3c_c2_elabs_scored,openbind_d68ev3c_c2_elabs_scored_4.5plus,openbind_d68ev3c_c2_elabs,openbind_d68ev3c_c2_elabs_scored_5plus,syndirella_product,openbind_d68ev3c_c2_elabs_scored_top80percent,syndirella_placed

>  <smiles>  (896) 
N#Cc1ccc(Br)cc1NC(=O)C1(S(=O)(=O)c2ccc(Cl)cc2)CC1

>  <subsites>  (896) 
None

>  <rmsd(smina/fragmenstein)>  (896) 
1.41

>  <alias>  (896) 
None

>  <energy_score>  (896) 
-36.666708

>  <HIPPO Pose ID>  (896) 
94650

>  <distance_score>  (896) 
0.365221

>  <HIPPO Compound ID>  (896) 
128413

>  <gnina_score_min>  (896) 
5.114

>  <name>  (896) 
P94650

>  <exports>  (896) 
['/opt/xchem-fragalysis-2/maxwin/BulkDock/OUTPUTS/openbind_d68ev3c_c2_elabs_1LOTQJ3.sdf', '/opt/xchem-fragalysis-2/maxwin/BulkDock/OUTPUTS/openbind_d68ev3c_c2_elabs_1LSYI5W.sdf']

$$$$
P94653
     RDKit          3D

 25 27  0  0  0  0  0  0  0  0999 V2000
   13.7709   -3.9903   17.4300 C   0  0  0  0  0  0  0  0  0  0  0  0
   13.3502   -2.6629   16.8441 C   0  0  0  0  0  0  0  0  0  0  0  0
   12.1081   -2.5942   16.1858 C   0  0  0  0  0  0  0  0  0  0  0  0
   11.6293   -1.3708   15.7292 C   0  0  0  0  0  0  0  0  0  0  0  0
    9.8424   -1.1600   15.1727 Br  0  0  0  0  0  0  0  0  0  0  0  0
   12.3973   -0.2249   15.8435 C   0  0  0  0  0  0  0  0  0  0  0  0
   13.6352   -0.2716   16.4858 C   0  0  0  0  0  0  0  0  0  0  0  0
   14.2978    1.2865   16.8396 Cl  0  0  0  0  0  0  0  0  0  0  0  0
   14.1382   -1.4899   16.9850 C   0  0  0  0  0  0  0  0  0  0  0  0
   15.3552   -1.6210   17.6734 N   0  0  0  0  0  0  0  0  0  0  0  0
   16.6267   -0.7436   17.6402 C   0  0  0  0  0  0  0  0  0  0  0  0
   16.8906    0.1800   16.9796 O   0  0  0  0  0  0  0  0  0  0  0  0
   17.6100   -1.2074   18.6310 C   0  0  0  0  0  0  0  0  0  0  0  0
   18.5405   -2.6668   18.1241 S   0  0  0  0  0  0  0  0  0  0  0  0
   17.5719   -3.7489   18.1753 O   0  0  0  0  0  0  0  0  0  0  0  0
   19.7691   -2.7230   18.8893 O   0  0  0  0  0  0  0  0  0  0  0  0
   18.9836   -2.4053   16.4273 C   0  0  0  0  0  0  0  0  0  0  0  0
   19.7224   -1.2689   16.0835 C   0  0  0  0  0  0  0  0  0  0  0  0
   20.0569   -1.0475   14.7465 C   0  0  0  0  0  0  0  0  0  0  0  0
   19.6642   -1.9637   13.7704 C   0  0  0  0  0  0  0  0  0  0  0  0
   20.0925   -1.6908   12.1272 Cl  0  0  0  0  0  0  0  0  0  0  0  0
   18.9386   -3.1046   14.1176 C   0  0  0  0  0  0  0  0  0  0  0  0
   18.5916   -3.3292   15.4522 C   0  0  0  0  0  0  0  0  0  0  0  0
   18.3358   -0.2438   19.5414 C   0  0  0  0  0  0  0  0  0  0  0  0
   17.3040   -1.1743   20.1143 C   0  0  0  0  0  0  0  0  0  0  0  0
  1  2  1  0
  2  3  2  0
  3  4  1  0
  4  5  1  0
  4  6  2  0
  6  7  1  0
  7  8  1  0
  7  9  2  0
  9 10  1  0
 10 11  1  0
 11 12  2  0
 11 13  1  0
 13 14  1  0
 14 15  2  0
 14 16  2  0
 14 17  1  0
 17 18  2  0
 18 19  1  0
 19 20  2  0
 20 21  1  0
 20 22  1  0
 22 23  2  0
 13 24  1  0
 24 25  1  0
  9  2  1  0
 25 13  1  0
 23 17  1  0
M  END
>  <ref_mols>  (897) 
B1396a

>  <gnina_score>  (897) 
5.553

>  <smina_score_min>  (897) 
-3.227

>  <ref_pdb>  (897) 
B1396a

>  <inspiration_score>  (897) 
None

>  <inchikey>  (897) 
DKGMIOZANNPFCE-UHFFFAOYSA-N

>  <tags>  (897) 
BulkDock Fragalysis export,openbind_d68ev3c_c2_elabs_scored,openbind_d68ev3c_c2_elabs_scored_4.5plus,openbind_d68ev3c_c2_elabs,openbind_d68ev3c_c2_elabs_scored_5plus,syndirella_product,openbind_d68ev3c_c2_elabs_scored_top80percent,syndirella_placed

>  <smiles>  (897) 
Cc1cc(Br)cc(Cl)c1NC(=O)C1(S(=O)(=O)c2ccc(Cl)cc2)CC1

>  <subsites>  (897) 
None

>  <rmsd(smina/fragmenstein)>  (897) 
2.824

>  <alias>  (897) 
None

>  <energy_score>  (897) 
-24.405041

>  <HIPPO Pose ID>  (897) 
94653

>  <distance_score>  (897) 
0.565424

>  <HIPPO Compound ID>  (897) 
128416

>  <gnina_score_min>  (897) 
5.033

>  <name>  (897) 
P94653

>  <exports>  (897) 
['/opt/xchem-fragalysis-2/maxwin/BulkDock/OUTPUTS/openbind_d68ev3c_c2_elabs_1LOTQJ3.sdf', '/opt/xchem-fragalysis-2/maxwin/BulkDock/OUTPUTS/openbind_d68ev3c_c2_elabs_1LSYI5W.sdf']

$$$$
P94654
     RDKit          3D

 25 27  0  0  0  0  0  0  0  0999 V2000
   14.8202   -5.0275   17.5789 C   0  0  0  0  0  0  0  0  0  0  0  0
   13.7875   -4.0297   18.0686 C   0  0  0  0  0  0  0  0  0  0  0  0
   13.5356   -2.8596   17.1405 C   0  0  0  0  0  0  0  0  0  0  0  0
   12.3271   -2.8127   16.4232 C   0  0  0  0  0  0  0  0  0  0  0  0
   11.9690   -1.6557   15.7311 C   0  0  0  0  0  0  0  0  0  0  0  0
   10.2179   -1.4119   15.0964 Br  0  0  0  0  0  0  0  0  0  0  0  0
   12.8490   -0.5909   15.6201 C   0  0  0  0  0  0  0  0  0  0  0  0
   14.0758   -0.6515   16.2691 C   0  0  0  0  0  0  0  0  0  0  0  0
   14.4097   -1.7558   17.0591 C   0  0  0  0  0  0  0  0  0  0  0  0
   15.5841   -1.7319   17.8078 N   0  0  0  0  0  0  0  0  0  0  0  0
   16.6856   -0.6548   17.9115 C   0  0  0  0  0  0  0  0  0  0  0  0
   16.7449    0.4132   17.4465 O   0  0  0  0  0  0  0  0  0  0  0  0
   17.7651   -1.1003   18.8118 C   0  0  0  0  0  0  0  0  0  0  0  0
   18.7002   -2.5337   18.2313 S   0  0  0  0  0  0  0  0  0  0  0  0
   19.9886   -2.5450   18.8921 O   0  0  0  0  0  0  0  0  0  0  0  0
   17.7795   -3.6488   18.3665 O   0  0  0  0  0  0  0  0  0  0  0  0
   18.9976   -2.2700   16.5035 C   0  0  0  0  0  0  0  0  0  0  0  0
   18.6077   -3.2374   15.5703 C   0  0  0  0  0  0  0  0  0  0  0  0
   18.8678   -3.0247   14.2140 C   0  0  0  0  0  0  0  0  0  0  0  0
   19.5017   -1.8512   13.8032 C   0  0  0  0  0  0  0  0  0  0  0  0
   19.8232   -1.5926   12.1340 Cl  0  0  0  0  0  0  0  0  0  0  0  0
   19.8873   -0.8889   14.7370 C   0  0  0  0  0  0  0  0  0  0  0  0
   19.6406   -1.0976   16.0951 C   0  0  0  0  0  0  0  0  0  0  0  0
   18.5202   -0.1374   19.7005 C   0  0  0  0  0  0  0  0  0  0  0  0
   17.5506   -1.1072   20.3134 C   0  0  0  0  0  0  0  0  0  0  0  0
  1  2  1  0
  2  3  1  0
  3  4  2  0
  4  5  1  0
  5  6  1  0
  5  7  2  0
  7  8  1  0
  8  9  2  0
  9 10  1  0
 10 11  1  0
 11 12  2  0
 11 13  1  0
 13 14  1  0
 14 15  2  0
 14 16  2  0
 14 17  1  0
 17 18  2  0
 18 19  1  0
 19 20  2  0
 20 21  1  0
 20 22  1  0
 22 23  2  0
 13 24  1  0
 24 25  1  0
  9  3  1  0
 25 13  1  0
 23 17  1  0
M  END
>  <ref_mols>  (898) 
B1396a

>  <gnina_score>  (898) 
5.351

>  <smina_score_min>  (898) 
-2.943

>  <ref_pdb>  (898) 
B1396a

>  <inspiration_score>  (898) 
None

>  <inchikey>  (898) 
OSCZEVLYISBQOP-UHFFFAOYSA-N

>  <tags>  (898) 
BulkDock Fragalysis export,openbind_d68ev3c_c2_elabs_scored,openbind_d68ev3c_c2_elabs_scored_4.5plus,openbind_d68ev3c_c2_elabs,openbind_d68ev3c_c2_elabs_scored_5plus,syndirella_product,openbind_d68ev3c_c2_elabs_scored_top80percent,syndirella_placed

>  <smiles>  (898) 
CCc1cc(Br)ccc1NC(=O)C1(S(=O)(=O)c2ccc(Cl)cc2)CC1

>  <subsites>  (898) 
None

>  <rmsd(smina/fragmenstein)>  (898) 
2.825

>  <alias>  (898) 
None

>  <energy_score>  (898) 
-51.511651

>  <HIPPO Pose ID>  (898) 
94654

>  <distance_score>  (898) 
0.667653

>  <HIPPO Compound ID>  (898) 
128417

>  <gnina_score_min>  (898) 
5.005

>  <name>  (898) 
P94654

>  <exports>  (898) 
['/opt/xchem-fragalysis-2/maxwin/BulkDock/OUTPUTS/openbind_d68ev3c_c2_elabs_1LOTQJ3.sdf', '/opt/xchem-fragalysis-2/maxwin/BulkDock/OUTPUTS/openbind_d68ev3c_c2_elabs_1LSYI5W.sdf']

$$$$
P94682
     RDKit          3D

 25 27  0  0  0  0  0  0  0  0999 V2000
   14.9070    0.6238   15.7512 C   0  0  0  0  0  0  0  0  0  0  0  0
   14.0026   -0.5308   16.0779 C   0  0  0  0  0  0  0  0  0  0  0  0
   12.6998   -0.4343   15.5565 C   0  0  0  0  0  0  0  0  0  0  0  0
   11.7994   -1.4774   15.6845 C   0  0  0  0  0  0  0  0  0  0  0  0
   10.0078   -1.1727   15.1932 Br  0  0  0  0  0  0  0  0  0  0  0  0
   12.2025   -2.6762   16.2515 C   0  0  0  0  0  0  0  0  0  0  0  0
   13.4708   -2.7775   16.8517 C   0  0  0  0  0  0  0  0  0  0  0  0
   13.7961   -4.0641   17.5737 C   0  0  0  0  0  0  0  0  0  0  0  0
   14.3562   -1.6644   16.8361 C   0  0  0  0  0  0  0  0  0  0  0  0
   15.5067   -1.7708   17.6427 N   0  0  0  0  0  0  0  0  0  0  0  0
   16.5516   -0.6869   18.0698 C   0  0  0  0  0  0  0  0  0  0  0  0
   16.5678    0.4693   17.8776 O   0  0  0  0  0  0  0  0  0  0  0  0
   17.6043   -1.3232   18.9345 C   0  0  0  0  0  0  0  0  0  0  0  0
   18.4157   -2.6716   18.1728 S   0  0  0  0  0  0  0  0  0  0  0  0
   19.6743   -2.8875   18.8580 O   0  0  0  0  0  0  0  0  0  0  0  0
   17.4262   -3.7398   18.1257 O   0  0  0  0  0  0  0  0  0  0  0  0
   18.7999   -2.2724   16.5105 C   0  0  0  0  0  0  0  0  0  0  0  0
   18.5327   -3.1958   15.4740 C   0  0  0  0  0  0  0  0  0  0  0  0
   18.8435   -2.9373   14.1187 C   0  0  0  0  0  0  0  0  0  0  0  0
   19.4375   -1.7391   13.6863 C   0  0  0  0  0  0  0  0  0  0  0  0
   19.7271   -0.7831   14.6897 C   0  0  0  0  0  0  0  0  0  0  0  0
   20.2881    0.4181   14.4894 N   0  0  0  0  0  0  0  0  0  0  0  0
   20.4038    1.1415   15.9784 S   0  0  0  0  0  0  0  0  0  0  0  0
   19.7513   -0.0399   16.9463 N   0  0  0  0  0  0  0  0  0  0  0  0
   19.4050   -1.0543   16.1394 C   0  0  0  0  0  0  0  0  0  0  0  0
  1  2  1  0
  2  3  2  0
  3  4  1  0
  4  5  1  0
  4  6  2  0
  6  7  1  0
  7  8  1  0
  7  9  2  0
  9 10  1  0
 10 11  1  0
 11 12  2  0
 11 13  1  0
 13 14  1  0
 14 15  2  0
 14 16  2  0
 14 17  1  0
 17 18  2  0
 18 19  1  0
 19 20  2  0
 20 21  1  0
 21 22  2  0
 22 23  1  0
 23 24  1  0
 24 25  2  0
  9  2  1  0
 25 17  1  0
 25 21  1  0
M  END
>  <ref_mols>  (899) 
B1396a

>  <gnina_score>  (899) 
5.184

>  <smina_score_min>  (899) 
-3.121

>  <ref_pdb>  (899) 
B1396a

>  <inspiration_score>  (899) 
None

>  <inchikey>  (899) 
SJZHDBUGDLSWFU-UHFFFAOYSA-N

>  <tags>  (899) 
BulkDock Fragalysis export,openbind_d68ev3c_c2_elabs_scored,openbind_d68ev3c_c2_elabs_scored_4.5plus,openbind_d68ev3c_c2_elabs,openbind_d68ev3c_c2_elabs_scored_5plus,syndirella_product,openbind_d68ev3c_c2_elabs_scored_top80percent,syndirella_placed

>  <smiles>  (899) 
Cc1cc(Br)cc(C)c1NC(=O)CS(=O)(=O)c1cccc2nsnc12

>  <subsites>  (899) 
None

>  <rmsd(smina/fragmenstein)>  (899) 
1.538

>  <alias>  (899) 
None

>  <energy_score>  (899) 
-47.831781

>  <HIPPO Pose ID>  (899) 
94682

>  <distance_score>  (899) 
0.684066

>  <HIPPO Compound ID>  (899) 
128448

>  <gnina_score_min>  (899) 
5.083

>  <name>  (899) 
P94682

>  <exports>  (899) 
['/opt/xchem-fragalysis-2/maxwin/BulkDock/OUTPUTS/openbind_d68ev3c_c2_elabs_1LOTQJ3.sdf', '/opt/xchem-fragalysis-2/maxwin/BulkDock/OUTPUTS/openbind_d68ev3c_c2_elabs_1LSYI5W.sdf']

$$$$
P94707
     RDKit          3D

 25 26  0  0  0  0  0  0  0  0999 V2000
   14.0429   -4.0486   17.6826 C   0  0  0  0  0  0  0  0  0  0  0  0
   13.5546   -2.7826   17.0208 C   0  0  0  0  0  0  0  0  0  0  0  0
   12.3456   -2.8571   16.3096 C   0  0  0  0  0  0  0  0  0  0  0  0
   11.8183   -1.7211   15.7191 C   0  0  0  0  0  0  0  0  0  0  0  0
   10.2713   -1.7524   15.0008 Cl  0  0  0  0  0  0  0  0  0  0  0  0
   12.4869   -0.5114   15.7988 C   0  0  0  0  0  0  0  0  0  0  0  0
   13.6897   -0.3952   16.5169 C   0  0  0  0  0  0  0  0  0  0  0  0
   14.2249    1.0036   16.6487 C   0  0  0  0  0  0  0  0  0  0  0  0
   14.2539   -1.5461   17.1081 C   0  0  0  0  0  0  0  0  0  0  0  0
   15.4557   -1.5413   17.8401 N   0  0  0  0  0  0  0  0  0  0  0  0
   16.6875   -0.5809   17.7627 C   0  0  0  0  0  0  0  0  0  0  0  0
   16.8518    0.3935   17.1330 O   0  0  0  0  0  0  0  0  0  0  0  0
   17.7120   -1.0304   18.7625 C   0  0  0  0  0  0  0  0  0  0  0  0
   18.5403   -2.4666   18.1988 S   0  0  0  0  0  0  0  0  0  0  0  0
   19.7697   -2.5808   18.9562 O   0  0  0  0  0  0  0  0  0  0  0  0
   17.5375   -3.5127   18.2508 O   0  0  0  0  0  0  0  0  0  0  0  0
   19.0178   -2.1971   16.5165 C   0  0  0  0  0  0  0  0  0  0  0  0
   19.6655   -1.0021   16.1814 C   0  0  0  0  0  0  0  0  0  0  0  0
   20.0135   -0.7422   14.8507 C   0  0  0  0  0  0  0  0  0  0  0  0
   19.7295   -1.6694   13.8469 C   0  0  0  0  0  0  0  0  0  0  0  0
   19.1109   -2.8728   14.1711 C   0  0  0  0  0  0  0  0  0  0  0  0
   18.7721   -3.1269   15.5079 C   0  0  0  0  0  0  0  0  0  0  0  0
   18.1610   -4.4005   15.7821 N   0  0  0  0  0  0  0  0  0  0  0  0
   18.8709   -5.2693   16.2982 O   0  0  0  0  0  0  0  0  0  0  0  0
   16.9849   -4.5163   15.4165 O   0  0  0  0  0  0  0  0  0  0  0  0
  1  2  1  0
  2  3  2  0
  3  4  1  0
  4  5  1  0
  4  6  2  0
  6  7  1  0
  7  8  1  0
  7  9  2  0
  9 10  1  0
 10 11  1  0
 11 12  2  0
 11 13  1  0
 13 14  1  0
 14 15  2  0
 14 16  2  0
 14 17  1  0
 17 18  2  0
 18 19  1  0
 19 20  2  0
 20 21  1  0
 21 22  2  0
 22 23  1  0
 23 24  2  0
 23 25  1  0
  9  2  1  0
 22 17  1  0
M  CHG  2  23   1  25  -1
M  END
>  <ref_mols>  (900) 
B1396a

>  <gnina_score>  (900) 
5.148

>  <smina_score_min>  (900) 
-2.98

>  <ref_pdb>  (900) 
B1396a

>  <inspiration_score>  (900) 
None

>  <inchikey>  (900) 
PHVHXKYJDBSWCM-UHFFFAOYSA-N

>  <tags>  (900) 
BulkDock Fragalysis export,openbind_d68ev3c_c2_elabs_scored,openbind_d68ev3c_c2_elabs_scored_4.5plus,openbind_d68ev3c_c2_elabs,openbind_d68ev3c_c2_elabs_scored_5plus,syndirella_product,openbind_d68ev3c_c2_elabs_scored_top80percent,syndirella_placed

>  <smiles>  (900) 
Cc1cc(Cl)cc(C)c1NC(=O)CS(=O)(=O)c1ccccc1[N+](=O)[O-]

>  <subsites>  (900) 
None

>  <rmsd(smina/fragmenstein)>  (900) 
1.877

>  <alias>  (900) 
None

>  <energy_score>  (900) 
-47.83643

>  <HIPPO Pose ID>  (900) 
94707

>  <distance_score>  (900) 
0.614201

>  <HIPPO Compound ID>  (900) 
128479

>  <gnina_score_min>  (900) 
5.092

>  <name>  (900) 
P94707

>  <exports>  (900) 
['/opt/xchem-fragalysis-2/maxwin/BulkDock/OUTPUTS/openbind_d68ev3c_c2_elabs_1LOTQJ3.sdf', '/opt/xchem-fragalysis-2/maxwin/BulkDock/OUTPUTS/openbind_d68ev3c_c2_elabs_1LSYI5W.sdf']

$$$$
P94710
     RDKit          3D

 25 26  0  0  0  0  0  0  0  0999 V2000
   13.9711   -4.1692   17.6439 C   0  0  0  0  0  0  0  0  0  0  0  0
   13.4000   -2.9919   16.8911 C   0  0  0  0  0  0  0  0  0  0  0  0
   12.2105   -3.2047   16.1796 C   0  0  0  0  0  0  0  0  0  0  0  0
   11.6269   -2.1748   15.4693 C   0  0  0  0  0  0  0  0  0  0  0  0
   10.4772   -2.3938   14.8235 F   0  0  0  0  0  0  0  0  0  0  0  0
   12.1842   -0.9104   15.4751 C   0  0  0  0  0  0  0  0  0  0  0  0
   13.3710   -0.6551   16.1861 C   0  0  0  0  0  0  0  0  0  0  0  0
   13.7638    1.0882   16.2715 S   0  0  0  0  0  0  0  0  0  0  0  0
   14.0204   -1.7119   16.8721 C   0  0  0  0  0  0  0  0  0  0  0  0
   15.2417   -1.6227   17.5733 N   0  0  0  0  0  0  0  0  0  0  0  0
   16.3787   -0.5505   17.5006 C   0  0  0  0  0  0  0  0  0  0  0  0
   16.5048    0.3755   16.7924 O   0  0  0  0  0  0  0  0  0  0  0  0
   17.4307   -0.8435   18.5935 C   0  0  0  0  0  0  0  0  0  0  0  0
   16.7955   -0.9927   19.9866 C   0  0  0  0  0  0  0  0  0  0  0  0
   18.4187    0.3406   18.6771 C   0  0  0  0  0  0  0  0  0  0  0  0
   18.3030   -2.3453   18.1380 S   0  0  0  0  0  0  0  0  0  0  0  0
   19.5214   -2.4314   18.9218 O   0  0  0  0  0  0  0  0  0  0  0  0
   17.3460   -3.4394   18.1879 O   0  0  0  0  0  0  0  0  0  0  0  0
   18.7948   -2.1561   16.4349 C   0  0  0  0  0  0  0  0  0  0  0  0
   19.9963   -1.5055   16.1375 C   0  0  0  0  0  0  0  0  0  0  0  0
   20.3884   -1.3555   14.8062 C   0  0  0  0  0  0  0  0  0  0  0  0
   19.5942   -1.8751   13.7853 C   0  0  0  0  0  0  0  0  0  0  0  0
   20.0828   -1.6848   12.1477 Cl  0  0  0  0  0  0  0  0  0  0  0  0
   18.4115   -2.5528   14.0832 C   0  0  0  0  0  0  0  0  0  0  0  0
   18.0104   -2.7052   15.4137 C   0  0  0  0  0  0  0  0  0  0  0  0
  1  2  1  0
  2  3  2  0
  3  4  1  0
  4  5  1  0
  4  6  2  0
  6  7  1  0
  7  8  1  0
  7  9  2  0
  9 10  1  0
 10 11  1  0
 11 12  2  0
 11 13  1  0
 13 14  1  0
 13 15  1  0
 13 16  1  0
 16 17  2  0
 16 18  2  0
 16 19  1  0
 19 20  2  0
 20 21  1  0
 21 22  2  0
 22 23  1  0
 22 24  1  0
 24 25  2  0
  9  2  1  0
 25 19  1  0
M  END
>  <ref_mols>  (901) 
B1396a

>  <gnina_score>  (901) 
5.227

>  <smina_score_min>  (901) 
-3.725

>  <ref_pdb>  (901) 
B1396a

>  <inspiration_score>  (901) 
None

>  <inchikey>  (901) 
KKABSMLWOPVXKP-UHFFFAOYSA-N

>  <tags>  (901) 
BulkDock Fragalysis export,openbind_d68ev3c_c2_elabs_scored,openbind_d68ev3c_c2_elabs_scored_4.5plus,openbind_d68ev3c_c2_elabs,openbind_d68ev3c_c2_elabs_scored_5plus,syndirella_product,openbind_d68ev3c_c2_elabs_scored_top80percent,syndirella_placed

>  <smiles>  (901) 
Cc1cc(F)cc(S)c1NC(=O)C(C)(C)S(=O)(=O)c1ccc(Cl)cc1

>  <subsites>  (901) 
None

>  <rmsd(smina/fragmenstein)>  (901) 
1.374

>  <alias>  (901) 
None

>  <energy_score>  (901) 
-43.460648

>  <HIPPO Pose ID>  (901) 
94710

>  <distance_score>  (901) 
0.39988

>  <HIPPO Compound ID>  (901) 
128482

>  <gnina_score_min>  (901) 
5.131

>  <name>  (901) 
P94710

>  <exports>  (901) 
['/opt/xchem-fragalysis-2/maxwin/BulkDock/OUTPUTS/openbind_d68ev3c_c2_elabs_1LOTQJ3.sdf', '/opt/xchem-fragalysis-2/maxwin/BulkDock/OUTPUTS/openbind_d68ev3c_c2_elabs_1LSYI5W.sdf']

$$$$
P94716
     RDKit          3D

 25 26  0  0  0  0  0  0  0  0999 V2000
   13.9689   -4.1614   17.6904 C   0  0  0  0  0  0  0  0  0  0  0  0
   13.4030   -2.9871   16.9318 C   0  0  0  0  0  0  0  0  0  0  0  0
   12.2366   -3.2069   16.1822 C   0  0  0  0  0  0  0  0  0  0  0  0
   11.6621   -2.1799   15.4561 C   0  0  0  0  0  0  0  0  0  0  0  0
   10.5360   -2.4116   14.7745 F   0  0  0  0  0  0  0  0  0  0  0  0
   12.2023   -0.9096   15.4826 C   0  0  0  0  0  0  0  0  0  0  0  0
   13.3549   -0.6583   16.2384 C   0  0  0  0  0  0  0  0  0  0  0  0
   13.7487    1.0159   16.3910 Cl  0  0  0  0  0  0  0  0  0  0  0  0
   14.0037   -1.7015   16.9381 C   0  0  0  0  0  0  0  0  0  0  0  0
   15.1940   -1.5648   17.6834 N   0  0  0  0  0  0  0  0  0  0  0  0
   16.3591   -0.5251   17.5570 C   0  0  0  0  0  0  0  0  0  0  0  0
   16.4646    0.4166   16.8667 O   0  0  0  0  0  0  0  0  0  0  0  0
   17.4431   -0.8367   18.6130 C   0  0  0  0  0  0  0  0  0  0  0  0
   16.8518   -0.9793   20.0263 C   0  0  0  0  0  0  0  0  0  0  0  0
   18.4512    0.3326   18.6662 C   0  0  0  0  0  0  0  0  0  0  0  0
   18.2790   -2.3479   18.1298 S   0  0  0  0  0  0  0  0  0  0  0  0
   19.5039   -2.4662   18.8998 O   0  0  0  0  0  0  0  0  0  0  0  0
   17.3023   -3.4246   18.1809 O   0  0  0  0  0  0  0  0  0  0  0  0
   18.7556   -2.1519   16.4243 C   0  0  0  0  0  0  0  0  0  0  0  0
   19.9744   -1.5375   16.1201 C   0  0  0  0  0  0  0  0  0  0  0  0
   20.3575   -1.3862   14.7867 C   0  0  0  0  0  0  0  0  0  0  0  0
   19.5345   -1.8692   13.7705 C   0  0  0  0  0  0  0  0  0  0  0  0
   20.0565   -1.6589   11.9663 Br  0  0  0  0  0  0  0  0  0  0  0  0
   18.3330   -2.5105   14.0738 C   0  0  0  0  0  0  0  0  0  0  0  0
   17.9426   -2.6639   15.4069 C   0  0  0  0  0  0  0  0  0  0  0  0
  1  2  1  0
  2  3  2  0
  3  4  1  0
  4  5  1  0
  4  6  2  0
  6  7  1  0
  7  8  1  0
  7  9  2  0
  9 10  1  0
 10 11  1  0
 11 12  2  0
 11 13  1  0
 13 14  1  0
 13 15  1  0
 13 16  1  0
 16 17  2  0
 16 18  2  0
 16 19  1  0
 19 20  2  0
 20 21  1  0
 21 22  2  0
 22 23  1  0
 22 24  1  0
 24 25  2  0
  9  2  1  0
 25 19  1  0
M  END
>  <ref_mols>  (902) 
B1396a

>  <gnina_score>  (902) 
5.194

>  <smina_score_min>  (902) 
-3.786

>  <ref_pdb>  (902) 
B1396a

>  <inspiration_score>  (902) 
None

>  <inchikey>  (902) 
UYRGZWPOXPKALW-UHFFFAOYSA-N

>  <tags>  (902) 
BulkDock Fragalysis export,openbind_d68ev3c_c2_elabs_scored,openbind_d68ev3c_c2_elabs_scored_4.5plus,openbind_d68ev3c_c2_elabs,openbind_d68ev3c_c2_elabs_scored_5plus,syndirella_product,openbind_d68ev3c_c2_elabs_scored_top80percent,syndirella_placed

>  <smiles>  (902) 
Cc1cc(F)cc(Cl)c1NC(=O)C(C)(C)S(=O)(=O)c1ccc(Br)cc1

>  <subsites>  (902) 
None

>  <rmsd(smina/fragmenstein)>  (902) 
1.277

>  <alias>  (902) 
None

>  <energy_score>  (902) 
-32.946045

>  <HIPPO Pose ID>  (902) 
94716

>  <distance_score>  (902) 
0.420677

>  <HIPPO Compound ID>  (902) 
128489

>  <gnina_score_min>  (902) 
5.113

>  <name>  (902) 
P94716

>  <exports>  (902) 
['/opt/xchem-fragalysis-2/maxwin/BulkDock/OUTPUTS/openbind_d68ev3c_c2_elabs_1LOTQJ3.sdf', '/opt/xchem-fragalysis-2/maxwin/BulkDock/OUTPUTS/openbind_d68ev3c_c2_elabs_1LSYI5W.sdf']

$$$$
P94719
     RDKit          3D

 25 26  0  0  0  0  0  0  0  0999 V2000
   11.8135    0.1574   14.5737 C   0  0  0  0  0  0  0  0  0  0  0  0
   12.3642   -0.9612   15.4041 C   0  0  0  0  0  0  0  0  0  0  0  0
   13.5955   -0.8407   16.0648 C   0  0  0  0  0  0  0  0  0  0  0  0
   14.1140   -1.9012   16.8215 C   0  0  0  0  0  0  0  0  0  0  0  0
   15.3314   -1.7703   17.4911 N   0  0  0  0  0  0  0  0  0  0  0  0
   16.2912   -0.5437   17.6206 C   0  0  0  0  0  0  0  0  0  0  0  0
   16.2410    0.5155   17.1208 O   0  0  0  0  0  0  0  0  0  0  0  0
   17.3973   -0.8686   18.6506 C   0  0  0  0  0  0  0  0  0  0  0  0
   18.3495    0.3395   18.7764 C   0  0  0  0  0  0  0  0  0  0  0  0
   16.7795   -1.1083   20.0402 C   0  0  0  0  0  0  0  0  0  0  0  0
   18.3145   -2.3230   18.1302 S   0  0  0  0  0  0  0  0  0  0  0  0
   19.5556   -2.3828   18.8807 O   0  0  0  0  0  0  0  0  0  0  0  0
   17.4033   -3.4562   18.1787 O   0  0  0  0  0  0  0  0  0  0  0  0
   18.7586   -2.0802   16.4225 C   0  0  0  0  0  0  0  0  0  0  0  0
   19.9235   -1.3713   16.1131 C   0  0  0  0  0  0  0  0  0  0  0  0
   20.2965   -1.2041   14.7786 C   0  0  0  0  0  0  0  0  0  0  0  0
   19.5186   -1.7641   13.7662 C   0  0  0  0  0  0  0  0  0  0  0  0
   20.0276   -1.5324   11.9608 Br  0  0  0  0  0  0  0  0  0  0  0  0
   18.3732   -2.4983   14.0743 C   0  0  0  0  0  0  0  0  0  0  0  0
   17.9936   -2.6681   15.4085 C   0  0  0  0  0  0  0  0  0  0  0  0
   13.4094   -3.1142   16.9048 C   0  0  0  0  0  0  0  0  0  0  0  0
   13.9112   -4.2889   17.6984 C   0  0  0  0  0  0  0  0  0  0  0  0
   12.1901   -3.2328   16.2260 C   0  0  0  0  0  0  0  0  0  0  0  0
   11.6808   -2.1696   15.4917 C   0  0  0  0  0  0  0  0  0  0  0  0
   10.4952   -2.3176   14.8884 F   0  0  0  0  0  0  0  0  0  0  0  0
  1  2  1  0
  2  3  2  0
  3  4  1  0
  4  5  1  0
  5  6  1  0
  6  7  2  0
  6  8  1  0
  8  9  1  0
  8 10  1  0
  8 11  1  0
 11 12  2  0
 11 13  2  0
 11 14  1  0
 14 15  2  0
 15 16  1  0
 16 17  2  0
 17 18  1  0
 17 19  1  0
 19 20  2  0
  4 21  2  0
 21 22  1  0
 21 23  1  0
 23 24  2  0
 24 25  1  0
 24  2  1  0
 20 14  1  0
M  END
>  <ref_mols>  (903) 
B1396a

>  <gnina_score>  (903) 
4.977

>  <smina_score_min>  (903) 
-3.843

>  <ref_pdb>  (903) 
B1396a

>  <inspiration_score>  (903) 
None

>  <inchikey>  (903) 
IBLMGTCAPXJPQE-UHFFFAOYSA-N

>  <tags>  (903) 
BulkDock Fragalysis export,openbind_d68ev3c_c2_elabs_scored,openbind_d68ev3c_c2_elabs_scored_4.5plus,openbind_d68ev3c_c2_elabs,openbind_d68ev3c_c2_elabs_scored_5plus,syndirella_product,openbind_d68ev3c_c2_elabs_scored_top80percent,syndirella_placed

>  <smiles>  (903) 
Cc1cc(NC(=O)C(C)(C)S(=O)(=O)c2ccc(Br)cc2)c(C)cc1F

>  <subsites>  (903) 
None

>  <rmsd(smina/fragmenstein)>  (903) 
1.827

>  <alias>  (903) 
None

>  <energy_score>  (903) 
-44.144424

>  <HIPPO Pose ID>  (903) 
94719

>  <distance_score>  (903) 
0.442391

>  <HIPPO Compound ID>  (903) 
128494

>  <gnina_score_min>  (903) 
5.09

>  <name>  (903) 
P94719

>  <exports>  (903) 
['/opt/xchem-fragalysis-2/maxwin/BulkDock/OUTPUTS/openbind_d68ev3c_c2_elabs_1LOTQJ3.sdf', '/opt/xchem-fragalysis-2/maxwin/BulkDock/OUTPUTS/openbind_d68ev3c_c2_elabs_1LSYI5W.sdf']

$$$$
P94726
     RDKit          3D

 25 26  0  0  0  0  0  0  0  0999 V2000
   17.0152   -1.3603   20.1684 C   0  0  0  0  0  0  0  0  0  0  0  0
   17.6431   -1.0336   18.8014 C   0  0  0  0  0  0  0  0  0  0  0  0
   18.6440    0.1191   19.0276 C   0  0  0  0  0  0  0  0  0  0  0  0
   16.5601   -0.5859   17.7992 C   0  0  0  0  0  0  0  0  0  0  0  0
   16.5990    0.4895   17.3330 O   0  0  0  0  0  0  0  0  0  0  0  0
   15.4988   -1.7245   17.6332 N   0  0  0  0  0  0  0  0  0  0  0  0
   14.2717   -1.7310   16.9612 C   0  0  0  0  0  0  0  0  0  0  0  0
   13.8200   -0.5546   16.3538 C   0  0  0  0  0  0  0  0  0  0  0  0
   12.5712   -0.5063   15.7386 C   0  0  0  0  0  0  0  0  0  0  0  0
   11.7732   -1.6412   15.7130 C   0  0  0  0  0  0  0  0  0  0  0  0
   10.1787   -1.5037   15.1092 Cl  0  0  0  0  0  0  0  0  0  0  0  0
   12.2264   -2.8412   16.2550 C   0  0  0  0  0  0  0  0  0  0  0  0
   13.4689   -2.8843   16.9030 C   0  0  0  0  0  0  0  0  0  0  0  0
   13.8848   -4.1144   17.5066 C   0  0  0  0  0  0  0  0  0  0  0  0
   14.2604   -5.1019   17.9813 N   0  0  0  0  0  0  0  0  0  0  0  0
   18.4860   -2.4708   18.1484 S   0  0  0  0  0  0  0  0  0  0  0  0
   19.7479   -2.6261   18.8457 O   0  0  0  0  0  0  0  0  0  0  0  0
   17.5192   -3.5568   18.1494 O   0  0  0  0  0  0  0  0  0  0  0  0
   18.8745   -2.1401   16.4414 C   0  0  0  0  0  0  0  0  0  0  0  0
   18.1052   -2.7230   15.4261 C   0  0  0  0  0  0  0  0  0  0  0  0
   18.4400   -2.4937   14.0892 C   0  0  0  0  0  0  0  0  0  0  0  0
   19.5444   -1.7008   13.7782 C   0  0  0  0  0  0  0  0  0  0  0  0
   19.9938   -1.3860   11.9696 Br  0  0  0  0  0  0  0  0  0  0  0  0
   20.3269   -1.1449   14.7897 C   0  0  0  0  0  0  0  0  0  0  0  0
   20.0007   -1.3751   16.1274 C   0  0  0  0  0  0  0  0  0  0  0  0
  1  2  1  0
  2  3  1  0
  2  4  1  0
  4  5  2  0
  4  6  1  0
  6  7  1  0
  7  8  2  0
  8  9  1  0
  9 10  2  0
 10 11  1  0
 10 12  1  0
 12 13  2  0
 13 14  1  0
 14 15  3  0
  2 16  1  0
 16 17  2  0
 16 18  2  0
 16 19  1  0
 19 20  2  0
 20 21  1  0
 21 22  2  0
 22 23  1  0
 22 24  1  0
 24 25  2  0
 13  7  1  0
 25 19  1  0
M  END
>  <ref_mols>  (904) 
B1396a

>  <gnina_score>  (904) 
5.45

>  <smina_score_min>  (904) 
-3.018

>  <ref_pdb>  (904) 
B1396a

>  <inspiration_score>  (904) 
None

>  <inchikey>  (904) 
HBZHKLWGBHQFNH-UHFFFAOYSA-N

>  <tags>  (904) 
BulkDock Fragalysis export,openbind_d68ev3c_c2_elabs_scored,openbind_d68ev3c_c2_elabs_scored_4.5plus,openbind_d68ev3c_c2_elabs,openbind_d68ev3c_c2_elabs_scored_5plus,syndirella_product,openbind_d68ev3c_c2_elabs_scored_top80percent,syndirella_placed

>  <smiles>  (904) 
CC(C)(C(=O)Nc1ccc(Cl)cc1C#N)S(=O)(=O)c1ccc(Br)cc1

>  <subsites>  (904) 
None

>  <rmsd(smina/fragmenstein)>  (904) 
1.36

>  <alias>  (904) 
None

>  <energy_score>  (904) 
-31.714078

>  <HIPPO Pose ID>  (904) 
94726

>  <distance_score>  (904) 
0.583157

>  <HIPPO Compound ID>  (904) 
128502

>  <gnina_score_min>  (904) 
5.228

>  <name>  (904) 
P94726

>  <exports>  (904) 
['/opt/xchem-fragalysis-2/maxwin/BulkDock/OUTPUTS/openbind_d68ev3c_c2_elabs_1LOTQJ3.sdf', '/opt/xchem-fragalysis-2/maxwin/BulkDock/OUTPUTS/openbind_d68ev3c_c2_elabs_1LSYI5W.sdf']

$$$$
P94742
     RDKit          3D

 25 26  0  0  0  0  0  0  0  0999 V2000
   12.1976   -3.1763   13.4661 C   0  0  0  0  0  0  0  0  0  0  0  0
   11.5100   -3.4383   15.1155 S   0  0  0  0  0  0  0  0  0  0  0  0
   12.3865   -2.1470   15.9536 C   0  0  0  0  0  0  0  0  0  0  0  0
   12.0307   -0.8490   15.5621 C   0  0  0  0  0  0  0  0  0  0  0  0
   12.7909    0.2310   15.9636 C   0  0  0  0  0  0  0  0  0  0  0  0
   13.9132    0.0143   16.7529 C   0  0  0  0  0  0  0  0  0  0  0  0
   14.2511   -1.2697   17.1997 C   0  0  0  0  0  0  0  0  0  0  0  0
   15.4148   -1.4263   17.9580 N   0  0  0  0  0  0  0  0  0  0  0  0
   16.6053   -0.4411   18.2066 C   0  0  0  0  0  0  0  0  0  0  0  0
   16.7494    0.6749   17.8753 O   0  0  0  0  0  0  0  0  0  0  0  0
   17.6590   -1.1162   19.1021 C   0  0  0  0  0  0  0  0  0  0  0  0
   17.0394   -1.5258   20.4503 C   0  0  0  0  0  0  0  0  0  0  0  0
   18.7892   -0.1095   19.4102 C   0  0  0  0  0  0  0  0  0  0  0  0
   18.3286   -2.5504   18.2674 S   0  0  0  0  0  0  0  0  0  0  0  0
   17.2745   -3.5530   18.2287 O   0  0  0  0  0  0  0  0  0  0  0  0
   19.6056   -2.8792   18.8726 O   0  0  0  0  0  0  0  0  0  0  0  0
   18.6727   -2.1172   16.5722 C   0  0  0  0  0  0  0  0  0  0  0  0
   17.8131   -2.5540   15.5562 C   0  0  0  0  0  0  0  0  0  0  0  0
   18.1303   -2.2927   14.2210 C   0  0  0  0  0  0  0  0  0  0  0  0
   19.3067   -1.6121   13.9086 C   0  0  0  0  0  0  0  0  0  0  0  0
   19.7276   -1.2533   12.1014 Br  0  0  0  0  0  0  0  0  0  0  0  0
   20.1749   -1.1966   14.9178 C   0  0  0  0  0  0  0  0  0  0  0  0
   19.8649   -1.4600   16.2546 C   0  0  0  0  0  0  0  0  0  0  0  0
   13.4481   -2.3749   16.8554 C   0  0  0  0  0  0  0  0  0  0  0  0
   13.7580   -3.7512   17.3947 C   0  0  0  0  0  0  0  0  0  0  0  0
  1  2  1  0
  2  3  1  0
  3  4  2  0
  4  5  1  0
  5  6  2  0
  6  7  1  0
  7  8  1  0
  8  9  1  0
  9 10  2  0
  9 11  1  0
 11 12  1  0
 11 13  1  0
 11 14  1  0
 14 15  2  0
 14 16  2  0
 14 17  1  0
 17 18  2  0
 18 19  1  0
 19 20  2  0
 20 21  1  0
 20 22  1  0
 22 23  2  0
  7 24  2  0
 24 25  1  0
 24  3  1  0
 23 17  1  0
M  END
>  <ref_mols>  (905) 
B1396a

>  <gnina_score>  (905) 
4.997

>  <smina_score_min>  (905) 
-3.241

>  <ref_pdb>  (905) 
B1396a

>  <inspiration_score>  (905) 
None

>  <inchikey>  (905) 
WTLHMSXBTLBADV-UHFFFAOYSA-N

>  <tags>  (905) 
BulkDock Fragalysis export,openbind_d68ev3c_c2_elabs_scored,openbind_d68ev3c_c2_elabs_scored_4.5plus,openbind_d68ev3c_c2_elabs,openbind_d68ev3c_c2_elabs_scored_5plus,syndirella_product,openbind_d68ev3c_c2_elabs_scored_top80percent,syndirella_placed

>  <smiles>  (905) 
CSc1cccc(NC(=O)C(C)(C)S(=O)(=O)c2ccc(Br)cc2)c1C

>  <subsites>  (905) 
None

>  <rmsd(smina/fragmenstein)>  (905) 
1.132

>  <alias>  (905) 
None

>  <energy_score>  (905) 
-39.350335

>  <HIPPO Pose ID>  (905) 
94742

>  <distance_score>  (905) 
0.937444

>  <HIPPO Compound ID>  (905) 
128528

>  <gnina_score_min>  (905) 
5.065

>  <name>  (905) 
P94742

>  <exports>  (905) 
['/opt/xchem-fragalysis-2/maxwin/BulkDock/OUTPUTS/openbind_d68ev3c_c2_elabs_1LOTQJ3.sdf', '/opt/xchem-fragalysis-2/maxwin/BulkDock/OUTPUTS/openbind_d68ev3c_c2_elabs_1LSYI5W.sdf']

$$$$
P94744
     RDKit          3D

 25 26  0  0  0  0  0  0  0  0999 V2000
   13.8794   -4.1225   17.6590 C   0  0  0  0  0  0  0  0  0  0  0  0
   13.5069   -2.8706   16.9006 C   0  0  0  0  0  0  0  0  0  0  0  0
   12.2495   -2.8516   16.2737 C   0  0  0  0  0  0  0  0  0  0  0  0
   11.8076   -1.7016   15.6423 C   0  0  0  0  0  0  0  0  0  0  0  0
   10.1938   -1.5641   15.0943 Cl  0  0  0  0  0  0  0  0  0  0  0  0
   12.6538   -0.6152   15.5070 C   0  0  0  0  0  0  0  0  0  0  0  0
   13.9460   -0.6244   16.0656 C   0  0  0  0  0  0  0  0  0  0  0  0
   14.7894    0.5729   15.7326 C   0  0  0  0  0  0  0  0  0  0  0  0
   14.3430   -1.7198   16.8594 C   0  0  0  0  0  0  0  0  0  0  0  0
   15.4931   -1.7665   17.6730 N   0  0  0  0  0  0  0  0  0  0  0  0
   16.5211   -0.6444   18.0466 C   0  0  0  0  0  0  0  0  0  0  0  0
   16.5195    0.5016   17.7952 O   0  0  0  0  0  0  0  0  0  0  0  0
   17.6106   -1.2224   18.9671 C   0  0  0  0  0  0  0  0  0  0  0  0
   16.9827   -1.6678   20.3009 C   0  0  0  0  0  0  0  0  0  0  0  0
   18.6420   -0.1210   19.2952 C   0  0  0  0  0  0  0  0  0  0  0  0
   18.4196   -2.6073   18.1782 S   0  0  0  0  0  0  0  0  0  0  0  0
   17.4536   -3.6951   18.1339 O   0  0  0  0  0  0  0  0  0  0  0  0
   19.7017   -2.8182   18.8238 O   0  0  0  0  0  0  0  0  0  0  0  0
   18.7675   -2.1616   16.4887 C   0  0  0  0  0  0  0  0  0  0  0  0
   17.9725   -2.6735   15.4553 C   0  0  0  0  0  0  0  0  0  0  0  0
   18.2916   -2.3798   14.1272 C   0  0  0  0  0  0  0  0  0  0  0  0
   19.4073   -1.5938   13.8409 C   0  0  0  0  0  0  0  0  0  0  0  0
   19.8358   -1.1913   12.0449 Br  0  0  0  0  0  0  0  0  0  0  0  0
   20.2138   -1.1050   14.8684 C   0  0  0  0  0  0  0  0  0  0  0  0
   19.9017   -1.3987   16.1975 C   0  0  0  0  0  0  0  0  0  0  0  0
  1  2  1  0
  2  3  2  0
  3  4  1  0
  4  5  1  0
  4  6  2  0
  6  7  1  0
  7  8  1  0
  7  9  2  0
  9 10  1  0
 10 11  1  0
 11 12  2  0
 11 13  1  0
 13 14  1  0
 13 15  1  0
 13 16  1  0
 16 17  2  0
 16 18  2  0
 16 19  1  0
 19 20  2  0
 20 21  1  0
 21 22  2  0
 22 23  1  0
 22 24  1  0
 24 25  2  0
  9  2  1  0
 25 19  1  0
M  END
>  <ref_mols>  (906) 
B1396a

>  <gnina_score>  (906) 
5.328

>  <smina_score_min>  (906) 
-3.163

>  <ref_pdb>  (906) 
B1396a

>  <inspiration_score>  (906) 
None

>  <inchikey>  (906) 
ZAPMFQONEMIVJD-UHFFFAOYSA-N

>  <tags>  (906) 
BulkDock Fragalysis export,openbind_d68ev3c_c2_elabs_scored,openbind_d68ev3c_c2_elabs_scored_4.5plus,openbind_d68ev3c_c2_elabs,openbind_d68ev3c_c2_elabs_scored_5plus,syndirella_product,openbind_d68ev3c_c2_elabs_scored_top80percent,syndirella_placed

>  <smiles>  (906) 
Cc1cc(Cl)cc(C)c1NC(=O)C(C)(C)S(=O)(=O)c1ccc(Br)cc1

>  <subsites>  (906) 
None

>  <rmsd(smina/fragmenstein)>  (906) 
1.273

>  <alias>  (906) 
None

>  <energy_score>  (906) 
-37.11566

>  <HIPPO Pose ID>  (906) 
94744

>  <distance_score>  (906) 
0.662433

>  <HIPPO Compound ID>  (906) 
128530

>  <gnina_score_min>  (906) 
5.027

>  <name>  (906) 
P94744

>  <exports>  (906) 
['/opt/xchem-fragalysis-2/maxwin/BulkDock/OUTPUTS/openbind_d68ev3c_c2_elabs_1LOTQJ3.sdf', '/opt/xchem-fragalysis-2/maxwin/BulkDock/OUTPUTS/openbind_d68ev3c_c2_elabs_1LSYI5W.sdf']

$$$$
P94747
     RDKit          3D

 25 26  0  0  0  0  0  0  0  0999 V2000
   16.7864   -1.0628   20.0288 C   0  0  0  0  0  0  0  0  0  0  0  0
   17.3764   -0.8372   18.6249 C   0  0  0  0  0  0  0  0  0  0  0  0
   18.3498    0.3563   18.7279 C   0  0  0  0  0  0  0  0  0  0  0  0
   16.2576   -0.5013   17.6097 C   0  0  0  0  0  0  0  0  0  0  0  0
   16.2604    0.5296   17.0515 O   0  0  0  0  0  0  0  0  0  0  0  0
   15.2045   -1.6576   17.5955 N   0  0  0  0  0  0  0  0  0  0  0  0
   14.0298   -1.8109   16.8423 C   0  0  0  0  0  0  0  0  0  0  0  0
   13.5500   -0.7501   16.0643 C   0  0  0  0  0  0  0  0  0  0  0  0
   12.3808   -0.8978   15.3123 C   0  0  0  0  0  0  0  0  0  0  0  0
   11.7414    0.5451   14.2716 Br  0  0  0  0  0  0  0  0  0  0  0  0
   11.6784   -2.0984   15.3185 C   0  0  0  0  0  0  0  0  0  0  0  0
   12.1464   -3.1570   16.0956 C   0  0  0  0  0  0  0  0  0  0  0  0
   13.3124   -3.0193   16.8642 C   0  0  0  0  0  0  0  0  0  0  0  0
   13.7584   -4.1349   17.6443 C   0  0  0  0  0  0  0  0  0  0  0  0
   14.1676   -5.0186   18.2716 N   0  0  0  0  0  0  0  0  0  0  0  0
   18.2561   -2.3048   18.0872 S   0  0  0  0  0  0  0  0  0  0  0  0
   19.4870   -2.4152   18.8477 O   0  0  0  0  0  0  0  0  0  0  0  0
   17.3037   -3.4027   18.0998 O   0  0  0  0  0  0  0  0  0  0  0  0
   18.7224   -2.0529   16.3873 C   0  0  0  0  0  0  0  0  0  0  0  0
   19.9040   -1.3655   16.0944 C   0  0  0  0  0  0  0  0  0  0  0  0
   20.2948   -1.2010   14.7646 C   0  0  0  0  0  0  0  0  0  0  0  0
   19.5190   -1.7444   13.7414 C   0  0  0  0  0  0  0  0  0  0  0  0
   20.0541   -1.5185   11.9429 Br  0  0  0  0  0  0  0  0  0  0  0  0
   18.3572   -2.4594   14.0335 C   0  0  0  0  0  0  0  0  0  0  0  0
   17.9587   -2.6243   15.3625 C   0  0  0  0  0  0  0  0  0  0  0  0
  1  2  1  0
  2  3  1  0
  2  4  1  0
  4  5  2  0
  4  6  1  0
  6  7  1  0
  7  8  2  0
  8  9  1  0
  9 10  1  0
  9 11  2  0
 11 12  1  0
 12 13  2  0
 13 14  1  0
 14 15  3  0
  2 16  1  0
 16 17  2  0
 16 18  2  0
 16 19  1  0
 19 20  2  0
 20 21  1  0
 21 22  2  0
 22 23  1  0
 22 24  1  0
 24 25  2  0
 13  7  1  0
 25 19  1  0
M  END
>  <ref_mols>  (907) 
B1396a

>  <gnina_score>  (907) 
5.145

>  <smina_score_min>  (907) 
-3.681

>  <ref_pdb>  (907) 
B1396a

>  <inspiration_score>  (907) 
None

>  <inchikey>  (907) 
JYYKVJWLZBSXJR-UHFFFAOYSA-N

>  <tags>  (907) 
BulkDock Fragalysis export,openbind_d68ev3c_c2_elabs_scored,openbind_d68ev3c_c2_elabs_scored_4.5plus,openbind_d68ev3c_c2_elabs,openbind_d68ev3c_c2_elabs_scored_5plus,syndirella_product,openbind_d68ev3c_c2_elabs_scored_top80percent,syndirella_placed

>  <smiles>  (907) 
CC(C)(C(=O)Nc1cc(Br)ccc1C#N)S(=O)(=O)c1ccc(Br)cc1

>  <subsites>  (907) 
None

>  <rmsd(smina/fragmenstein)>  (907) 
1.433

>  <alias>  (907) 
None

>  <energy_score>  (907) 
-44.222488

>  <HIPPO Pose ID>  (907) 
94747

>  <distance_score>  (907) 
0.439918

>  <HIPPO Compound ID>  (907) 
128534

>  <gnina_score_min>  (907) 
5.052

>  <name>  (907) 
P94747

>  <exports>  (907) 
['/opt/xchem-fragalysis-2/maxwin/BulkDock/OUTPUTS/openbind_d68ev3c_c2_elabs_1LOTQJ3.sdf', '/opt/xchem-fragalysis-2/maxwin/BulkDock/OUTPUTS/openbind_d68ev3c_c2_elabs_1LSYI5W.sdf']

$$$$
P94752
     RDKit          3D

 25 26  0  0  0  0  0  0  0  0999 V2000
   13.9778   -4.1512   17.6979 C   0  0  0  0  0  0  0  0  0  0  0  0
   13.4077   -2.9857   16.9271 C   0  0  0  0  0  0  0  0  0  0  0  0
   12.2384   -3.2210   16.1888 C   0  0  0  0  0  0  0  0  0  0  0  0
   11.6577   -2.2068   15.4538 C   0  0  0  0  0  0  0  0  0  0  0  0
   10.5269   -2.4491   14.7834 F   0  0  0  0  0  0  0  0  0  0  0  0
   12.1980   -0.9352   15.4588 C   0  0  0  0  0  0  0  0  0  0  0  0
   13.3615   -0.6566   16.1987 C   0  0  0  0  0  0  0  0  0  0  0  0
   13.7261    1.0936   16.2842 S   0  0  0  0  0  0  0  0  0  0  0  0
   14.0079   -1.6968   16.9137 C   0  0  0  0  0  0  0  0  0  0  0  0
   15.1959   -1.5603   17.6650 N   0  0  0  0  0  0  0  0  0  0  0  0
   16.3647   -0.5269   17.5389 C   0  0  0  0  0  0  0  0  0  0  0  0
   16.4776    0.4107   16.8435 O   0  0  0  0  0  0  0  0  0  0  0  0
   17.4425   -0.8370   18.6030 C   0  0  0  0  0  0  0  0  0  0  0  0
   16.8440   -0.9774   20.0134 C   0  0  0  0  0  0  0  0  0  0  0  0
   18.4496    0.3331   18.6599 C   0  0  0  0  0  0  0  0  0  0  0  0
   18.2822   -2.3488   18.1264 S   0  0  0  0  0  0  0  0  0  0  0  0
   19.5065   -2.4616   18.8977 O   0  0  0  0  0  0  0  0  0  0  0  0
   17.3068   -3.4260   18.1782 O   0  0  0  0  0  0  0  0  0  0  0  0
   18.7595   -2.1548   16.4208 C   0  0  0  0  0  0  0  0  0  0  0  0
   19.9762   -1.5365   16.1161 C   0  0  0  0  0  0  0  0  0  0  0  0
   20.3582   -1.3840   14.7826 C   0  0  0  0  0  0  0  0  0  0  0  0
   19.5364   -1.8696   13.7668 C   0  0  0  0  0  0  0  0  0  0  0  0
   20.0566   -1.6569   11.9623 Br  0  0  0  0  0  0  0  0  0  0  0  0
   18.3373   -2.5152   14.0705 C   0  0  0  0  0  0  0  0  0  0  0  0
   17.9480   -2.6700   15.4037 C   0  0  0  0  0  0  0  0  0  0  0  0
  1  2  1  0
  2  3  2  0
  3  4  1  0
  4  5  1  0
  4  6  2  0
  6  7  1  0
  7  8  1  0
  7  9  2  0
  9 10  1  0
 10 11  1  0
 11 12  2  0
 11 13  1  0
 13 14  1  0
 13 15  1  0
 13 16  1  0
 16 17  2  0
 16 18  2  0
 16 19  1  0
 19 20  2  0
 20 21  1  0
 21 22  2  0
 22 23  1  0
 22 24  1  0
 24 25  2  0
  9  2  1  0
 25 19  1  0
M  END
>  <ref_mols>  (908) 
B1396a

>  <gnina_score>  (908) 
5.17

>  <smina_score_min>  (908) 
-3.712

>  <ref_pdb>  (908) 
B1396a

>  <inspiration_score>  (908) 
None

>  <inchikey>  (908) 
RSEFKEGNYPHAOR-UHFFFAOYSA-N

>  <tags>  (908) 
BulkDock Fragalysis export,openbind_d68ev3c_c2_elabs_scored,openbind_d68ev3c_c2_elabs_scored_4.5plus,openbind_d68ev3c_c2_elabs,openbind_d68ev3c_c2_elabs_scored_5plus,syndirella_product,openbind_d68ev3c_c2_elabs_scored_top80percent,syndirella_placed

>  <smiles>  (908) 
Cc1cc(F)cc(S)c1NC(=O)C(C)(C)S(=O)(=O)c1ccc(Br)cc1

>  <subsites>  (908) 
None

>  <rmsd(smina/fragmenstein)>  (908) 
1.494

>  <alias>  (908) 
None

>  <energy_score>  (908) 
-27.155921

>  <HIPPO Pose ID>  (908) 
94752

>  <distance_score>  (908) 
0.418083

>  <HIPPO Compound ID>  (908) 
128540

>  <gnina_score_min>  (908) 
5.096

>  <name>  (908) 
P94752

>  <exports>  (908) 
['/opt/xchem-fragalysis-2/maxwin/BulkDock/OUTPUTS/openbind_d68ev3c_c2_elabs_1LOTQJ3.sdf', '/opt/xchem-fragalysis-2/maxwin/BulkDock/OUTPUTS/openbind_d68ev3c_c2_elabs_1LSYI5W.sdf']

$$$$
P94757
     RDKit          3D

 25 26  0  0  0  0  0  0  0  0999 V2000
   13.9723   -4.1647   17.6930 C   0  0  0  0  0  0  0  0  0  0  0  0
   13.4054   -2.9906   16.9347 C   0  0  0  0  0  0  0  0  0  0  0  0
   12.2394   -3.2107   16.1848 C   0  0  0  0  0  0  0  0  0  0  0  0
   11.6643   -2.1838   15.4588 C   0  0  0  0  0  0  0  0  0  0  0  0
   10.5373   -2.4159   14.7787 F   0  0  0  0  0  0  0  0  0  0  0  0
   12.2044   -0.9135   15.4849 C   0  0  0  0  0  0  0  0  0  0  0  0
   13.3570   -0.6619   16.2407 C   0  0  0  0  0  0  0  0  0  0  0  0
   13.7510    1.0122   16.3930 Cl  0  0  0  0  0  0  0  0  0  0  0  0
   14.0055   -1.7048   16.9411 C   0  0  0  0  0  0  0  0  0  0  0  0
   15.1947   -1.5672   17.6877 N   0  0  0  0  0  0  0  0  0  0  0  0
   16.3607   -0.5288   17.5605 C   0  0  0  0  0  0  0  0  0  0  0  0
   16.4680    0.4110   16.8679 O   0  0  0  0  0  0  0  0  0  0  0  0
   17.4438   -0.8397   18.6177 C   0  0  0  0  0  0  0  0  0  0  0  0
   18.4495    0.3316   18.6738 C   0  0  0  0  0  0  0  0  0  0  0  0
   16.8522   -0.9859   20.0304 C   0  0  0  0  0  0  0  0  0  0  0  0
   18.2826   -2.3484   18.1319 S   0  0  0  0  0  0  0  0  0  0  0  0
   17.3072   -3.4264   18.1771 O   0  0  0  0  0  0  0  0  0  0  0  0
   19.5066   -2.4673   18.9028 O   0  0  0  0  0  0  0  0  0  0  0  0
   18.7627   -2.1477   16.4273 C   0  0  0  0  0  0  0  0  0  0  0  0
   19.9797   -1.5274   16.1273 C   0  0  0  0  0  0  0  0  0  0  0  0
   20.3666   -1.3750   14.7948 C   0  0  0  0  0  0  0  0  0  0  0  0
   19.5513   -1.8625   13.7749 C   0  0  0  0  0  0  0  0  0  0  0  0
   20.0331   -1.6699   12.1355 Cl  0  0  0  0  0  0  0  0  0  0  0  0
   18.3521   -2.5099   14.0749 C   0  0  0  0  0  0  0  0  0  0  0  0
   17.9563   -2.6644   15.4067 C   0  0  0  0  0  0  0  0  0  0  0  0
  1  2  1  0
  2  3  2  0
  3  4  1  0
  4  5  1  0
  4  6  2  0
  6  7  1  0
  7  8  1  0
  7  9  2  0
  9 10  1  0
 10 11  1  0
 11 12  2  0
 11 13  1  0
 13 14  1  0
 13 15  1  0
 13 16  1  0
 16 17  2  0
 16 18  2  0
 16 19  1  0
 19 20  2  0
 20 21  1  0
 21 22  2  0
 22 23  1  0
 22 24  1  0
 24 25  2  0
  9  2  1  0
 25 19  1  0
M  END
>  <ref_mols>  (909) 
B1396a

>  <gnina_score>  (909) 
5.231

>  <smina_score_min>  (909) 
-3.792

>  <ref_pdb>  (909) 
B1396a

>  <inspiration_score>  (909) 
None

>  <inchikey>  (909) 
LNNDDGSBMNSAHG-UHFFFAOYSA-N

>  <tags>  (909) 
BulkDock Fragalysis export,openbind_d68ev3c_c2_elabs_scored,openbind_d68ev3c_c2_elabs_scored_4.5plus,openbind_d68ev3c_c2_elabs,openbind_d68ev3c_c2_elabs_scored_5plus,syndirella_product,openbind_d68ev3c_c2_elabs_scored_top80percent,syndirella_placed

>  <smiles>  (909) 
Cc1cc(F)cc(Cl)c1NC(=O)C(C)(C)S(=O)(=O)c1ccc(Cl)cc1

>  <subsites>  (909) 
None

>  <rmsd(smina/fragmenstein)>  (909) 
1.302

>  <alias>  (909) 
None

>  <energy_score>  (909) 
-23.099638

>  <HIPPO Pose ID>  (909) 
94757

>  <distance_score>  (909) 
0.420277

>  <HIPPO Compound ID>  (909) 
128546

>  <gnina_score_min>  (909) 
5.116

>  <name>  (909) 
P94757

>  <exports>  (909) 
['/opt/xchem-fragalysis-2/maxwin/BulkDock/OUTPUTS/openbind_d68ev3c_c2_elabs_1LOTQJ3.sdf', '/opt/xchem-fragalysis-2/maxwin/BulkDock/OUTPUTS/openbind_d68ev3c_c2_elabs_1LSYI5W.sdf']

$$$$
P94766
     RDKit          3D

 25 26  0  0  0  0  0  0  0  0999 V2000
   17.0100   -1.3667   20.1697 C   0  0  0  0  0  0  0  0  0  0  0  0
   17.6396   -1.0372   18.8041 C   0  0  0  0  0  0  0  0  0  0  0  0
   18.6393    0.1159   19.0339 C   0  0  0  0  0  0  0  0  0  0  0  0
   16.5583   -0.5888   17.8004 C   0  0  0  0  0  0  0  0  0  0  0  0
   16.5990    0.4863   17.3338 O   0  0  0  0  0  0  0  0  0  0  0  0
   15.4960   -1.7262   17.6337 N   0  0  0  0  0  0  0  0  0  0  0  0
   14.2696   -1.7316   16.9602 C   0  0  0  0  0  0  0  0  0  0  0  0
   13.8189   -0.5547   16.3532 C   0  0  0  0  0  0  0  0  0  0  0  0
   12.5700   -0.5053   15.7382 C   0  0  0  0  0  0  0  0  0  0  0  0
   11.7710   -1.6395   15.7124 C   0  0  0  0  0  0  0  0  0  0  0  0
   10.1759   -1.5000   15.1103 Cl  0  0  0  0  0  0  0  0  0  0  0  0
   12.2235   -2.8402   16.2534 C   0  0  0  0  0  0  0  0  0  0  0  0
   13.4661   -2.8844   16.9014 C   0  0  0  0  0  0  0  0  0  0  0  0
   13.8814   -4.1148   17.5047 C   0  0  0  0  0  0  0  0  0  0  0  0
   14.2576   -5.1020   17.9793 N   0  0  0  0  0  0  0  0  0  0  0  0
   18.4843   -2.4726   18.1498 S   0  0  0  0  0  0  0  0  0  0  0  0
   19.7452   -2.6287   18.8486 O   0  0  0  0  0  0  0  0  0  0  0  0
   17.5184   -3.5591   18.1456 O   0  0  0  0  0  0  0  0  0  0  0  0
   18.8770   -2.1383   16.4439 C   0  0  0  0  0  0  0  0  0  0  0  0
   18.1119   -2.7212   15.4251 C   0  0  0  0  0  0  0  0  0  0  0  0
   18.4520   -2.4902   14.0895 C   0  0  0  0  0  0  0  0  0  0  0  0
   19.5564   -1.6957   13.7819 C   0  0  0  0  0  0  0  0  0  0  0  0
   19.9709   -1.4057   12.1385 Cl  0  0  0  0  0  0  0  0  0  0  0  0
   20.3336   -1.1401   14.7975 C   0  0  0  0  0  0  0  0  0  0  0  0
   20.0034   -1.3715   16.1344 C   0  0  0  0  0  0  0  0  0  0  0  0
  1  2  1  0
  2  3  1  0
  2  4  1  0
  4  5  2  0
  4  6  1  0
  6  7  1  0
  7  8  2  0
  8  9  1  0
  9 10  2  0
 10 11  1  0
 10 12  1  0
 12 13  2  0
 13 14  1  0
 14 15  3  0
  2 16  1  0
 16 17  2  0
 16 18  2  0
 16 19  1  0
 19 20  2  0
 20 21  1  0
 21 22  2  0
 22 23  1  0
 22 24  1  0
 24 25  2  0
 13  7  1  0
 25 19  1  0
M  END
>  <ref_mols>  (910) 
B1396a

>  <gnina_score>  (910) 
5.448

>  <smina_score_min>  (910) 
-3.021

>  <ref_pdb>  (910) 
B1396a

>  <inspiration_score>  (910) 
None

>  <inchikey>  (910) 
AEQCRHHKHAEZJW-UHFFFAOYSA-N

>  <tags>  (910) 
BulkDock Fragalysis export,openbind_d68ev3c_c2_elabs_scored,openbind_d68ev3c_c2_elabs_scored_4.5plus,openbind_d68ev3c_c2_elabs,openbind_d68ev3c_c2_elabs_scored_5plus,syndirella_product,openbind_d68ev3c_c2_elabs_scored_top80percent,syndirella_placed

>  <smiles>  (910) 
CC(C)(C(=O)Nc1ccc(Cl)cc1C#N)S(=O)(=O)c1ccc(Cl)cc1

>  <subsites>  (910) 
None

>  <rmsd(smina/fragmenstein)>  (910) 
1.381

>  <alias>  (910) 
None

>  <energy_score>  (910) 
-30.939271

>  <HIPPO Pose ID>  (910) 
94766

>  <distance_score>  (910) 
0.58312

>  <HIPPO Compound ID>  (910) 
128559

>  <gnina_score_min>  (910) 
5.262

>  <name>  (910) 
P94766

>  <exports>  (910) 
['/opt/xchem-fragalysis-2/maxwin/BulkDock/OUTPUTS/openbind_d68ev3c_c2_elabs_1LOTQJ3.sdf', '/opt/xchem-fragalysis-2/maxwin/BulkDock/OUTPUTS/openbind_d68ev3c_c2_elabs_1LSYI5W.sdf']

$$$$
P94781
     RDKit          3D

 25 26  0  0  0  0  0  0  0  0999 V2000
   13.7897   -4.1301   17.4907 C   0  0  0  0  0  0  0  0  0  0  0  0
   13.4145   -2.8648   16.7650 C   0  0  0  0  0  0  0  0  0  0  0  0
   12.1420   -2.7749   16.1701 C   0  0  0  0  0  0  0  0  0  0  0  0
   11.6978   -1.5712   15.6075 C   0  0  0  0  0  0  0  0  0  0  0  0
   10.3079   -1.3584   15.3364 C   0  0  0  0  0  0  0  0  0  0  0  0
    9.1706   -1.1280   15.3463 N   0  0  0  0  0  0  0  0  0  0  0  0
   12.5681   -0.4893   15.5189 C   0  0  0  0  0  0  0  0  0  0  0  0
   13.8435   -0.5785   16.0738 C   0  0  0  0  0  0  0  0  0  0  0  0
   14.2528   -1.7366   16.7417 C   0  0  0  0  0  0  0  0  0  0  0  0
   15.4620   -1.7383   17.4374 N   0  0  0  0  0  0  0  0  0  0  0  0
   16.4984   -0.5902   17.6753 C   0  0  0  0  0  0  0  0  0  0  0  0
   16.5275    0.5052   17.2573 O   0  0  0  0  0  0  0  0  0  0  0  0
   17.5464   -1.0486   18.7105 C   0  0  0  0  0  0  0  0  0  0  0  0
   16.8715   -1.3543   20.0601 C   0  0  0  0  0  0  0  0  0  0  0  0
   18.5551    0.0940   18.9583 C   0  0  0  0  0  0  0  0  0  0  0  0
   18.3970   -2.5024   18.1025 S   0  0  0  0  0  0  0  0  0  0  0  0
   19.6420   -2.6502   18.8327 O   0  0  0  0  0  0  0  0  0  0  0  0
   17.4345   -3.5940   18.1016 O   0  0  0  0  0  0  0  0  0  0  0  0
   18.8292   -2.1881   16.4033 C   0  0  0  0  0  0  0  0  0  0  0  0
   18.0578   -2.7392   15.3730 C   0  0  0  0  0  0  0  0  0  0  0  0
   18.4214   -2.5125   14.0433 C   0  0  0  0  0  0  0  0  0  0  0  0
   19.5564   -1.7548   13.7546 C   0  0  0  0  0  0  0  0  0  0  0  0
   20.0443   -1.4436   11.9554 Br  0  0  0  0  0  0  0  0  0  0  0  0
   20.3400   -1.2301   14.7817 C   0  0  0  0  0  0  0  0  0  0  0  0
   19.9842   -1.4569   16.1123 C   0  0  0  0  0  0  0  0  0  0  0  0
  1  2  1  0
  2  3  2  0
  3  4  1  0
  4  5  1  0
  5  6  3  0
  4  7  2  0
  7  8  1  0
  8  9  2  0
  9 10  1  0
 10 11  1  0
 11 12  2  0
 11 13  1  0
 13 14  1  0
 13 15  1  0
 13 16  1  0
 16 17  2  0
 16 18  2  0
 16 19  1  0
 19 20  2  0
 20 21  1  0
 21 22  2  0
 22 23  1  0
 22 24  1  0
 24 25  2  0
  9  2  1  0
 25 19  1  0
M  END
>  <ref_mols>  (911) 
B1396a

>  <gnina_score>  (911) 
5.011

>  <smina_score_min>  (911) 
-3.605

>  <ref_pdb>  (911) 
B1396a

>  <inspiration_score>  (911) 
None

>  <inchikey>  (911) 
YVUNMRWCFMHGSM-UHFFFAOYSA-N

>  <tags>  (911) 
BulkDock Fragalysis export,openbind_d68ev3c_c2_elabs_scored,openbind_d68ev3c_c2_elabs_scored_4.5plus,openbind_d68ev3c_c2_elabs,openbind_d68ev3c_c2_elabs_scored_5plus,syndirella_product,openbind_d68ev3c_c2_elabs_scored_top80percent,syndirella_placed

>  <smiles>  (911) 
Cc1cc(C#N)ccc1NC(=O)C(C)(C)S(=O)(=O)c1ccc(Br)cc1

>  <subsites>  (911) 
None

>  <rmsd(smina/fragmenstein)>  (911) 
2.21

>  <alias>  (911) 
None

>  <energy_score>  (911) 
-39.012262

>  <HIPPO Pose ID>  (911) 
94781

>  <distance_score>  (911) 
0.553743

>  <HIPPO Compound ID>  (911) 
128583

>  <gnina_score_min>  (911) 
5.007

>  <name>  (911) 
P94781

>  <exports>  (911) 
['/opt/xchem-fragalysis-2/maxwin/BulkDock/OUTPUTS/openbind_d68ev3c_c2_elabs_1LOTQJ3.sdf', '/opt/xchem-fragalysis-2/maxwin/BulkDock/OUTPUTS/openbind_d68ev3c_c2_elabs_1LSYI5W.sdf']

$$$$
P94784
     RDKit          3D

 25 26  0  0  0  0  0  0  0  0999 V2000
   13.9965   -4.0795   17.5600 C   0  0  0  0  0  0  0  0  0  0  0  0
   13.5101   -2.7931   16.9331 C   0  0  0  0  0  0  0  0  0  0  0  0
   12.2791   -2.8368   16.2564 C   0  0  0  0  0  0  0  0  0  0  0  0
   11.7487   -1.6803   15.7114 C   0  0  0  0  0  0  0  0  0  0  0  0
   10.1751   -1.6633   15.0487 Cl  0  0  0  0  0  0  0  0  0  0  0  0
   12.4399   -0.4848   15.7968 C   0  0  0  0  0  0  0  0  0  0  0  0
   13.6703   -0.3995   16.4743 C   0  0  0  0  0  0  0  0  0  0  0  0
   14.2308    0.9903   16.5865 C   0  0  0  0  0  0  0  0  0  0  0  0
   14.2344   -1.5685   17.0290 C   0  0  0  0  0  0  0  0  0  0  0  0
   15.4618   -1.6311   17.7183 N   0  0  0  0  0  0  0  0  0  0  0  0
   16.6267   -0.5874   17.8187 C   0  0  0  0  0  0  0  0  0  0  0  0
   16.7701    0.4449   17.2804 O   0  0  0  0  0  0  0  0  0  0  0  0
   17.6688   -1.0777   18.8398 C   0  0  0  0  0  0  0  0  0  0  0  0
   17.0292   -1.3676   20.2087 C   0  0  0  0  0  0  0  0  0  0  0  0
   18.7241    0.0276   19.0634 C   0  0  0  0  0  0  0  0  0  0  0  0
   18.4447   -2.5503   18.1832 S   0  0  0  0  0  0  0  0  0  0  0  0
   17.4410   -3.6035   18.1890 O   0  0  0  0  0  0  0  0  0  0  0  0
   19.7015   -2.7560   18.8778 O   0  0  0  0  0  0  0  0  0  0  0  0
   18.8448   -2.2239   16.4766 C   0  0  0  0  0  0  0  0  0  0  0  0
   18.0120   -2.7047   15.4586 C   0  0  0  0  0  0  0  0  0  0  0  0
   18.3485   -2.4655   14.1232 C   0  0  0  0  0  0  0  0  0  0  0  0
   19.5155   -1.7663   13.8147 C   0  0  0  0  0  0  0  0  0  0  0  0
   19.9244   -1.4657   12.1718 Cl  0  0  0  0  0  0  0  0  0  0  0  0
   20.3572   -1.3120   14.8290 C   0  0  0  0  0  0  0  0  0  0  0  0
   20.0298   -1.5507   16.1652 C   0  0  0  0  0  0  0  0  0  0  0  0
  1  2  1  0
  2  3  2  0
  3  4  1  0
  4  5  1  0
  4  6  2  0
  6  7  1  0
  7  8  1  0
  7  9  2  0
  9 10  1  0
 10 11  1  0
 11 12  2  0
 11 13  1  0
 13 14  1  0
 13 15  1  0
 13 16  1  0
 16 17  2  0
 16 18  2  0
 16 19  1  0
 19 20  2  0
 20 21  1  0
 21 22  2  0
 22 23  1  0
 22 24  1  0
 24 25  2  0
  9  2  1  0
 25 19  1  0
M  END
>  <ref_mols>  (912) 
B1396a

>  <gnina_score>  (912) 
5.314

>  <smina_score_min>  (912) 
-3.468

>  <ref_pdb>  (912) 
B1396a

>  <inspiration_score>  (912) 
None

>  <inchikey>  (912) 
MBMWHAVNQKDHKG-UHFFFAOYSA-N

>  <tags>  (912) 
BulkDock Fragalysis export,openbind_d68ev3c_c2_elabs_scored,openbind_d68ev3c_c2_elabs_scored_4.5plus,openbind_d68ev3c_c2_elabs,openbind_d68ev3c_c2_elabs_scored_5plus,syndirella_product,openbind_d68ev3c_c2_elabs_scored_top80percent,syndirella_placed

>  <smiles>  (912) 
Cc1cc(Cl)cc(C)c1NC(=O)C(C)(C)S(=O)(=O)c1ccc(Cl)cc1

>  <subsites>  (912) 
None

>  <rmsd(smina/fragmenstein)>  (912) 
2.166

>  <alias>  (912) 
None

>  <energy_score>  (912) 
-35.551116

>  <HIPPO Pose ID>  (912) 
94784

>  <distance_score>  (912) 
0.604969

>  <HIPPO Compound ID>  (912) 
128587

>  <gnina_score_min>  (912) 
5.086

>  <name>  (912) 
P94784

>  <exports>  (912) 
['/opt/xchem-fragalysis-2/maxwin/BulkDock/OUTPUTS/openbind_d68ev3c_c2_elabs_1LOTQJ3.sdf', '/opt/xchem-fragalysis-2/maxwin/BulkDock/OUTPUTS/openbind_d68ev3c_c2_elabs_1LSYI5W.sdf']

$$$$
P94787
     RDKit          3D

 25 26  0  0  0  0  0  0  0  0999 V2000
   18.3459    0.3544   18.7349 C   0  0  0  0  0  0  0  0  0  0  0  0
   17.3738   -0.8398   18.6285 C   0  0  0  0  0  0  0  0  0  0  0  0
   16.7819   -1.0679   20.0313 C   0  0  0  0  0  0  0  0  0  0  0  0
   16.2570   -0.5036   17.6113 C   0  0  0  0  0  0  0  0  0  0  0  0
   16.2617    0.5267   17.0521 O   0  0  0  0  0  0  0  0  0  0  0  0
   15.2026   -1.6588   17.5968 N   0  0  0  0  0  0  0  0  0  0  0  0
   14.0290   -1.8115   16.8420 C   0  0  0  0  0  0  0  0  0  0  0  0
   13.5503   -0.7505   16.0636 C   0  0  0  0  0  0  0  0  0  0  0  0
   12.3814   -0.8977   15.3109 C   0  0  0  0  0  0  0  0  0  0  0  0
   11.7433    0.5456   14.2699 Br  0  0  0  0  0  0  0  0  0  0  0  0
   11.6784   -2.0979   15.3167 C   0  0  0  0  0  0  0  0  0  0  0  0
   12.1454   -3.1569   16.0941 C   0  0  0  0  0  0  0  0  0  0  0  0
   13.3110   -3.0197   16.8633 C   0  0  0  0  0  0  0  0  0  0  0  0
   13.7564   -4.1354   17.6437 C   0  0  0  0  0  0  0  0  0  0  0  0
   14.1662   -5.0185   18.2712 N   0  0  0  0  0  0  0  0  0  0  0  0
   18.2555   -2.3058   18.0898 S   0  0  0  0  0  0  0  0  0  0  0  0
   17.3039   -3.4043   18.0972 O   0  0  0  0  0  0  0  0  0  0  0  0
   19.4851   -2.4171   18.8523 O   0  0  0  0  0  0  0  0  0  0  0  0
   18.7265   -2.0506   16.3911 C   0  0  0  0  0  0  0  0  0  0  0  0
   17.9685   -2.6240   15.3629 C   0  0  0  0  0  0  0  0  0  0  0  0
   18.3731   -2.4582   14.0355 C   0  0  0  0  0  0  0  0  0  0  0  0
   19.5342   -1.7403   13.7471 C   0  0  0  0  0  0  0  0  0  0  0  0
   20.0282   -1.5329   12.1132 Cl  0  0  0  0  0  0  0  0  0  0  0  0
   20.3030   -1.1949   14.7743 C   0  0  0  0  0  0  0  0  0  0  0  0
   19.9075   -1.3601   16.1029 C   0  0  0  0  0  0  0  0  0  0  0  0
  1  2  1  0
  2  3  1  0
  2  4  1  0
  4  5  2  0
  4  6  1  0
  6  7  1  0
  7  8  2  0
  8  9  1  0
  9 10  1  0
  9 11  2  0
 11 12  1  0
 12 13  2  0
 13 14  1  0
 14 15  3  0
  2 16  1  0
 16 17  2  0
 16 18  2  0
 16 19  1  0
 19 20  2  0
 20 21  1  0
 21 22  2  0
 22 23  1  0
 22 24  1  0
 24 25  2  0
 13  7  1  0
 25 19  1  0
M  END
>  <ref_mols>  (913) 
B1396a

>  <gnina_score>  (913) 
5.18

>  <smina_score_min>  (913) 
-3.677

>  <ref_pdb>  (913) 
B1396a

>  <inspiration_score>  (913) 
None

>  <inchikey>  (913) 
PKRIFXKYQWARRO-UHFFFAOYSA-N

>  <tags>  (913) 
BulkDock Fragalysis export,openbind_d68ev3c_c2_elabs_scored,openbind_d68ev3c_c2_elabs_scored_4.5plus,openbind_d68ev3c_c2_elabs,openbind_d68ev3c_c2_elabs_scored_5plus,syndirella_product,openbind_d68ev3c_c2_elabs_scored_top80percent,syndirella_placed

>  <smiles>  (913) 
CC(C)(C(=O)Nc1cc(Br)ccc1C#N)S(=O)(=O)c1ccc(Cl)cc1

>  <subsites>  (913) 
None

>  <rmsd(smina/fragmenstein)>  (913) 
1.406

>  <alias>  (913) 
None

>  <energy_score>  (913) 
-39.445112

>  <HIPPO Pose ID>  (913) 
94787

>  <distance_score>  (913) 
0.439758

>  <HIPPO Compound ID>  (913) 
128591

>  <gnina_score_min>  (913) 
5.049

>  <name>  (913) 
P94787

>  <exports>  (913) 
['/opt/xchem-fragalysis-2/maxwin/BulkDock/OUTPUTS/openbind_d68ev3c_c2_elabs_1LOTQJ3.sdf', '/opt/xchem-fragalysis-2/maxwin/BulkDock/OUTPUTS/openbind_d68ev3c_c2_elabs_1LSYI5W.sdf']

$$$$
P94791
     RDKit          3D

 25 26  0  0  0  0  0  0  0  0999 V2000
   13.9955   -4.1942   19.1118 C   0  0  0  0  0  0  0  0  0  0  0  0
   14.0302   -4.1454   17.5908 C   0  0  0  0  0  0  0  0  0  0  0  0
   13.6010   -2.8203   16.9950 C   0  0  0  0  0  0  0  0  0  0  0  0
   12.3521   -2.7471   16.3438 C   0  0  0  0  0  0  0  0  0  0  0  0
   11.9049   -1.5380   15.8076 C   0  0  0  0  0  0  0  0  0  0  0  0
   10.1527   -1.3395   15.1561 Br  0  0  0  0  0  0  0  0  0  0  0  0
   12.7098   -0.4112   15.8332 C   0  0  0  0  0  0  0  0  0  0  0  0
   13.9497   -0.4729   16.4568 C   0  0  0  0  0  0  0  0  0  0  0  0
   14.3912   -1.6540   17.0626 C   0  0  0  0  0  0  0  0  0  0  0  0
   15.5894   -1.6334   17.7767 N   0  0  0  0  0  0  0  0  0  0  0  0
   16.6897   -0.5254   17.8828 C   0  0  0  0  0  0  0  0  0  0  0  0
   16.7152    0.5635   17.4478 O   0  0  0  0  0  0  0  0  0  0  0  0
   17.8239   -1.0165   18.8032 C   0  0  0  0  0  0  0  0  0  0  0  0
   18.8893    0.0916   18.9426 C   0  0  0  0  0  0  0  0  0  0  0  0
   17.2810   -1.3018   20.2147 C   0  0  0  0  0  0  0  0  0  0  0  0
   18.5538   -2.4971   18.1167 S   0  0  0  0  0  0  0  0  0  0  0  0
   17.5376   -3.5384   18.1537 O   0  0  0  0  0  0  0  0  0  0  0  0
   19.8299   -2.7231   18.7678 O   0  0  0  0  0  0  0  0  0  0  0  0
   18.8971   -2.1711   16.4000 C   0  0  0  0  0  0  0  0  0  0  0  0
   18.0281   -2.6458   15.4100 C   0  0  0  0  0  0  0  0  0  0  0  0
   18.3272   -2.4161   14.0644 C   0  0  0  0  0  0  0  0  0  0  0  0
   19.4927   -1.7323   13.7181 C   0  0  0  0  0  0  0  0  0  0  0  0
   19.8556   -1.4431   12.0625 Cl  0  0  0  0  0  0  0  0  0  0  0  0
   20.3698   -1.2840   14.7047 C   0  0  0  0  0  0  0  0  0  0  0  0
   20.0801   -1.5137   16.0508 C   0  0  0  0  0  0  0  0  0  0  0  0
  1  2  1  0
  2  3  1  0
  3  4  2  0
  4  5  1  0
  5  6  1  0
  5  7  2  0
  7  8  1  0
  8  9  2  0
  9 10  1  0
 10 11  1  0
 11 12  2  0
 11 13  1  0
 13 14  1  0
 13 15  1  0
 13 16  1  0
 16 17  2  0
 16 18  2  0
 16 19  1  0
 19 20  2  0
 20 21  1  0
 21 22  2  0
 22 23  1  0
 22 24  1  0
 24 25  2  0
  9  3  1  0
 25 19  1  0
M  END
>  <ref_mols>  (914) 
B1396a

>  <gnina_score>  (914) 
5.318

>  <smina_score_min>  (914) 
-3.107

>  <ref_pdb>  (914) 
B1396a

>  <inspiration_score>  (914) 
None

>  <inchikey>  (914) 
DUQZPQLYFWVLCO-UHFFFAOYSA-N

>  <tags>  (914) 
BulkDock Fragalysis export,openbind_d68ev3c_c2_elabs_scored,openbind_d68ev3c_c2_elabs_scored_4.5plus,openbind_d68ev3c_c2_elabs,openbind_d68ev3c_c2_elabs_scored_5plus,syndirella_product,openbind_d68ev3c_c2_elabs_scored_top80percent,syndirella_placed

>  <smiles>  (914) 
CCc1cc(Br)ccc1NC(=O)C(C)(C)S(=O)(=O)c1ccc(Cl)cc1

>  <subsites>  (914) 
None

>  <rmsd(smina/fragmenstein)>  (914) 
1.964

>  <alias>  (914) 
None

>  <energy_score>  (914) 
-45.470335

>  <HIPPO Pose ID>  (914) 
94791

>  <distance_score>  (914) 
0.702488

>  <HIPPO Compound ID>  (914) 
128595

>  <gnina_score_min>  (914) 
5.157

>  <name>  (914) 
P94791

>  <exports>  (914) 
['/opt/xchem-fragalysis-2/maxwin/BulkDock/OUTPUTS/openbind_d68ev3c_c2_elabs_1LOTQJ3.sdf', '/opt/xchem-fragalysis-2/maxwin/BulkDock/OUTPUTS/openbind_d68ev3c_c2_elabs_1LSYI5W.sdf']

$$$$
P94795
     RDKit          3D

 25 28  0  0  0  0  0  0  0  0999 V2000
   16.7380   -0.7119   16.1750 O   0  0  0  0  0  0  0  0  0  0  0  0
   16.3169   -1.1456   17.1853 C   0  0  0  0  0  0  0  0  0  0  0  0
   17.1494   -1.1606   18.4341 C   0  0  0  0  0  0  0  0  0  0  0  0
   18.4833   -2.3104   18.2949 S   0  0  0  0  0  0  0  0  0  0  0  0
   17.9368   -3.6242   18.5734 O   0  0  0  0  0  0  0  0  0  0  0  0
   19.5728   -1.8095   19.1153 O   0  0  0  0  0  0  0  0  0  0  0  0
   19.0761   -2.2697   16.6383 C   0  0  0  0  0  0  0  0  0  0  0  0
   19.6808   -1.0897   16.1441 C   0  0  0  0  0  0  0  0  0  0  0  0
   20.1421   -0.9583   14.8138 C   0  0  0  0  0  0  0  0  0  0  0  0
   20.0767   -2.0011   13.8763 C   0  0  0  0  0  0  0  0  0  0  0  0
   19.5483   -3.2272   14.3427 C   0  0  0  0  0  0  0  0  0  0  0  0
   19.4821   -4.3624   13.6330 N   0  0  0  0  0  0  0  0  0  0  0  0
   18.9329   -5.5346   14.6700 S   0  0  0  0  0  0  0  0  0  0  0  0
   18.5472   -4.6043   15.9859 N   0  0  0  0  0  0  0  0  0  0  0  0
   19.0207   -3.3699   15.7524 C   0  0  0  0  0  0  0  0  0  0  0  0
   14.9595   -1.7420   17.5071 N   0  0  0  0  0  0  0  0  0  0  0  0
   14.9477   -3.3131   17.2665 C   0  0  0  0  0  0  0  0  0  0  0  0
   13.6165   -3.9899   17.5072 C   0  0  0  0  0  0  0  0  0  0  0  0
   12.9525   -2.9941   16.6837 C   0  0  0  0  0  0  0  0  0  0  0  0
   11.8095   -3.1001   15.9122 C   0  0  0  0  0  0  0  0  0  0  0  0
   11.4073   -2.0020   15.1558 C   0  0  0  0  0  0  0  0  0  0  0  0
   12.1691   -0.8325   15.1729 C   0  0  0  0  0  0  0  0  0  0  0  0
   11.6589    0.5282   14.2512 Cl  0  0  0  0  0  0  0  0  0  0  0  0
   13.3401   -0.7574   15.9291 C   0  0  0  0  0  0  0  0  0  0  0  0
   13.7443   -1.8616   16.6822 C   0  0  0  0  0  0  0  0  0  0  0  0
  1  2  2  0
  2  3  1  0
  3  4  1  0
  4  5  2  0
  4  6  2  0
  4  7  1  0
  7  8  2  0
  8  9  1  0
  9 10  2  0
 10 11  1  0
 11 12  2  0
 12 13  1  0
 13 14  1  0
 14 15  2  0
  2 16  1  0
 16 17  1  0
 17 18  1  0
 18 19  1  0
 19 20  2  0
 20 21  1  0
 21 22  2  0
 22 23  1  0
 22 24  1  0
 24 25  2  0
 15  7  1  0
 25 16  1  0
 15 11  1  0
 25 19  1  0
M  END
>  <ref_mols>  (915) 
B1396a

>  <gnina_score>  (915) 
5.043

>  <smina_score_min>  (915) 
-3.41

>  <ref_pdb>  (915) 
B1396a

>  <inspiration_score>  (915) 
None

>  <inchikey>  (915) 
QVNUQBCVJVDMER-UHFFFAOYSA-N

>  <tags>  (915) 
BulkDock Fragalysis export,openbind_d68ev3c_c2_elabs_scored,openbind_d68ev3c_c2_elabs_scored_4.5plus,openbind_d68ev3c_c2_elabs,openbind_d68ev3c_c2_elabs_scored_5plus,syndirella_product,openbind_d68ev3c_c2_elabs_scored_top80percent,syndirella_placed

>  <smiles>  (915) 
O=C(CS(=O)(=O)c1cccc2nsnc12)N1CCc2ccc(Cl)cc21

>  <subsites>  (915) 
None

>  <rmsd(smina/fragmenstein)>  (915) 
0.986

>  <alias>  (915) 
None

>  <energy_score>  (915) 
-1.018052

>  <HIPPO Pose ID>  (915) 
94795

>  <distance_score>  (915) 
0.473132

>  <HIPPO Compound ID>  (915) 
128600

>  <gnina_score_min>  (915) 
5.005

>  <name>  (915) 
P94795

>  <exports>  (915) 
['/opt/xchem-fragalysis-2/maxwin/BulkDock/OUTPUTS/openbind_d68ev3c_c2_elabs_1LOTQJ3.sdf', '/opt/xchem-fragalysis-2/maxwin/BulkDock/OUTPUTS/openbind_d68ev3c_c2_elabs_1LSYI5W.sdf']

$$$$
P94815
     RDKit          3D

 25 27  0  0  0  0  0  0  0  0999 V2000
   13.9545   -4.1508   17.7173 C   0  0  0  0  0  0  0  0  0  0  0  0
   13.3825   -2.9916   16.9400 C   0  0  0  0  0  0  0  0  0  0  0  0
   12.2142   -3.2257   16.2011 C   0  0  0  0  0  0  0  0  0  0  0  0
   11.6429   -2.2145   15.4528 C   0  0  0  0  0  0  0  0  0  0  0  0
   10.5093   -2.4547   14.7865 F   0  0  0  0  0  0  0  0  0  0  0  0
   12.1953   -0.9473   15.4387 C   0  0  0  0  0  0  0  0  0  0  0  0
   13.3591   -0.6718   16.1764 C   0  0  0  0  0  0  0  0  0  0  0  0
   13.7676    1.0705   16.2387 S   0  0  0  0  0  0  0  0  0  0  0  0
   13.9866   -1.7074   16.9135 C   0  0  0  0  0  0  0  0  0  0  0  0
   15.1694   -1.5598   17.6656 N   0  0  0  0  0  0  0  0  0  0  0  0
   16.3814   -0.5972   17.4688 C   0  0  0  0  0  0  0  0  0  0  0  0
   16.5443    0.2700   16.6984 O   0  0  0  0  0  0  0  0  0  0  0  0
   17.3904   -0.8719   18.5504 C   0  0  0  0  0  0  0  0  0  0  0  0
   18.2973   -2.3358   18.2135 S   0  0  0  0  0  0  0  0  0  0  0  0
   19.4935   -2.2978   19.0331 O   0  0  0  0  0  0  0  0  0  0  0  0
   17.3288   -3.4075   18.3625 O   0  0  0  0  0  0  0  0  0  0  0  0
   18.8386   -2.2744   16.5434 C   0  0  0  0  0  0  0  0  0  0  0  0
   19.2746   -1.0644   15.9590 C   0  0  0  0  0  0  0  0  0  0  0  0
   19.6977   -0.9661   14.6125 C   0  0  0  0  0  0  0  0  0  0  0  0
   19.7468   -2.0669   13.7435 C   0  0  0  0  0  0  0  0  0  0  0  0
   19.3772   -3.3142   14.2976 C   0  0  0  0  0  0  0  0  0  0  0  0
   19.4131   -4.4897   13.6557 N   0  0  0  0  0  0  0  0  0  0  0  0
   18.9939   -5.6508   14.7647 S   0  0  0  0  0  0  0  0  0  0  0  0
   18.6229   -4.6950   16.0669 N   0  0  0  0  0  0  0  0  0  0  0  0
   18.9098   -3.4283   15.7293 C   0  0  0  0  0  0  0  0  0  0  0  0
  1  2  1  0
  2  3  2  0
  3  4  1  0
  4  5  1  0
  4  6  2  0
  6  7  1  0
  7  8  1  0
  7  9  2  0
  9 10  1  0
 10 11  1  0
 11 12  2  0
 11 13  1  0
 13 14  1  0
 14 15  2  0
 14 16  2  0
 14 17  1  0
 17 18  2  0
 18 19  1  0
 19 20  2  0
 20 21  1  0
 21 22  2  0
 22 23  1  0
 23 24  1  0
 24 25  2  0
  9  2  1  0
 25 17  1  0
 25 21  1  0
M  END
>  <ref_mols>  (916) 
B1396a

>  <gnina_score>  (916) 
5.198

>  <smina_score_min>  (916) 
-3.975

>  <ref_pdb>  (916) 
B1396a

>  <inspiration_score>  (916) 
None

>  <inchikey>  (916) 
UPUOGHLEDIYADV-UHFFFAOYSA-N

>  <tags>  (916) 
BulkDock Fragalysis export,openbind_d68ev3c_c2_elabs_scored,openbind_d68ev3c_c2_elabs_scored_4.5plus,openbind_d68ev3c_c2_elabs,openbind_d68ev3c_c2_elabs_scored_5plus,syndirella_product,openbind_d68ev3c_c2_elabs_scored_top80percent,syndirella_placed

>  <smiles>  (916) 
Cc1cc(F)cc(S)c1NC(=O)CS(=O)(=O)c1cccc2nsnc12

>  <subsites>  (916) 
None

>  <rmsd(smina/fragmenstein)>  (916) 
1.772

>  <alias>  (916) 
None

>  <energy_score>  (916) 
-62.898471

>  <HIPPO Pose ID>  (916) 
94815

>  <distance_score>  (916) 
0.435095

>  <HIPPO Compound ID>  (916) 
128631

>  <gnina_score_min>  (916) 
5.257

>  <name>  (916) 
P94815

>  <exports>  (916) 
['/opt/xchem-fragalysis-2/maxwin/BulkDock/OUTPUTS/openbind_d68ev3c_c2_elabs_1LOTQJ3.sdf', '/opt/xchem-fragalysis-2/maxwin/BulkDock/OUTPUTS/openbind_d68ev3c_c2_elabs_1LSYI5W.sdf']

$$$$
P94816
     RDKit          3D

 25 27  0  0  0  0  0  0  0  0999 V2000
   14.2123    0.9781   16.6907 C   0  0  0  0  0  0  0  0  0  0  0  0
   13.6585   -0.4111   16.5326 C   0  0  0  0  0  0  0  0  0  0  0  0
   12.4515   -0.4976   15.8182 C   0  0  0  0  0  0  0  0  0  0  0  0
   11.7673   -1.6968   15.7185 C   0  0  0  0  0  0  0  0  0  0  0  0
   10.2091   -1.6882   15.0219 Cl  0  0  0  0  0  0  0  0  0  0  0  0
   12.2864   -2.8530   16.2783 C   0  0  0  0  0  0  0  0  0  0  0  0
   13.4986   -2.8074   16.9865 C   0  0  0  0  0  0  0  0  0  0  0  0
   13.9840   -4.0911   17.6148 C   0  0  0  0  0  0  0  0  0  0  0  0
   14.2095   -1.5806   17.0988 C   0  0  0  0  0  0  0  0  0  0  0  0
   15.4115   -1.6047   17.8277 N   0  0  0  0  0  0  0  0  0  0  0  0
   16.6553   -0.6589   17.7656 C   0  0  0  0  0  0  0  0  0  0  0  0
   16.8308    0.3243   17.1539 O   0  0  0  0  0  0  0  0  0  0  0  0
   17.6692   -1.1518   18.7586 C   0  0  0  0  0  0  0  0  0  0  0  0
   18.4714   -2.5874   18.1523 S   0  0  0  0  0  0  0  0  0  0  0  0
   17.4587   -3.6336   18.1547 O   0  0  0  0  0  0  0  0  0  0  0  0
   19.6948   -2.7777   18.9054 O   0  0  0  0  0  0  0  0  0  0  0  0
   18.9229   -2.3071   16.4811 C   0  0  0  0  0  0  0  0  0  0  0  0
   18.5700   -3.2317   15.4733 C   0  0  0  0  0  0  0  0  0  0  0  0
   18.9088   -3.0435   14.1128 C   0  0  0  0  0  0  0  0  0  0  0  0
   19.6157   -1.9206   13.6477 C   0  0  0  0  0  0  0  0  0  0  0  0
   19.9974   -0.9684   14.6234 C   0  0  0  0  0  0  0  0  0  0  0  0
   20.6797    0.1621   14.3902 N   0  0  0  0  0  0  0  0  0  0  0  0
   20.8609    0.9157   15.8571 S   0  0  0  0  0  0  0  0  0  0  0  0
   20.0948   -0.1661   16.8576 N   0  0  0  0  0  0  0  0  0  0  0  0
   19.6483   -1.1643   16.0786 C   0  0  0  0  0  0  0  0  0  0  0  0
  1  2  1  0
  2  3  2  0
  3  4  1  0
  4  5  1  0
  4  6  2  0
  6  7  1  0
  7  8  1  0
  7  9  2  0
  9 10  1  0
 10 11  1  0
 11 12  2  0
 11 13  1  0
 13 14  1  0
 14 15  2  0
 14 16  2  0
 14 17  1  0
 17 18  2  0
 18 19  1  0
 19 20  2  0
 20 21  1  0
 21 22  2  0
 22 23  1  0
 23 24  1  0
 24 25  2  0
  9  2  1  0
 25 17  1  0
 25 21  1  0
M  END
>  <ref_mols>  (917) 
B1396a

>  <gnina_score>  (917) 
5.189

>  <smina_score_min>  (917) 
-3.488

>  <ref_pdb>  (917) 
B1396a

>  <inspiration_score>  (917) 
None

>  <inchikey>  (917) 
WJNOGISRPKOVGO-UHFFFAOYSA-N

>  <tags>  (917) 
BulkDock Fragalysis export,openbind_d68ev3c_c2_elabs_scored,openbind_d68ev3c_c2_elabs_scored_4.5plus,openbind_d68ev3c_c2_elabs,openbind_d68ev3c_c2_elabs_scored_5plus,syndirella_product,openbind_d68ev3c_c2_elabs_scored_top80percent,syndirella_placed

>  <smiles>  (917) 
Cc1cc(Cl)cc(C)c1NC(=O)CS(=O)(=O)c1cccc2nsnc12

>  <subsites>  (917) 
None

>  <rmsd(smina/fragmenstein)>  (917) 
2.625

>  <alias>  (917) 
None

>  <energy_score>  (917) 
-76.030993

>  <HIPPO Pose ID>  (917) 
94816

>  <distance_score>  (917) 
0.553277

>  <HIPPO Compound ID>  (917) 
128633

>  <gnina_score_min>  (917) 
5.164

>  <name>  (917) 
P94816

>  <exports>  (917) 
['/opt/xchem-fragalysis-2/maxwin/BulkDock/OUTPUTS/openbind_d68ev3c_c2_elabs_1LOTQJ3.sdf', '/opt/xchem-fragalysis-2/maxwin/BulkDock/OUTPUTS/openbind_d68ev3c_c2_elabs_1LSYI5W.sdf']

$$$$
P94819
     RDKit          3D

 25 27  0  0  0  0  0  0  0  0999 V2000
   14.2839   -5.1136   18.0214 N   0  0  0  0  0  0  0  0  0  0  0  0
   13.9057   -4.1217   17.5579 C   0  0  0  0  0  0  0  0  0  0  0  0
   13.4864   -2.8897   16.9609 C   0  0  0  0  0  0  0  0  0  0  0  0
   12.2614   -2.8592   16.2796 C   0  0  0  0  0  0  0  0  0  0  0  0
   11.8103   -1.6634   15.7275 C   0  0  0  0  0  0  0  0  0  0  0  0
   10.2320   -1.5457   15.0811 Cl  0  0  0  0  0  0  0  0  0  0  0  0
   12.5946   -0.5196   15.7757 C   0  0  0  0  0  0  0  0  0  0  0  0
   13.8250   -0.5540   16.4281 C   0  0  0  0  0  0  0  0  0  0  0  0
   14.2718   -1.7259   17.0482 C   0  0  0  0  0  0  0  0  0  0  0  0
   15.4700   -1.6984   17.7721 N   0  0  0  0  0  0  0  0  0  0  0  0
   16.5841   -0.6050   17.8482 C   0  0  0  0  0  0  0  0  0  0  0  0
   16.6283    0.4667   17.3777 O   0  0  0  0  0  0  0  0  0  0  0  0
   17.6701   -1.0885   18.7732 C   0  0  0  0  0  0  0  0  0  0  0  0
   18.4905   -2.5007   18.1397 S   0  0  0  0  0  0  0  0  0  0  0  0
   17.4928   -3.5599   18.1549 O   0  0  0  0  0  0  0  0  0  0  0  0
   19.7350   -2.6700   18.8614 O   0  0  0  0  0  0  0  0  0  0  0  0
   18.8963   -2.2202   16.4582 C   0  0  0  0  0  0  0  0  0  0  0  0
   18.6013   -3.1951   15.4783 C   0  0  0  0  0  0  0  0  0  0  0  0
   18.9152   -3.0233   14.1101 C   0  0  0  0  0  0  0  0  0  0  0  0
   19.5392   -1.8678   13.6082 C   0  0  0  0  0  0  0  0  0  0  0  0
   19.8593   -0.8640   14.5541 C   0  0  0  0  0  0  0  0  0  0  0  0
   20.4553    0.3061   14.2835 N   0  0  0  0  0  0  0  0  0  0  0  0
   20.5986    1.1099   15.7278 S   0  0  0  0  0  0  0  0  0  0  0  0
   19.9100    0.0086   16.7630 N   0  0  0  0  0  0  0  0  0  0  0  0
   19.5341   -1.0419   16.0172 C   0  0  0  0  0  0  0  0  0  0  0  0
  1  2  3  0
  2  3  1  0
  3  4  2  0
  4  5  1  0
  5  6  1  0
  5  7  2  0
  7  8  1  0
  8  9  2  0
  9 10  1  0
 10 11  1  0
 11 12  2  0
 11 13  1  0
 13 14  1  0
 14 15  2  0
 14 16  2  0
 14 17  1  0
 17 18  2  0
 18 19  1  0
 19 20  2  0
 20 21  1  0
 21 22  2  0
 22 23  1  0
 23 24  1  0
 24 25  2  0
  9  3  1  0
 25 17  1  0
 25 21  1  0
M  END
>  <ref_mols>  (918) 
B1396a

>  <gnina_score>  (918) 
5.333

>  <smina_score_min>  (918) 
-2.996

>  <ref_pdb>  (918) 
B1396a

>  <inspiration_score>  (918) 
None

>  <inchikey>  (918) 
RXQRCTDQKMDJLU-UHFFFAOYSA-N

>  <tags>  (918) 
BulkDock Fragalysis export,openbind_d68ev3c_c2_elabs_scored,openbind_d68ev3c_c2_elabs_scored_4.5plus,openbind_d68ev3c_c2_elabs,openbind_d68ev3c_c2_elabs_scored_5plus,syndirella_product,openbind_d68ev3c_c2_elabs_scored_top80percent,syndirella_placed

>  <smiles>  (918) 
N#Cc1cc(Cl)ccc1NC(=O)CS(=O)(=O)c1cccc2nsnc12

>  <subsites>  (918) 
None

>  <rmsd(smina/fragmenstein)>  (918) 
1.872

>  <alias>  (918) 
None

>  <energy_score>  (918) 
-56.051534

>  <HIPPO Pose ID>  (918) 
94819

>  <distance_score>  (918) 
0.577599

>  <HIPPO Compound ID>  (918) 
128636

>  <gnina_score_min>  (918) 
5.063

>  <name>  (918) 
P94819

>  <exports>  (918) 
['/opt/xchem-fragalysis-2/maxwin/BulkDock/OUTPUTS/openbind_d68ev3c_c2_elabs_1LOTQJ3.sdf', '/opt/xchem-fragalysis-2/maxwin/BulkDock/OUTPUTS/openbind_d68ev3c_c2_elabs_1LSYI5W.sdf']

$$$$
P94823
     RDKit          3D

 25 27  0  0  0  0  0  0  0  0999 V2000
   13.8067   -4.1197   17.6449 C   0  0  0  0  0  0  0  0  0  0  0  0
   13.3477   -2.8714   16.9461 C   0  0  0  0  0  0  0  0  0  0  0  0
   14.0502   -1.6578   17.0180 C   0  0  0  0  0  0  0  0  0  0  0  0
   15.2511   -1.6019   17.7230 N   0  0  0  0  0  0  0  0  0  0  0  0
   16.3846   -0.5323   17.7075 C   0  0  0  0  0  0  0  0  0  0  0  0
   16.4455    0.5003   17.1591 O   0  0  0  0  0  0  0  0  0  0  0  0
   17.4860   -0.9998   18.6114 C   0  0  0  0  0  0  0  0  0  0  0  0
   18.3180   -2.4172   17.9958 S   0  0  0  0  0  0  0  0  0  0  0  0
   17.3819   -3.5262   18.0133 O   0  0  0  0  0  0  0  0  0  0  0  0
   19.5455   -2.5251   18.7678 O   0  0  0  0  0  0  0  0  0  0  0  0
   18.7937   -2.0966   16.3319 C   0  0  0  0  0  0  0  0  0  0  0  0
   20.1279   -1.7314   16.0433 C   0  0  0  0  0  0  0  0  0  0  0  0
   20.5983   -1.4854   14.7322 C   0  0  0  0  0  0  0  0  0  0  0  0
   19.7825   -1.5788   13.5949 C   0  0  0  0  0  0  0  0  0  0  0  0
   18.4325   -1.9238   13.8258 C   0  0  0  0  0  0  0  0  0  0  0  0
   17.4815   -1.9987   12.8829 N   0  0  0  0  0  0  0  0  0  0  0  0
   16.0588   -2.3001   13.6715 S   0  0  0  0  0  0  0  0  0  0  0  0
   16.6242   -2.5460   15.2123 N   0  0  0  0  0  0  0  0  0  0  0  0
   17.9239   -2.2123   15.2208 C   0  0  0  0  0  0  0  0  0  0  0  0
   13.5793   -0.5271   16.3349 C   0  0  0  0  0  0  0  0  0  0  0  0
   12.4053   -0.5883   15.5831 C   0  0  0  0  0  0  0  0  0  0  0  0
   11.7190   -1.7872   15.5022 C   0  0  0  0  0  0  0  0  0  0  0  0
   10.5773   -1.8493   14.8089 F   0  0  0  0  0  0  0  0  0  0  0  0
   12.1937   -2.9128   16.1608 C   0  0  0  0  0  0  0  0  0  0  0  0
   11.5176   -4.0581   16.0446 F   0  0  0  0  0  0  0  0  0  0  0  0
  1  2  1  0
  2  3  2  0
  3  4  1  0
  4  5  1  0
  5  6  2  0
  5  7  1  0
  7  8  1  0
  8  9  2  0
  8 10  2  0
  8 11  1  0
 11 12  2  0
 12 13  1  0
 13 14  2  0
 14 15  1  0
 15 16  2  0
 16 17  1  0
 17 18  1  0
 18 19  2  0
  3 20  1  0
 20 21  2  0
 21 22  1  0
 22 23  1  0
 22 24  2  0
 24 25  1  0
 24  2  1  0
 19 11  1  0
 19 15  1  0
M  END
>  <ref_mols>  (919) 
B1396a

>  <gnina_score>  (919) 
5.031

>  <smina_score_min>  (919) 
-3.97

>  <ref_pdb>  (919) 
B1396a

>  <inspiration_score>  (919) 
None

>  <inchikey>  (919) 
ANDZVGVJVXNJDU-UHFFFAOYSA-N

>  <tags>  (919) 
BulkDock Fragalysis export,openbind_d68ev3c_c2_elabs_scored,openbind_d68ev3c_c2_elabs_scored_4.5plus,openbind_d68ev3c_c2_elabs,openbind_d68ev3c_c2_elabs_scored_5plus,syndirella_product,openbind_d68ev3c_c2_elabs_scored_top80percent,syndirella_placed

>  <smiles>  (919) 
Cc1c(NC(=O)CS(=O)(=O)c2cccc3nsnc23)ccc(F)c1F

>  <subsites>  (919) 
None

>  <rmsd(smina/fragmenstein)>  (919) 
1.433

>  <alias>  (919) 
None

>  <energy_score>  (919) 
-60.768307

>  <HIPPO Pose ID>  (919) 
94823

>  <distance_score>  (919) 
0.610487

>  <HIPPO Compound ID>  (919) 
128640

>  <gnina_score_min>  (919) 
5.217

>  <name>  (919) 
P94823

>  <exports>  (919) 
['/opt/xchem-fragalysis-2/maxwin/BulkDock/OUTPUTS/openbind_d68ev3c_c2_elabs_1LOTQJ3.sdf', '/opt/xchem-fragalysis-2/maxwin/BulkDock/OUTPUTS/openbind_d68ev3c_c2_elabs_1LSYI5W.sdf']

$$$$
P94831
     RDKit          3D

 25 27  0  0  0  0  0  0  0  0999 V2000
   13.8357   -4.1462   17.6600 C   0  0  0  0  0  0  0  0  0  0  0  0
   13.2776   -2.9492   16.9323 C   0  0  0  0  0  0  0  0  0  0  0  0
   12.1307   -3.1405   16.1499 C   0  0  0  0  0  0  0  0  0  0  0  0
   11.5776   -2.0859   15.4457 C   0  0  0  0  0  0  0  0  0  0  0  0
   10.4547   -2.2867   14.7501 F   0  0  0  0  0  0  0  0  0  0  0  0
   12.1321   -0.8215   15.5078 C   0  0  0  0  0  0  0  0  0  0  0  0
   13.2767   -0.6037   16.2828 C   0  0  0  0  0  0  0  0  0  0  0  0
   13.7320    1.0531   16.4573 Cl  0  0  0  0  0  0  0  0  0  0  0  0
   13.8849   -1.6690   16.9806 C   0  0  0  0  0  0  0  0  0  0  0  0
   15.0796   -1.5736   17.7164 N   0  0  0  0  0  0  0  0  0  0  0  0
   16.3057   -0.6216   17.5402 C   0  0  0  0  0  0  0  0  0  0  0  0
   16.4702    0.2755   16.8056 O   0  0  0  0  0  0  0  0  0  0  0  0
   17.3567   -1.0260   18.5270 C   0  0  0  0  0  0  0  0  0  0  0  0
   18.2472   -2.4366   17.9756 S   0  0  0  0  0  0  0  0  0  0  0  0
   17.3514   -3.5775   18.0128 O   0  0  0  0  0  0  0  0  0  0  0  0
   19.4627   -2.4776   18.7736 O   0  0  0  0  0  0  0  0  0  0  0  0
   18.7429   -2.1571   16.3099 C   0  0  0  0  0  0  0  0  0  0  0  0
   20.0796   -1.7987   16.0251 C   0  0  0  0  0  0  0  0  0  0  0  0
   20.5546   -1.5594   14.7145 C   0  0  0  0  0  0  0  0  0  0  0  0
   19.7401   -1.6499   13.5757 C   0  0  0  0  0  0  0  0  0  0  0  0
   18.3870   -1.9860   13.8039 C   0  0  0  0  0  0  0  0  0  0  0  0
   17.4361   -2.0527   12.8602 N   0  0  0  0  0  0  0  0  0  0  0  0
   16.0075   -2.3198   13.6515 S   0  0  0  0  0  0  0  0  0  0  0  0
   16.5723   -2.6040   15.1875 N   0  0  0  0  0  0  0  0  0  0  0  0
   17.8743   -2.2730   15.1973 C   0  0  0  0  0  0  0  0  0  0  0  0
  1  2  1  0
  2  3  2  0
  3  4  1  0
  4  5  1  0
  4  6  2  0
  6  7  1  0
  7  8  1  0
  7  9  2  0
  9 10  1  0
 10 11  1  0
 11 12  2  0
 11 13  1  0
 13 14  1  0
 14 15  2  0
 14 16  2  0
 14 17  1  0
 17 18  2  0
 18 19  1  0
 19 20  2  0
 20 21  1  0
 21 22  2  0
 22 23  1  0
 23 24  1  0
 24 25  2  0
  9  2  1  0
 25 17  1  0
 25 21  1  0
M  END
>  <ref_mols>  (920) 
B1396a

>  <gnina_score>  (920) 
5.044

>  <smina_score_min>  (920) 
-3.848

>  <ref_pdb>  (920) 
B1396a

>  <inspiration_score>  (920) 
None

>  <inchikey>  (920) 
QZHYMWHOCUYTQO-UHFFFAOYSA-N

>  <tags>  (920) 
BulkDock Fragalysis export,openbind_d68ev3c_c2_elabs_scored,openbind_d68ev3c_c2_elabs_scored_4.5plus,openbind_d68ev3c_c2_elabs,openbind_d68ev3c_c2_elabs_scored_5plus,syndirella_product,openbind_d68ev3c_c2_elabs_scored_top80percent,syndirella_placed

>  <smiles>  (920) 
Cc1cc(F)cc(Cl)c1NC(=O)CS(=O)(=O)c1cccc2nsnc12

>  <subsites>  (920) 
None

>  <rmsd(smina/fragmenstein)>  (920) 
1.849

>  <alias>  (920) 
None

>  <energy_score>  (920) 
-66.988223

>  <HIPPO Pose ID>  (920) 
94831

>  <distance_score>  (920) 
0.506271

>  <HIPPO Compound ID>  (920) 
128650

>  <gnina_score_min>  (920) 
5.063

>  <name>  (920) 
P94831

>  <exports>  (920) 
['/opt/xchem-fragalysis-2/maxwin/BulkDock/OUTPUTS/openbind_d68ev3c_c2_elabs_1LOTQJ3.sdf', '/opt/xchem-fragalysis-2/maxwin/BulkDock/OUTPUTS/openbind_d68ev3c_c2_elabs_1LSYI5W.sdf']

$$$$
P94840
     RDKit          3D

 25 27  0  0  0  0  0  0  0  0999 V2000
   13.5162   -4.8707   17.8681 C   0  0  0  0  0  0  0  0  0  0  0  0
   14.3887   -3.6856   17.5790 C   0  0  0  0  0  0  0  0  0  0  0  0
   13.7714   -2.4615   16.9388 C   0  0  0  0  0  0  0  0  0  0  0  0
   12.4865   -2.4682   16.3683 C   0  0  0  0  0  0  0  0  0  0  0  0
   11.9756   -1.3051   15.7888 C   0  0  0  0  0  0  0  0  0  0  0  0
   10.1878   -1.2135   15.2046 Br  0  0  0  0  0  0  0  0  0  0  0  0
   12.7487   -0.1541   15.7006 C   0  0  0  0  0  0  0  0  0  0  0  0
   14.0323   -0.1401   16.2385 C   0  0  0  0  0  0  0  0  0  0  0  0
   14.5358   -1.2711   16.8769 C   0  0  0  0  0  0  0  0  0  0  0  0
   15.7874   -1.2461   17.4931 N   0  0  0  0  0  0  0  0  0  0  0  0
   16.8912   -0.1473   17.4962 C   0  0  0  0  0  0  0  0  0  0  0  0
   16.9501    0.8692   16.9202 O   0  0  0  0  0  0  0  0  0  0  0  0
   17.9521   -0.5745   18.4855 C   0  0  0  0  0  0  0  0  0  0  0  0
   18.6708   -2.1311   18.0667 S   0  0  0  0  0  0  0  0  0  0  0  0
   19.9096   -2.2878   18.8009 O   0  0  0  0  0  0  0  0  0  0  0  0
   17.6181   -3.1259   18.2307 O   0  0  0  0  0  0  0  0  0  0  0  0
   19.0701   -2.0940   16.3600 C   0  0  0  0  0  0  0  0  0  0  0  0
   18.6820   -3.1483   15.5038 C   0  0  0  0  0  0  0  0  0  0  0  0
   18.9704   -3.1502   14.1193 C   0  0  0  0  0  0  0  0  0  0  0  0
   19.6533   -2.1021   13.4776 C   0  0  0  0  0  0  0  0  0  0  0  0
   20.0667   -1.0252   14.2977 C   0  0  0  0  0  0  0  0  0  0  0  0
   20.7333    0.0621   13.8846 N   0  0  0  0  0  0  0  0  0  0  0  0
   20.9659    1.0120   15.2245 S   0  0  0  0  0  0  0  0  0  0  0  0
   20.2416    0.0784   16.3915 N   0  0  0  0  0  0  0  0  0  0  0  0
   19.7736   -1.0189   15.7764 C   0  0  0  0  0  0  0  0  0  0  0  0
  1  2  1  0
  2  3  1  0
  3  4  2  0
  4  5  1  0
  5  6  1  0
  5  7  2  0
  7  8  1  0
  8  9  2  0
  9 10  1  0
 10 11  1  0
 11 12  2  0
 11 13  1  0
 13 14  1  0
 14 15  2  0
 14 16  2  0
 14 17  1  0
 17 18  2  0
 18 19  1  0
 19 20  2  0
 20 21  1  0
 21 22  2  0
 22 23  1  0
 23 24  1  0
 24 25  2  0
  9  3  1  0
 25 17  1  0
 25 21  1  0
M  END
>  <ref_mols>  (921) 
B1396a

>  <gnina_score>  (921) 
5.254

>  <smina_score_min>  (921) 
-2.995

>  <ref_pdb>  (921) 
B1396a

>  <inspiration_score>  (921) 
None

>  <inchikey>  (921) 
BPGWYCUGJCVHIB-UHFFFAOYSA-N

>  <tags>  (921) 
BulkDock Fragalysis export,openbind_d68ev3c_c2_elabs_scored,openbind_d68ev3c_c2_elabs_scored_4.5plus,openbind_d68ev3c_c2_elabs,openbind_d68ev3c_c2_elabs_scored_5plus,syndirella_product,openbind_d68ev3c_c2_elabs_scored_top80percent,syndirella_placed

>  <smiles>  (921) 
CCc1cc(Br)ccc1NC(=O)CS(=O)(=O)c1cccc2nsnc12

>  <subsites>  (921) 
None

>  <rmsd(smina/fragmenstein)>  (921) 
2.094

>  <alias>  (921) 
None

>  <energy_score>  (921) 
-54.11966

>  <HIPPO Pose ID>  (921) 
94840

>  <distance_score>  (921) 
0.859108

>  <HIPPO Compound ID>  (921) 
128659

>  <gnina_score_min>  (921) 
5.026

>  <name>  (921) 
P94840

>  <exports>  (921) 
['/opt/xchem-fragalysis-2/maxwin/BulkDock/OUTPUTS/openbind_d68ev3c_c2_elabs_1LOTQJ3.sdf', '/opt/xchem-fragalysis-2/maxwin/BulkDock/OUTPUTS/openbind_d68ev3c_c2_elabs_1LSYI5W.sdf']

$$$$
P94841
     RDKit          3D

 25 27  0  0  0  0  0  0  0  0999 V2000
   13.9233   -3.9574   17.5026 C   0  0  0  0  0  0  0  0  0  0  0  0
   13.4624   -2.6415   16.9231 C   0  0  0  0  0  0  0  0  0  0  0  0
   12.2301   -2.6186   16.2402 C   0  0  0  0  0  0  0  0  0  0  0  0
   11.7217   -1.4167   15.7595 C   0  0  0  0  0  0  0  0  0  0  0  0
    9.9495   -1.2700   15.1475 Br  0  0  0  0  0  0  0  0  0  0  0  0
   12.4460   -0.2445   15.8808 C   0  0  0  0  0  0  0  0  0  0  0  0
   13.6656   -0.2437   16.5571 C   0  0  0  0  0  0  0  0  0  0  0  0
   14.2603    1.3412   16.9178 Cl  0  0  0  0  0  0  0  0  0  0  0  0
   14.2034   -1.4398   17.0778 C   0  0  0  0  0  0  0  0  0  0  0  0
   15.4033   -1.4932   17.8121 N   0  0  0  0  0  0  0  0  0  0  0  0
   16.6818   -0.5988   17.7321 C   0  0  0  0  0  0  0  0  0  0  0  0
   16.8969    0.3624   17.0981 O   0  0  0  0  0  0  0  0  0  0  0  0
   17.6843   -1.0894   18.7335 C   0  0  0  0  0  0  0  0  0  0  0  0
   18.4444   -2.5695   18.2024 S   0  0  0  0  0  0  0  0  0  0  0  0
   19.6577   -2.7176   18.9825 O   0  0  0  0  0  0  0  0  0  0  0  0
   17.3838   -3.5604   18.2691 O   0  0  0  0  0  0  0  0  0  0  0  0
   18.9466   -2.3879   16.5296 C   0  0  0  0  0  0  0  0  0  0  0  0
   19.3616   -1.1449   16.0041 C   0  0  0  0  0  0  0  0  0  0  0  0
   19.7445   -0.9670   14.6533 C   0  0  0  0  0  0  0  0  0  0  0  0
   19.7759   -2.0156   13.7213 C   0  0  0  0  0  0  0  0  0  0  0  0
   19.4329   -3.2953   14.2146 C   0  0  0  0  0  0  0  0  0  0  0  0
   19.4641   -4.4331   13.5078 N   0  0  0  0  0  0  0  0  0  0  0  0
   19.0916   -5.6585   14.5632 S   0  0  0  0  0  0  0  0  0  0  0  0
   18.7412   -4.7799   15.9244 N   0  0  0  0  0  0  0  0  0  0  0  0
   19.0057   -3.4932   15.6491 C   0  0  0  0  0  0  0  0  0  0  0  0
  1  2  1  0
  2  3  2  0
  3  4  1  0
  4  5  1  0
  4  6  2  0
  6  7  1  0
  7  8  1  0
  7  9  2  0
  9 10  1  0
 10 11  1  0
 11 12  2  0
 11 13  1  0
 13 14  1  0
 14 15  2  0
 14 16  2  0
 14 17  1  0
 17 18  2  0
 18 19  1  0
 19 20  2  0
 20 21  1  0
 21 22  2  0
 22 23  1  0
 23 24  1  0
 24 25  2  0
  9  2  1  0
 25 17  1  0
 25 21  1  0
M  END
>  <ref_mols>  (922) 
B1396a

>  <gnina_score>  (922) 
5.387

>  <smina_score_min>  (922) 
-3.515

>  <ref_pdb>  (922) 
B1396a

>  <inspiration_score>  (922) 
None

>  <inchikey>  (922) 
PNJXVDXPZIJRBN-UHFFFAOYSA-N

>  <tags>  (922) 
BulkDock Fragalysis export,openbind_d68ev3c_c2_elabs_scored,openbind_d68ev3c_c2_elabs_scored_4.5plus,openbind_d68ev3c_c2_elabs,openbind_d68ev3c_c2_elabs_scored_5plus,syndirella_product,openbind_d68ev3c_c2_elabs_scored_top80percent,syndirella_placed

>  <smiles>  (922) 
Cc1cc(Br)cc(Cl)c1NC(=O)CS(=O)(=O)c1cccc2nsnc12

>  <subsites>  (922) 
None

>  <rmsd(smina/fragmenstein)>  (922) 
2.51

>  <alias>  (922) 
None

>  <energy_score>  (922) 
-54.795802

>  <HIPPO Pose ID>  (922) 
94841

>  <distance_score>  (922) 
0.675557

>  <HIPPO Compound ID>  (922) 
128660

>  <gnina_score_min>  (922) 
5.061

>  <name>  (922) 
P94841

>  <exports>  (922) 
['/opt/xchem-fragalysis-2/maxwin/BulkDock/OUTPUTS/openbind_d68ev3c_c2_elabs_1LOTQJ3.sdf', '/opt/xchem-fragalysis-2/maxwin/BulkDock/OUTPUTS/openbind_d68ev3c_c2_elabs_1LSYI5W.sdf']

$$$$
P94844
     RDKit          3D

 25 27  0  0  0  0  0  0  0  0999 V2000
   14.1460   -5.0260   18.2441 N   0  0  0  0  0  0  0  0  0  0  0  0
   13.7349   -4.1335   17.6306 C   0  0  0  0  0  0  0  0  0  0  0  0
   13.2921   -3.0085   16.8624 C   0  0  0  0  0  0  0  0  0  0  0  0
   12.1275   -3.1351   16.0902 C   0  0  0  0  0  0  0  0  0  0  0  0
   11.6707   -2.0704   15.3146 C   0  0  0  0  0  0  0  0  0  0  0  0
   12.3853   -0.8768   15.3105 C   0  0  0  0  0  0  0  0  0  0  0  0
   11.7619    0.5728   14.2691 Br  0  0  0  0  0  0  0  0  0  0  0  0
   13.5557   -0.7415   16.0632 C   0  0  0  0  0  0  0  0  0  0  0  0
   14.0215   -1.8070   16.8429 C   0  0  0  0  0  0  0  0  0  0  0  0
   15.2012   -1.6712   17.5914 N   0  0  0  0  0  0  0  0  0  0  0  0
   16.2994   -0.5614   17.5596 C   0  0  0  0  0  0  0  0  0  0  0  0
   16.3450    0.4432   16.9601 O   0  0  0  0  0  0  0  0  0  0  0  0
   17.3624   -0.9179   18.5706 C   0  0  0  0  0  0  0  0  0  0  0  0
   18.2750   -2.3384   18.0849 S   0  0  0  0  0  0  0  0  0  0  0  0
   17.3240   -3.4392   18.1147 O   0  0  0  0  0  0  0  0  0  0  0  0
   19.4826   -2.4131   18.8829 O   0  0  0  0  0  0  0  0  0  0  0  0
   18.7683   -2.1446   16.4144 C   0  0  0  0  0  0  0  0  0  0  0  0
   18.5407   -3.1746   15.4742 C   0  0  0  0  0  0  0  0  0  0  0  0
   18.9269   -3.0698   14.1178 C   0  0  0  0  0  0  0  0  0  0  0  0
   19.5649   -1.9336   13.5900 C   0  0  0  0  0  0  0  0  0  0  0  0
   19.8212   -0.8770   14.4971 C   0  0  0  0  0  0  0  0  0  0  0  0
   20.4202    0.2845   14.1978 N   0  0  0  0  0  0  0  0  0  0  0  0
   20.4676    1.1682   15.6012 S   0  0  0  0  0  0  0  0  0  0  0  0
   19.7352    0.1134   16.6547 N   0  0  0  0  0  0  0  0  0  0  0  0
   19.4160   -0.9816   15.9471 C   0  0  0  0  0  0  0  0  0  0  0  0
  1  2  3  0
  2  3  1  0
  3  4  2  0
  4  5  1  0
  5  6  2  0
  6  7  1  0
  6  8  1  0
  8  9  2  0
  9 10  1  0
 10 11  1  0
 11 12  2  0
 11 13  1  0
 13 14  1  0
 14 15  2  0
 14 16  2  0
 14 17  1  0
 17 18  2  0
 18 19  1  0
 19 20  2  0
 20 21  1  0
 21 22  2  0
 22 23  1  0
 23 24  1  0
 24 25  2  0
  9  3  1  0
 25 17  1  0
 25 21  1  0
M  END
>  <ref_mols>  (923) 
B1396a

>  <gnina_score>  (923) 
5.104

>  <smina_score_min>  (923) 
-3.552

>  <ref_pdb>  (923) 
B1396a

>  <inspiration_score>  (923) 
None

>  <inchikey>  (923) 
AYOLXILQNOZDBM-UHFFFAOYSA-N

>  <tags>  (923) 
BulkDock Fragalysis export,openbind_d68ev3c_c2_elabs_scored,openbind_d68ev3c_c2_elabs_scored_4.5plus,openbind_d68ev3c_c2_elabs,openbind_d68ev3c_c2_elabs_scored_5plus,syndirella_product,openbind_d68ev3c_c2_elabs_scored_top80percent,syndirella_placed

>  <smiles>  (923) 
N#Cc1ccc(Br)cc1NC(=O)CS(=O)(=O)c1cccc2nsnc12

>  <subsites>  (923) 
None

>  <rmsd(smina/fragmenstein)>  (923) 
1.464

>  <alias>  (923) 
None

>  <energy_score>  (923) 
-55.834649

>  <HIPPO Pose ID>  (923) 
94844

>  <distance_score>  (923) 
0.384604

>  <HIPPO Compound ID>  (923) 
128663

>  <gnina_score_min>  (923) 
5.016

>  <name>  (923) 
P94844

>  <exports>  (923) 
['/opt/xchem-fragalysis-2/maxwin/BulkDock/OUTPUTS/openbind_d68ev3c_c2_elabs_1LOTQJ3.sdf', '/opt/xchem-fragalysis-2/maxwin/BulkDock/OUTPUTS/openbind_d68ev3c_c2_elabs_1LSYI5W.sdf']

$$$$
P94889
     RDKit          3D

 25 27  0  0  0  0  0  0  0  0999 V2000
   13.8585   -3.9810   17.4953 C   0  0  0  0  0  0  0  0  0  0  0  0
   13.4231   -2.6599   16.9077 C   0  0  0  0  0  0  0  0  0  0  0  0
   12.1944   -2.6171   16.2211 C   0  0  0  0  0  0  0  0  0  0  0  0
   11.7050   -1.4054   15.7454 C   0  0  0  0  0  0  0  0  0  0  0  0
    9.9296   -1.2299   15.1479 Br  0  0  0  0  0  0  0  0  0  0  0  0
   12.4495   -0.2454   15.8672 C   0  0  0  0  0  0  0  0  0  0  0  0
   13.6679   -0.2644   16.5464 C   0  0  0  0  0  0  0  0  0  0  0  0
   14.2877    1.3091   16.9115 Cl  0  0  0  0  0  0  0  0  0  0  0  0
   14.1800   -1.4692   17.0709 C   0  0  0  0  0  0  0  0  0  0  0  0
   15.3586   -1.5450   17.8342 N   0  0  0  0  0  0  0  0  0  0  0  0
   16.6553   -0.6777   17.7852 C   0  0  0  0  0  0  0  0  0  0  0  0
   16.9064    0.2800   17.1538 O   0  0  0  0  0  0  0  0  0  0  0  0
   17.6662   -1.1921   18.8448 C   0  0  0  0  0  0  0  0  0  0  0  0
   18.4834   -2.6393   18.1486 S   0  0  0  0  0  0  0  0  0  0  0  0
   17.4927   -3.7081   18.1650 O   0  0  0  0  0  0  0  0  0  0  0  0
   19.7548   -2.8462   18.8184 O   0  0  0  0  0  0  0  0  0  0  0  0
   18.8941   -2.3739   16.4335 C   0  0  0  0  0  0  0  0  0  0  0  0
   18.5366   -3.3343   15.4808 C   0  0  0  0  0  0  0  0  0  0  0  0
   18.8619   -3.1243   14.1404 C   0  0  0  0  0  0  0  0  0  0  0  0
   19.5269   -1.9592   13.7571 C   0  0  0  0  0  0  0  0  0  0  0  0
   19.8833   -1.0070   14.7124 C   0  0  0  0  0  0  0  0  0  0  0  0
   19.5745   -1.2136   16.0570 C   0  0  0  0  0  0  0  0  0  0  0  0
   17.1256   -1.4118   20.2961 C   0  0  0  0  0  0  0  0  0  0  0  0
   18.4174   -0.7917   20.8444 C   0  0  0  0  0  0  0  0  0  0  0  0
   18.6303   -0.1336   19.4732 C   0  0  0  0  0  0  0  0  0  0  0  0
  1  2  1  0
  2  3  2  0
  3  4  1  0
  4  5  1  0
  4  6  2  0
  6  7  1  0
  7  8  1  0
  7  9  2  0
  9 10  1  0
 10 11  1  0
 11 12  2  0
 11 13  1  0
 13 14  1  0
 14 15  2  0
 14 16  2  0
 14 17  1  0
 17 18  2  0
 18 19  1  0
 19 20  2  0
 20 21  1  0
 21 22  2  0
 13 23  1  0
 23 24  1  0
 24 25  1  0
  9  2  1  0
 25 13  1  0
 22 17  1  0
M  END
>  <ref_mols>  (924) 
B1396a

>  <gnina_score>  (924) 
5.411

>  <smina_score_min>  (924) 
-3.58

>  <ref_pdb>  (924) 
B1396a

>  <inspiration_score>  (924) 
None

>  <inchikey>  (924) 
RDJDNDYWRRDDON-UHFFFAOYSA-N

>  <tags>  (924) 
BulkDock Fragalysis export,openbind_d68ev3c_c2_elabs_scored,openbind_d68ev3c_c2_elabs_scored_4.5plus,openbind_d68ev3c_c2_elabs,openbind_d68ev3c_c2_elabs_scored_5plus,syndirella_product,openbind_d68ev3c_c2_elabs_scored_top80percent,syndirella_placed

>  <smiles>  (924) 
Cc1cc(Br)cc(Cl)c1NC(=O)C1(S(=O)(=O)c2ccccc2)CCC1

>  <subsites>  (924) 
None

>  <rmsd(smina/fragmenstein)>  (924) 
2.99

>  <alias>  (924) 
None

>  <energy_score>  (924) 
-23.173165

>  <HIPPO Pose ID>  (924) 
94889

>  <distance_score>  (924) 
0.607717

>  <HIPPO Compound ID>  (924) 
128726

>  <gnina_score_min>  (924) 
5.053

>  <name>  (924) 
P94889

>  <exports>  (924) 
['/opt/xchem-fragalysis-2/maxwin/BulkDock/OUTPUTS/openbind_d68ev3c_c2_elabs_1LOTQJ3.sdf', '/opt/xchem-fragalysis-2/maxwin/BulkDock/OUTPUTS/openbind_d68ev3c_c2_elabs_1LSYI5W.sdf']

$$$$
P94892
     RDKit          3D

 25 27  0  0  0  0  0  0  0  0999 V2000
   13.9794   -4.1474   19.0663 C   0  0  0  0  0  0  0  0  0  0  0  0
   13.9708   -4.1326   17.5431 C   0  0  0  0  0  0  0  0  0  0  0  0
   13.5568   -2.8094   16.9297 C   0  0  0  0  0  0  0  0  0  0  0  0
   12.2916   -2.7133   16.3160 C   0  0  0  0  0  0  0  0  0  0  0  0
   11.8570   -1.4987   15.7808 C   0  0  0  0  0  0  0  0  0  0  0  0
   10.0863   -1.2614   15.1883 Br  0  0  0  0  0  0  0  0  0  0  0  0
   12.6921   -0.3929   15.7656 C   0  0  0  0  0  0  0  0  0  0  0  0
   13.9531   -0.4804   16.3431 C   0  0  0  0  0  0  0  0  0  0  0  0
   14.3812   -1.6653   16.9488 C   0  0  0  0  0  0  0  0  0  0  0  0
   15.6050   -1.6871   17.6128 N   0  0  0  0  0  0  0  0  0  0  0  0
   16.6925   -0.5815   17.7672 C   0  0  0  0  0  0  0  0  0  0  0  0
   16.7593    0.4910   17.2939 O   0  0  0  0  0  0  0  0  0  0  0  0
   17.7617   -1.0578   18.7995 C   0  0  0  0  0  0  0  0  0  0  0  0
   18.6005   -2.5079   18.1268 S   0  0  0  0  0  0  0  0  0  0  0  0
   19.8916   -2.6700   18.7690 O   0  0  0  0  0  0  0  0  0  0  0  0
   17.6344   -3.5983   18.1901 O   0  0  0  0  0  0  0  0  0  0  0  0
   18.9551   -2.2676   16.3967 C   0  0  0  0  0  0  0  0  0  0  0  0
   18.5840   -3.2499   15.4717 C   0  0  0  0  0  0  0  0  0  0  0  0
   18.8621   -3.0564   14.1187 C   0  0  0  0  0  0  0  0  0  0  0  0
   19.4942   -1.8867   13.6965 C   0  0  0  0  0  0  0  0  0  0  0  0
   19.8636   -0.9125   14.6247 C   0  0  0  0  0  0  0  0  0  0  0  0
   19.5998   -1.1007   15.9814 C   0  0  0  0  0  0  0  0  0  0  0  0
   17.2434   -1.2647   20.2614 C   0  0  0  0  0  0  0  0  0  0  0  0
   18.5288   -0.6085   20.7823 C   0  0  0  0  0  0  0  0  0  0  0  0
   18.7144    0.0281   19.3966 C   0  0  0  0  0  0  0  0  0  0  0  0
  1  2  1  0
  2  3  1  0
  3  4  2  0
  4  5  1  0
  5  6  1  0
  5  7  2  0
  7  8  1  0
  8  9  2  0
  9 10  1  0
 10 11  1  0
 11 12  2  0
 11 13  1  0
 13 14  1  0
 14 15  2  0
 14 16  2  0
 14 17  1  0
 17 18  2  0
 18 19  1  0
 19 20  2  0
 20 21  1  0
 21 22  2  0
 13 23  1  0
 23 24  1  0
 24 25  1  0
  9  3  1  0
 25 13  1  0
 22 17  1  0
M  END
>  <ref_mols>  (925) 
B1396a

>  <gnina_score>  (925) 
5.212

>  <smina_score_min>  (925) 
-2.959

>  <ref_pdb>  (925) 
B1396a

>  <inspiration_score>  (925) 
None

>  <inchikey>  (925) 
FWGCIBFCAGRFTJ-UHFFFAOYSA-N

>  <tags>  (925) 
BulkDock Fragalysis export,openbind_d68ev3c_c2_elabs_scored,openbind_d68ev3c_c2_elabs_scored_4.5plus,openbind_d68ev3c_c2_elabs,openbind_d68ev3c_c2_elabs_scored_5plus,syndirella_product,openbind_d68ev3c_c2_elabs_scored_top80percent,syndirella_placed

>  <smiles>  (925) 
CCc1cc(Br)ccc1NC(=O)C1(S(=O)(=O)c2ccccc2)CCC1

>  <subsites>  (925) 
None

>  <rmsd(smina/fragmenstein)>  (925) 
1.845

>  <alias>  (925) 
None

>  <energy_score>  (925) 
-37.420689

>  <HIPPO Pose ID>  (925) 
94892

>  <distance_score>  (925) 
0.637805

>  <HIPPO Compound ID>  (925) 
128730

>  <gnina_score_min>  (925) 
5.022

>  <name>  (925) 
P94892

>  <exports>  (925) 
['/opt/xchem-fragalysis-2/maxwin/BulkDock/OUTPUTS/openbind_d68ev3c_c2_elabs_1LOTQJ3.sdf', '/opt/xchem-fragalysis-2/maxwin/BulkDock/OUTPUTS/openbind_d68ev3c_c2_elabs_1LSYI5W.sdf']

$$$$
P94894
     RDKit          3D

 26 27  0  0  0  0  0  0  0  0999 V2000
   10.5923   -1.7797   14.8093 C   0  0  0  0  0  0  0  0  0  0  0  0
   11.8413   -1.7381   15.6223 C   0  0  0  0  0  0  0  0  0  0  0  0
   12.3398   -2.8799   16.2471 C   0  0  0  0  0  0  0  0  0  0  0  0
   13.5028   -2.8207   17.0341 C   0  0  0  0  0  0  0  0  0  0  0  0
   13.9827   -4.0986   17.6749 C   0  0  0  0  0  0  0  0  0  0  0  0
   14.1910   -1.5901   17.1757 C   0  0  0  0  0  0  0  0  0  0  0  0
   15.3908   -1.5978   17.9033 N   0  0  0  0  0  0  0  0  0  0  0  0
   16.6831   -0.7370   17.7362 C   0  0  0  0  0  0  0  0  0  0  0  0
   16.9101    0.1586   17.0170 O   0  0  0  0  0  0  0  0  0  0  0  0
   17.6809   -1.1826   18.7593 C   0  0  0  0  0  0  0  0  0  0  0  0
   18.5136   -2.6172   18.1943 S   0  0  0  0  0  0  0  0  0  0  0  0
   17.5461   -3.7005   18.2515 O   0  0  0  0  0  0  0  0  0  0  0  0
   19.7633   -2.7101   18.9235 O   0  0  0  0  0  0  0  0  0  0  0  0
   18.9395   -2.3557   16.4895 C   0  0  0  0  0  0  0  0  0  0  0  0
   18.5022   -3.2604   15.5180 C   0  0  0  0  0  0  0  0  0  0  0  0
   18.8518   -3.0544   14.1839 C   0  0  0  0  0  0  0  0  0  0  0  0
   19.6217   -1.9459   13.8245 C   0  0  0  0  0  0  0  0  0  0  0  0
   20.0648   -1.0325   14.7954 C   0  0  0  0  0  0  0  0  0  0  0  0
   20.9200    0.1454   14.3921 C   0  0  0  0  0  0  0  0  0  0  0  0
   22.2077   -0.2158   14.1382 F   0  0  0  0  0  0  0  0  0  0  0  0
   20.4736    0.7606   13.2622 F   0  0  0  0  0  0  0  0  0  0  0  0
   20.9854    1.1159   15.3455 F   0  0  0  0  0  0  0  0  0  0  0  0
   19.7301   -1.2553   16.1404 C   0  0  0  0  0  0  0  0  0  0  0  0
   13.6367   -0.4333   16.5981 C   0  0  0  0  0  0  0  0  0  0  0  0
   14.1789    1.3474   17.0020 Br  0  0  0  0  0  0  0  0  0  0  0  0
   12.4814   -0.5177   15.8181 C   0  0  0  0  0  0  0  0  0  0  0  0
  1  2  1  0
  2  3  2  0
  3  4  1  0
  4  5  1  0
  4  6  2  0
  6  7  1  0
  7  8  1  0
  8  9  2  0
  8 10  1  0
 10 11  1  0
 11 12  2  0
 11 13  2  0
 11 14  1  0
 14 15  2  0
 15 16  1  0
 16 17  2  0
 17 18  1  0
 18 19  1  0
 19 20  1  0
 19 21  1  0
 19 22  1  0
 18 23  2  0
  6 24  1  0
 24 25  1  0
 24 26  2  0
 26  2  1  0
 23 14  1  0
M  END
>  <ref_mols>  (926) 
B1396a

>  <gnina_score>  (926) 
5.078

>  <smina_score_min>  (926) 
-3.424

>  <ref_pdb>  (926) 
B1396a

>  <inspiration_score>  (926) 
None

>  <inchikey>  (926) 
YNTSWCYUJAOEQM-UHFFFAOYSA-N

>  <tags>  (926) 
BulkDock Fragalysis export,openbind_d68ev3c_c2_elabs_scored,openbind_d68ev3c_c2_elabs_scored_4.5plus,openbind_d68ev3c_c2_elabs,openbind_d68ev3c_c2_elabs_scored_5plus,syndirella_product,openbind_d68ev3c_c2_elabs_scored_top80percent,syndirella_placed

>  <smiles>  (926) 
Cc1cc(C)c(NC(=O)CS(=O)(=O)c2cccc(C(F)(F)F)c2)c(Br)c1

>  <subsites>  (926) 
None

>  <rmsd(smina/fragmenstein)>  (926) 
2.724

>  <alias>  (926) 
None

>  <energy_score>  (926) 
-34.835872

>  <HIPPO Pose ID>  (926) 
94894

>  <distance_score>  (926) 
0.535493

>  <HIPPO Compound ID>  (926) 
128733

>  <gnina_score_min>  (926) 
5.069

>  <name>  (926) 
P94894

>  <exports>  (926) 
['/opt/xchem-fragalysis-2/maxwin/BulkDock/OUTPUTS/openbind_d68ev3c_c2_elabs_1LOTQJ3.sdf', '/opt/xchem-fragalysis-2/maxwin/BulkDock/OUTPUTS/openbind_d68ev3c_c2_elabs_1LSYI5W.sdf']

$$$$
P94896
     RDKit          3D

 26 27  0  0  0  0  0  0  0  0999 V2000
   13.9243   -4.1643   17.7204 C   0  0  0  0  0  0  0  0  0  0  0  0
   13.3729   -3.0040   16.9307 C   0  0  0  0  0  0  0  0  0  0  0  0
   12.2014   -3.2230   16.1931 C   0  0  0  0  0  0  0  0  0  0  0  0
   11.6473   -2.2061   15.4388 C   0  0  0  0  0  0  0  0  0  0  0  0
   10.5131   -2.4335   14.7690 F   0  0  0  0  0  0  0  0  0  0  0  0
   12.2201   -0.9479   15.4177 C   0  0  0  0  0  0  0  0  0  0  0  0
   13.3898   -0.6890   16.1515 C   0  0  0  0  0  0  0  0  0  0  0  0
   13.8344    1.0441   16.2067 S   0  0  0  0  0  0  0  0  0  0  0  0
   13.9991   -1.7314   16.8932 C   0  0  0  0  0  0  0  0  0  0  0  0
   15.1873   -1.5998   17.6371 N   0  0  0  0  0  0  0  0  0  0  0  0
   16.4250   -0.6747   17.4147 C   0  0  0  0  0  0  0  0  0  0  0  0
   16.6082    0.1703   16.6250 O   0  0  0  0  0  0  0  0  0  0  0  0
   17.4288   -0.9685   18.4942 C   0  0  0  0  0  0  0  0  0  0  0  0
   18.3490   -2.4121   18.0986 S   0  0  0  0  0  0  0  0  0  0  0  0
   19.5585   -2.4015   18.8985 O   0  0  0  0  0  0  0  0  0  0  0  0
   17.4218   -3.5278   18.1880 O   0  0  0  0  0  0  0  0  0  0  0  0
   18.8546   -2.2500   16.4047 C   0  0  0  0  0  0  0  0  0  0  0  0
   18.4577   -3.2044   15.4647 C   0  0  0  0  0  0  0  0  0  0  0  0
   18.8592   -3.0633   14.1370 C   0  0  0  0  0  0  0  0  0  0  0  0
   19.6439   -1.9729   13.7534 C   0  0  0  0  0  0  0  0  0  0  0  0
   20.0506   -1.0128   14.6942 C   0  0  0  0  0  0  0  0  0  0  0  0
   20.9292    0.1418   14.2733 C   0  0  0  0  0  0  0  0  0  0  0  0
   22.2433   -0.2064   14.2111 F   0  0  0  0  0  0  0  0  0  0  0  0
   20.8635    1.2001   15.1291 F   0  0  0  0  0  0  0  0  0  0  0  0
   20.6108    0.6350   13.0454 F   0  0  0  0  0  0  0  0  0  0  0  0
   19.6610   -1.1683   16.0338 C   0  0  0  0  0  0  0  0  0  0  0  0
  1  2  1  0
  2  3  2  0
  3  4  1  0
  4  5  1  0
  4  6  2  0
  6  7  1  0
  7  8  1  0
  7  9  2  0
  9 10  1  0
 10 11  1  0
 11 12  2  0
 11 13  1  0
 13 14  1  0
 14 15  2  0
 14 16  2  0
 14 17  1  0
 17 18  2  0
 18 19  1  0
 19 20  2  0
 20 21  1  0
 21 22  1  0
 22 23  1  0
 22 24  1  0
 22 25  1  0
 21 26  2  0
  9  2  1  0
 26 17  1  0
M  END
>  <ref_mols>  (927) 
B1396a

>  <gnina_score>  (927) 
5.121

>  <smina_score_min>  (927) 
-3.537

>  <ref_pdb>  (927) 
B1396a

>  <inspiration_score>  (927) 
None

>  <inchikey>  (927) 
ZRYRVWLIVPOEAN-UHFFFAOYSA-N

>  <tags>  (927) 
BulkDock Fragalysis export,openbind_d68ev3c_c2_elabs_scored,openbind_d68ev3c_c2_elabs_scored_4.5plus,openbind_d68ev3c_c2_elabs,openbind_d68ev3c_c2_elabs_scored_5plus,syndirella_product,openbind_d68ev3c_c2_elabs_scored_top80percent,syndirella_placed

>  <smiles>  (927) 
Cc1cc(F)cc(S)c1NC(=O)CS(=O)(=O)c1cccc(C(F)(F)F)c1

>  <subsites>  (927) 
None

>  <rmsd(smina/fragmenstein)>  (927) 
2.263

>  <alias>  (927) 
None

>  <energy_score>  (927) 
-35.306492

>  <HIPPO Pose ID>  (927) 
94896

>  <distance_score>  (927) 
0.303745

>  <HIPPO Compound ID>  (927) 
128736

>  <gnina_score_min>  (927) 
5.131

>  <name>  (927) 
P94896

>  <exports>  (927) 
['/opt/xchem-fragalysis-2/maxwin/BulkDock/OUTPUTS/openbind_d68ev3c_c2_elabs_1LOTQJ3.sdf', '/opt/xchem-fragalysis-2/maxwin/BulkDock/OUTPUTS/openbind_d68ev3c_c2_elabs_1LSYI5W.sdf']

$$$$
P94902
     RDKit          3D

 26 28  0  0  0  0  0  0  0  0999 V2000
   19.9612   -1.5741   12.3704 C   0  0  0  0  0  0  0  0  0  0  0  0
   19.5096   -1.7424   13.7925 C   0  0  0  0  0  0  0  0  0  0  0  0
   20.2120   -1.1283   14.8366 C   0  0  0  0  0  0  0  0  0  0  0  0
   19.8119   -1.3082   16.1615 C   0  0  0  0  0  0  0  0  0  0  0  0
   18.6980   -2.1018   16.4424 C   0  0  0  0  0  0  0  0  0  0  0  0
   18.2122   -2.3503   18.1337 S   0  0  0  0  0  0  0  0  0  0  0  0
   19.4337   -2.4436   18.9124 O   0  0  0  0  0  0  0  0  0  0  0  0
   17.2703   -3.4597   18.1602 O   0  0  0  0  0  0  0  0  0  0  0  0
   17.3103   -0.8909   18.6295 C   0  0  0  0  0  0  0  0  0  0  0  0
   16.2599   -0.5493   17.5472 C   0  0  0  0  0  0  0  0  0  0  0  0
   16.3080    0.4695   16.9696 O   0  0  0  0  0  0  0  0  0  0  0  0
   15.2197   -1.7131   17.4617 N   0  0  0  0  0  0  0  0  0  0  0  0
   14.0251   -1.8101   16.7454 C   0  0  0  0  0  0  0  0  0  0  0  0
   13.5621   -0.7286   15.9892 C   0  0  0  0  0  0  0  0  0  0  0  0
   12.3754   -0.8353   15.2609 C   0  0  0  0  0  0  0  0  0  0  0  0
   11.6999    0.7824   14.1429 I   0  0  0  0  0  0  0  0  0  0  0  0
   11.6442   -2.0175   15.2717 C   0  0  0  0  0  0  0  0  0  0  0  0
   12.1022   -3.0953   16.0287 C   0  0  0  0  0  0  0  0  0  0  0  0
   13.2879   -3.0060   16.7779 C   0  0  0  0  0  0  0  0  0  0  0  0
   13.7262   -4.1946   17.5899 C   0  0  0  0  0  0  0  0  0  0  0  0
   16.6739   -1.0676   20.0176 C   0  0  0  0  0  0  0  0  0  0  0  0
   16.4231    0.3532   20.5107 C   0  0  0  0  0  0  0  0  0  0  0  0
   17.4880    1.2202   19.8466 C   0  0  0  0  0  0  0  0  0  0  0  0
   18.2510    0.3033   18.8903 C   0  0  0  0  0  0  0  0  0  0  0  0
   18.0099   -2.7523   15.4146 C   0  0  0  0  0  0  0  0  0  0  0  0
   18.4181   -2.5676   14.0920 C   0  0  0  0  0  0  0  0  0  0  0  0
  1  2  1  0
  2  3  2  0
  3  4  1  0
  4  5  2  0
  5  6  1  0
  6  7  2  0
  6  8  2  0
  6  9  1  0
  9 10  1  0
 10 11  2  0
 10 12  1  0
 12 13  1  0
 13 14  2  0
 14 15  1  0
 15 16  1  0
 15 17  2  0
 17 18  1  0
 18 19  2  0
 19 20  1  0
  9 21  1  0
 21 22  1  0
 22 23  1  0
 23 24  1  0
  5 25  1  0
 25 26  2  0
 26  2  1  0
 24  9  1  0
 19 13  1  0
M  END
>  <ref_mols>  (928) 
B1396a

>  <gnina_score>  (928) 
5.149

>  <smina_score_min>  (928) 
-4.031

>  <ref_pdb>  (928) 
B1396a

>  <inspiration_score>  (928) 
None

>  <inchikey>  (928) 
XTXKFMDZYGNPSS-UHFFFAOYSA-N

>  <tags>  (928) 
BulkDock Fragalysis export,openbind_d68ev3c_c2_elabs_scored,openbind_d68ev3c_c2_elabs_scored_4.5plus,openbind_d68ev3c_c2_elabs,openbind_d68ev3c_c2_elabs_scored_5plus,syndirella_product,openbind_d68ev3c_c2_elabs_scored_top80percent,syndirella_placed

>  <smiles>  (928) 
Cc1ccc(S(=O)(=O)C2(C(=O)Nc3cc(I)ccc3C)CCCC2)cc1

>  <subsites>  (928) 
None

>  <rmsd(smina/fragmenstein)>  (928) 
2.104

>  <alias>  (928) 
None

>  <energy_score>  (928) 
-43.883099

>  <HIPPO Pose ID>  (928) 
94902

>  <distance_score>  (928) 
0.402491

>  <HIPPO Compound ID>  (928) 
128742

>  <gnina_score_min>  (928) 
5.147

>  <name>  (928) 
P94902

>  <exports>  (928) 
['/opt/xchem-fragalysis-2/maxwin/BulkDock/OUTPUTS/openbind_d68ev3c_c2_elabs_1LOTQJ3.sdf', '/opt/xchem-fragalysis-2/maxwin/BulkDock/OUTPUTS/openbind_d68ev3c_c2_elabs_1LSYI5W.sdf']

$$$$
P94903
     RDKit          3D

 26 28  0  0  0  0  0  0  0  0999 V2000
   19.8170   -1.5897   12.3131 C   0  0  0  0  0  0  0  0  0  0  0  0
   19.4010   -1.7481   13.7471 C   0  0  0  0  0  0  0  0  0  0  0  0
   20.2059   -1.2494   14.7782 C   0  0  0  0  0  0  0  0  0  0  0  0
   19.8344   -1.4215   16.1125 C   0  0  0  0  0  0  0  0  0  0  0  0
   18.6461   -2.0884   16.4183 C   0  0  0  0  0  0  0  0  0  0  0  0
   18.2026   -2.3494   18.1220 S   0  0  0  0  0  0  0  0  0  0  0  0
   17.2693   -3.4658   18.1528 O   0  0  0  0  0  0  0  0  0  0  0  0
   19.4464   -2.4494   18.8635 O   0  0  0  0  0  0  0  0  0  0  0  0
   17.3032   -0.8973   18.6637 C   0  0  0  0  0  0  0  0  0  0  0  0
   16.2417   -0.5377   17.6065 C   0  0  0  0  0  0  0  0  0  0  0  0
   16.2928    0.4779   17.0237 O   0  0  0  0  0  0  0  0  0  0  0  0
   15.1549   -1.6629   17.5873 N   0  0  0  0  0  0  0  0  0  0  0  0
   14.0053   -1.8001   16.8047 C   0  0  0  0  0  0  0  0  0  0  0  0
   13.5527   -0.7349   16.0194 C   0  0  0  0  0  0  0  0  0  0  0  0
   12.3920   -0.8690   15.2556 C   0  0  0  0  0  0  0  0  0  0  0  0
   11.7804    0.5800   14.2056 Br  0  0  0  0  0  0  0  0  0  0  0  0
   11.6761   -2.0597   15.2582 C   0  0  0  0  0  0  0  0  0  0  0  0
   12.1263   -3.1233   16.0379 C   0  0  0  0  0  0  0  0  0  0  0  0
   13.2887   -3.0095   16.8199 C   0  0  0  0  0  0  0  0  0  0  0  0
   13.7242   -4.1889   17.6468 C   0  0  0  0  0  0  0  0  0  0  0  0
   16.6591   -1.1040   20.0471 C   0  0  0  0  0  0  0  0  0  0  0  0
   17.7630   -0.8321   21.0598 C   0  0  0  0  0  0  0  0  0  0  0  0
   18.7097    0.1553   20.3925 C   0  0  0  0  0  0  0  0  0  0  0  0
   18.2412    0.2951   18.9450 C   0  0  0  0  0  0  0  0  0  0  0  0
   17.8557   -2.6304   15.4010 C   0  0  0  0  0  0  0  0  0  0  0  0
   18.2337   -2.4523   14.0684 C   0  0  0  0  0  0  0  0  0  0  0  0
  1  2  1  0
  2  3  2  0
  3  4  1  0
  4  5  2  0
  5  6  1  0
  6  7  2  0
  6  8  2  0
  6  9  1  0
  9 10  1  0
 10 11  2  0
 10 12  1  0
 12 13  1  0
 13 14  2  0
 14 15  1  0
 15 16  1  0
 15 17  2  0
 17 18  1  0
 18 19  2  0
 19 20  1  0
  9 21  1  0
 21 22  1  0
 22 23  1  0
 23 24  1  0
  5 25  1  0
 25 26  2  0
 26  2  1  0
 24  9  1  0
 19 13  1  0
M  END
>  <ref_mols>  (929) 
B1396a

>  <gnina_score>  (929) 
5.079

>  <smina_score_min>  (929) 
-4.0

>  <ref_pdb>  (929) 
B1396a

>  <inspiration_score>  (929) 
None

>  <inchikey>  (929) 
NMXDLLRGSSIMGB-UHFFFAOYSA-N

>  <tags>  (929) 
BulkDock Fragalysis export,openbind_d68ev3c_c2_elabs_scored,openbind_d68ev3c_c2_elabs_scored_4.5plus,openbind_d68ev3c_c2_elabs,openbind_d68ev3c_c2_elabs_scored_5plus,syndirella_product,openbind_d68ev3c_c2_elabs_scored_top80percent,syndirella_placed

>  <smiles>  (929) 
Cc1ccc(S(=O)(=O)C2(C(=O)Nc3cc(Br)ccc3C)CCCC2)cc1

>  <subsites>  (929) 
None

>  <rmsd(smina/fragmenstein)>  (929) 
2.3

>  <alias>  (929) 
None

>  <energy_score>  (929) 
-37.307059

>  <HIPPO Pose ID>  (929) 
94903

>  <distance_score>  (929) 
0.429574

>  <HIPPO Compound ID>  (929) 
128743

>  <gnina_score_min>  (929) 
5.057

>  <name>  (929) 
P94903

>  <exports>  (929) 
['/opt/xchem-fragalysis-2/maxwin/BulkDock/OUTPUTS/openbind_d68ev3c_c2_elabs_1LOTQJ3.sdf', '/opt/xchem-fragalysis-2/maxwin/BulkDock/OUTPUTS/openbind_d68ev3c_c2_elabs_1LSYI5W.sdf']

$$$$
P94906
     RDKit          3D

 26 28  0  0  0  0  0  0  0  0999 V2000
   19.8784   -1.5705   12.3146 C   0  0  0  0  0  0  0  0  0  0  0  0
   19.4715   -1.7786   13.7449 C   0  0  0  0  0  0  0  0  0  0  0  0
   20.2290   -1.2266   14.7852 C   0  0  0  0  0  0  0  0  0  0  0  0
   19.8347   -1.3927   16.1136 C   0  0  0  0  0  0  0  0  0  0  0  0
   18.6606   -2.0917   16.4011 C   0  0  0  0  0  0  0  0  0  0  0  0
   18.1785   -2.3288   18.0950 S   0  0  0  0  0  0  0  0  0  0  0  0
   17.2115   -3.4155   18.1242 O   0  0  0  0  0  0  0  0  0  0  0  0
   19.3988   -2.4549   18.8718 O   0  0  0  0  0  0  0  0  0  0  0  0
   17.3217   -0.8350   18.5941 C   0  0  0  0  0  0  0  0  0  0  0  0
   16.2238   -0.4985   17.5554 C   0  0  0  0  0  0  0  0  0  0  0  0
   16.2445    0.5184   16.9723 O   0  0  0  0  0  0  0  0  0  0  0  0
   15.1572   -1.6433   17.5579 N   0  0  0  0  0  0  0  0  0  0  0  0
   13.9941   -1.8011   16.7989 C   0  0  0  0  0  0  0  0  0  0  0  0
   13.5170   -0.7497   16.0068 C   0  0  0  0  0  0  0  0  0  0  0  0
   12.3433   -0.8857   15.2494 C   0  0  0  0  0  0  0  0  0  0  0  0
   11.8673    0.2334   14.3704 C   0  0  0  0  0  0  0  0  0  0  0  0
   11.6607   -2.1013   15.2693 C   0  0  0  0  0  0  0  0  0  0  0  0
   12.1296   -3.1505   16.0587 C   0  0  0  0  0  0  0  0  0  0  0  0
   13.2929   -3.0164   16.8341 C   0  0  0  0  0  0  0  0  0  0  0  0
   13.7515   -4.1846   17.6629 C   0  0  0  0  0  0  0  0  0  0  0  0
   16.6962   -0.9917   20.0066 C   0  0  0  0  0  0  0  0  0  0  0  0
   17.4249   -0.0040   20.9115 C   0  0  0  0  0  0  0  0  0  0  0  0
   17.8361    1.1102   19.9711 C   0  0  0  0  0  0  0  0  0  0  0  0
   18.3208    0.3454   18.7488 C   0  0  0  0  0  0  0  0  0  0  0  0
   17.8993   -2.6570   15.3746 C   0  0  0  0  0  0  0  0  0  0  0  0
   18.3008   -2.4853   14.0484 C   0  0  0  0  0  0  0  0  0  0  0  0
  1  2  1  0
  2  3  2  0
  3  4  1  0
  4  5  2  0
  5  6  1  0
  6  7  2  0
  6  8  2  0
  6  9  1  0
  9 10  1  0
 10 11  2  0
 10 12  1  0
 12 13  1  0
 13 14  2  0
 14 15  1  0
 15 16  1  0
 15 17  2  0
 17 18  1  0
 18 19  2  0
 19 20  1  0
  9 21  1  0
 21 22  1  0
 22 23  1  0
 23 24  1  0
  5 25  1  0
 25 26  2  0
 26  2  1  0
 24  9  1  0
 19 13  1  0
M  END
>  <ref_mols>  (930) 
B1396a

>  <gnina_score>  (930) 
5.01

>  <smina_score_min>  (930) 
-3.991

>  <ref_pdb>  (930) 
B1396a

>  <inspiration_score>  (930) 
None

>  <inchikey>  (930) 
ARCKHZSXFWIFPC-UHFFFAOYSA-N

>  <tags>  (930) 
BulkDock Fragalysis export,openbind_d68ev3c_c2_elabs_scored,openbind_d68ev3c_c2_elabs_scored_4.5plus,openbind_d68ev3c_c2_elabs,openbind_d68ev3c_c2_elabs_scored_5plus,syndirella_product,openbind_d68ev3c_c2_elabs_scored_top80percent,syndirella_placed

>  <smiles>  (930) 
Cc1ccc(S(=O)(=O)C2(C(=O)Nc3cc(C)ccc3C)CCCC2)cc1

>  <subsites>  (930) 
None

>  <rmsd(smina/fragmenstein)>  (930) 
2.057

>  <alias>  (930) 
None

>  <energy_score>  (930) 
-43.001758

>  <HIPPO Pose ID>  (930) 
94906

>  <distance_score>  (930) 
0.423654

>  <HIPPO Compound ID>  (930) 
128747

>  <gnina_score_min>  (930) 
5.005

>  <name>  (930) 
P94906

>  <exports>  (930) 
['/opt/xchem-fragalysis-2/maxwin/BulkDock/OUTPUTS/openbind_d68ev3c_c2_elabs_1LOTQJ3.sdf', '/opt/xchem-fragalysis-2/maxwin/BulkDock/OUTPUTS/openbind_d68ev3c_c2_elabs_1LSYI5W.sdf']

$$$$
P94911
     RDKit          3D

 26 28  0  0  0  0  0  0  0  0999 V2000
   19.8823   -1.5519   12.3247 C   0  0  0  0  0  0  0  0  0  0  0  0
   19.4786   -1.7700   13.7545 C   0  0  0  0  0  0  0  0  0  0  0  0
   20.2284   -1.2101   14.7962 C   0  0  0  0  0  0  0  0  0  0  0  0
   19.8363   -1.3845   16.1242 C   0  0  0  0  0  0  0  0  0  0  0  0
   18.6718   -2.0997   16.4099 C   0  0  0  0  0  0  0  0  0  0  0  0
   18.1908   -2.3446   18.1030 S   0  0  0  0  0  0  0  0  0  0  0  0
   17.2173   -3.4262   18.1260 O   0  0  0  0  0  0  0  0  0  0  0  0
   19.4108   -2.4818   18.8778 O   0  0  0  0  0  0  0  0  0  0  0  0
   17.3399   -0.8516   18.6128 C   0  0  0  0  0  0  0  0  0  0  0  0
   16.2462   -0.5041   17.5735 C   0  0  0  0  0  0  0  0  0  0  0  0
   16.2726    0.5167   16.9981 O   0  0  0  0  0  0  0  0  0  0  0  0
   15.1752   -1.6447   17.5642 N   0  0  0  0  0  0  0  0  0  0  0  0
   14.0138   -1.7924   16.8004 C   0  0  0  0  0  0  0  0  0  0  0  0
   13.5447   -0.7311   16.0189 C   0  0  0  0  0  0  0  0  0  0  0  0
   12.3790   -0.8732   15.2654 C   0  0  0  0  0  0  0  0  0  0  0  0
   11.8040    0.4416   14.3151 Cl  0  0  0  0  0  0  0  0  0  0  0  0
   11.6726   -2.0693   15.2755 C   0  0  0  0  0  0  0  0  0  0  0  0
   12.1358   -3.1288   16.0536 C   0  0  0  0  0  0  0  0  0  0  0  0
   13.3039   -3.0055   16.8260 C   0  0  0  0  0  0  0  0  0  0  0  0
   13.7540   -4.1806   17.6511 C   0  0  0  0  0  0  0  0  0  0  0  0
   18.3427    0.3237   18.7794 C   0  0  0  0  0  0  0  0  0  0  0  0
   17.8554    1.0825   20.0044 C   0  0  0  0  0  0  0  0  0  0  0  0
   17.4372   -0.0363   20.9362 C   0  0  0  0  0  0  0  0  0  0  0  0
   16.7099   -1.0168   20.0223 C   0  0  0  0  0  0  0  0  0  0  0  0
   17.9185   -2.6733   15.3819 C   0  0  0  0  0  0  0  0  0  0  0  0
   18.3179   -2.4937   14.0561 C   0  0  0  0  0  0  0  0  0  0  0  0
  1  2  1  0
  2  3  2  0
  3  4  1  0
  4  5  2  0
  5  6  1  0
  6  7  2  0
  6  8  2  0
  6  9  1  0
  9 10  1  0
 10 11  2  0
 10 12  1  0
 12 13  1  0
 13 14  2  0
 14 15  1  0
 15 16  1  0
 15 17  2  0
 17 18  1  0
 18 19  2  0
 19 20  1  0
  9 21  1  0
 21 22  1  0
 22 23  1  0
 23 24  1  0
  5 25  1  0
 25 26  2  0
 26  2  1  0
 24  9  1  0
 19 13  1  0
M  END
>  <ref_mols>  (931) 
B1396a

>  <gnina_score>  (931) 
5.127

>  <smina_score_min>  (931) 
-3.971

>  <ref_pdb>  (931) 
B1396a

>  <inspiration_score>  (931) 
None

>  <inchikey>  (931) 
WAAVAFDSRDOWCS-UHFFFAOYSA-N

>  <tags>  (931) 
BulkDock Fragalysis export,openbind_d68ev3c_c2_elabs_scored,openbind_d68ev3c_c2_elabs_scored_4.5plus,openbind_d68ev3c_c2_elabs,openbind_d68ev3c_c2_elabs_scored_5plus,syndirella_product,openbind_d68ev3c_c2_elabs_scored_top80percent,syndirella_placed

>  <smiles>  (931) 
Cc1ccc(S(=O)(=O)C2(C(=O)Nc3cc(Cl)ccc3C)CCCC2)cc1

>  <subsites>  (931) 
None

>  <rmsd(smina/fragmenstein)>  (931) 
2.193

>  <alias>  (931) 
None

>  <energy_score>  (931) 
-31.318321

>  <HIPPO Pose ID>  (931) 
94911

>  <distance_score>  (931) 
0.427223

>  <HIPPO Compound ID>  (931) 
128752

>  <gnina_score_min>  (931) 
5.044

>  <name>  (931) 
P94911

>  <exports>  (931) 
['/opt/xchem-fragalysis-2/maxwin/BulkDock/OUTPUTS/openbind_d68ev3c_c2_elabs_1LOTQJ3.sdf', '/opt/xchem-fragalysis-2/maxwin/BulkDock/OUTPUTS/openbind_d68ev3c_c2_elabs_1LSYI5W.sdf']

$$$$
P94913
     RDKit          3D

 26 28  0  0  0  0  0  0  0  0999 V2000
   19.8251   -1.4677   12.3338 C   0  0  0  0  0  0  0  0  0  0  0  0
   19.4597   -1.6995   13.7717 C   0  0  0  0  0  0  0  0  0  0  0  0
   20.2578   -1.1799   14.7985 C   0  0  0  0  0  0  0  0  0  0  0  0
   19.9395   -1.4222   16.1357 C   0  0  0  0  0  0  0  0  0  0  0  0
   18.8118   -2.1832   16.4475 C   0  0  0  0  0  0  0  0  0  0  0  0
   18.4288   -2.5218   18.1496 S   0  0  0  0  0  0  0  0  0  0  0  0
   19.6875   -2.7456   18.8354 O   0  0  0  0  0  0  0  0  0  0  0  0
   17.4162   -3.5676   18.1650 O   0  0  0  0  0  0  0  0  0  0  0  0
   17.6656   -1.0477   18.8104 C   0  0  0  0  0  0  0  0  0  0  0  0
   16.5561   -0.5784   17.8448 C   0  0  0  0  0  0  0  0  0  0  0  0
   16.5946    0.4936   17.3709 O   0  0  0  0  0  0  0  0  0  0  0  0
   15.4544   -1.6876   17.7547 N   0  0  0  0  0  0  0  0  0  0  0  0
   14.2727   -1.7314   17.0154 C   0  0  0  0  0  0  0  0  0  0  0  0
   13.8301   -0.5725   16.3686 C   0  0  0  0  0  0  0  0  0  0  0  0
   12.6005   -0.5474   15.7181 C   0  0  0  0  0  0  0  0  0  0  0  0
   11.8157   -1.6896   15.7018 C   0  0  0  0  0  0  0  0  0  0  0  0
   10.2318   -1.5825   15.0664 Cl  0  0  0  0  0  0  0  0  0  0  0  0
   12.2697   -2.8738   16.2797 C   0  0  0  0  0  0  0  0  0  0  0  0
   13.4994   -2.9055   16.9599 C   0  0  0  0  0  0  0  0  0  0  0  0
   13.9174   -4.1788   17.6429 C   0  0  0  0  0  0  0  0  0  0  0  0
   17.0733   -1.3015   20.2232 C   0  0  0  0  0  0  0  0  0  0  0  0
   17.8530   -0.4100   21.1844 C   0  0  0  0  0  0  0  0  0  0  0  0
   18.2886    0.7579   20.3237 C   0  0  0  0  0  0  0  0  0  0  0  0
   18.7180    0.0727   19.0353 C   0  0  0  0  0  0  0  0  0  0  0  0
   18.0254   -2.7377   15.4332 C   0  0  0  0  0  0  0  0  0  0  0  0
   18.3521   -2.4919   14.0982 C   0  0  0  0  0  0  0  0  0  0  0  0
  1  2  1  0
  2  3  2  0
  3  4  1  0
  4  5  2  0
  5  6  1  0
  6  7  2  0
  6  8  2  0
  6  9  1  0
  9 10  1  0
 10 11  2  0
 10 12  1  0
 12 13  1  0
 13 14  2  0
 14 15  1  0
 15 16  2  0
 16 17  1  0
 16 18  1  0
 18 19  2  0
 19 20  1  0
  9 21  1  0
 21 22  1  0
 22 23  1  0
 23 24  1  0
  5 25  1  0
 25 26  2  0
 26  2  1  0
 24  9  1  0
 19 13  1  0
M  END
>  <ref_mols>  (932) 
B1396a

>  <gnina_score>  (932) 
5.319

>  <smina_score_min>  (932) 
-3.307

>  <ref_pdb>  (932) 
B1396a

>  <inspiration_score>  (932) 
None

>  <inchikey>  (932) 
CXVWTLPXOXZZFF-UHFFFAOYSA-N

>  <tags>  (932) 
BulkDock Fragalysis export,openbind_d68ev3c_c2_elabs_scored,openbind_d68ev3c_c2_elabs_scored_4.5plus,openbind_d68ev3c_c2_elabs,openbind_d68ev3c_c2_elabs_scored_5plus,syndirella_product,openbind_d68ev3c_c2_elabs_scored_top80percent,syndirella_placed

>  <smiles>  (932) 
Cc1ccc(S(=O)(=O)C2(C(=O)Nc3ccc(Cl)cc3C)CCCC2)cc1

>  <subsites>  (932) 
None

>  <rmsd(smina/fragmenstein)>  (932) 
1.782

>  <alias>  (932) 
None

>  <energy_score>  (932) 
-34.852949

>  <HIPPO Pose ID>  (932) 
94913

>  <distance_score>  (932) 
0.588156

>  <HIPPO Compound ID>  (932) 
128754

>  <gnina_score_min>  (932) 
5.086

>  <name>  (932) 
P94913

>  <exports>  (932) 
['/opt/xchem-fragalysis-2/maxwin/BulkDock/OUTPUTS/openbind_d68ev3c_c2_elabs_1LOTQJ3.sdf', '/opt/xchem-fragalysis-2/maxwin/BulkDock/OUTPUTS/openbind_d68ev3c_c2_elabs_1LSYI5W.sdf']

$$$$
P94917
     RDKit          3D

 26 28  0  0  0  0  0  0  0  0999 V2000
   19.8496   -1.6462   12.2705 C   0  0  0  0  0  0  0  0  0  0  0  0
   19.4735   -1.7513   13.7204 C   0  0  0  0  0  0  0  0  0  0  0  0
   20.2215   -1.0839   14.6971 C   0  0  0  0  0  0  0  0  0  0  0  0
   19.8905   -1.2063   16.0469 C   0  0  0  0  0  0  0  0  0  0  0  0
   18.8012   -1.9957   16.4220 C   0  0  0  0  0  0  0  0  0  0  0  0
   18.4077   -2.1635   18.1453 S   0  0  0  0  0  0  0  0  0  0  0  0
   17.5157   -3.2990   18.2898 O   0  0  0  0  0  0  0  0  0  0  0  0
   19.6658   -2.1695   18.8706 O   0  0  0  0  0  0  0  0  0  0  0  0
   17.4806   -0.7021   18.6013 C   0  0  0  0  0  0  0  0  0  0  0  0
   16.3354   -0.4586   17.5862 C   0  0  0  0  0  0  0  0  0  0  0  0
   16.2729    0.5552   16.9999 O   0  0  0  0  0  0  0  0  0  0  0  0
   15.3513   -1.6759   17.6138 N   0  0  0  0  0  0  0  0  0  0  0  0
   14.1853   -1.9181   16.8783 C   0  0  0  0  0  0  0  0  0  0  0  0
   13.7514   -0.9818   15.9312 C   0  0  0  0  0  0  0  0  0  0  0  0
   12.5923   -1.1983   15.1812 C   0  0  0  0  0  0  0  0  0  0  0  0
   11.8600   -2.3640   15.3579 C   0  0  0  0  0  0  0  0  0  0  0  0
   12.2790   -3.2994   16.3028 C   0  0  0  0  0  0  0  0  0  0  0  0
   13.4284   -3.0856   17.0909 C   0  0  0  0  0  0  0  0  0  0  0  0
   13.7658   -4.1021   18.1544 C   0  0  0  0  0  0  0  0  0  0  0  0
   15.0499   -5.2682   17.6603 S   0  0  0  0  0  0  0  0  0  0  0  0
   18.4147    0.5383   18.6861 C   0  0  0  0  0  0  0  0  0  0  0  0
   17.9041    1.3318   19.8792 C   0  0  0  0  0  0  0  0  0  0  0  0
   17.5747    0.2420   20.8782 C   0  0  0  0  0  0  0  0  0  0  0  0
   16.8963   -0.8328   20.0352 C   0  0  0  0  0  0  0  0  0  0  0  0
   18.0698   -2.7006   15.4629 C   0  0  0  0  0  0  0  0  0  0  0  0
   18.4085   -2.5717   14.1141 C   0  0  0  0  0  0  0  0  0  0  0  0
  1  2  1  0
  2  3  2  0
  3  4  1  0
  4  5  2  0
  5  6  1  0
  6  7  2  0
  6  8  2  0
  6  9  1  0
  9 10  1  0
 10 11  2  0
 10 12  1  0
 12 13  1  0
 13 14  2  0
 14 15  1  0
 15 16  2  0
 16 17  1  0
 17 18  2  0
 18 19  1  0
 19 20  1  0
  9 21  1  0
 21 22  1  0
 22 23  1  0
 23 24  1  0
  5 25  1  0
 25 26  2  0
 26  2  1  0
 24  9  1  0
 18 13  1  0
M  END
>  <ref_mols>  (933) 
B1396a

>  <gnina_score>  (933) 
5.088

>  <smina_score_min>  (933) 
-3.164

>  <ref_pdb>  (933) 
B1396a

>  <inspiration_score>  (933) 
None

>  <inchikey>  (933) 
IUKRZURKFIPCDD-UHFFFAOYSA-N

>  <tags>  (933) 
BulkDock Fragalysis export,openbind_d68ev3c_c2_elabs_scored,openbind_d68ev3c_c2_elabs_scored_4.5plus,openbind_d68ev3c_c2_elabs,openbind_d68ev3c_c2_elabs_scored_5plus,syndirella_product,openbind_d68ev3c_c2_elabs_scored_top80percent,syndirella_placed

>  <smiles>  (933) 
Cc1ccc(S(=O)(=O)C2(C(=O)Nc3ccccc3CS)CCCC2)cc1

>  <subsites>  (933) 
None

>  <rmsd(smina/fragmenstein)>  (933) 
2.202

>  <alias>  (933) 
None

>  <energy_score>  (933) 
-52.340896

>  <HIPPO Pose ID>  (933) 
94917

>  <distance_score>  (933) 
0.515455

>  <HIPPO Compound ID>  (933) 
128759

>  <gnina_score_min>  (933) 
5.137

>  <name>  (933) 
P94917

>  <exports>  (933) 
['/opt/xchem-fragalysis-2/maxwin/BulkDock/OUTPUTS/openbind_d68ev3c_c2_elabs_1LOTQJ3.sdf', '/opt/xchem-fragalysis-2/maxwin/BulkDock/OUTPUTS/openbind_d68ev3c_c2_elabs_1LSYI5W.sdf']

$$$$
P94927
     RDKit          3D

 26 28  0  0  0  0  0  0  0  0999 V2000
   19.8633   -1.6102   12.3034 C   0  0  0  0  0  0  0  0  0  0  0  0
   19.4656   -1.7636   13.7431 C   0  0  0  0  0  0  0  0  0  0  0  0
   20.2712   -1.2398   14.7610 C   0  0  0  0  0  0  0  0  0  0  0  0
   19.9184   -1.4075   16.1011 C   0  0  0  0  0  0  0  0  0  0  0  0
   18.7469   -2.0938   16.4264 C   0  0  0  0  0  0  0  0  0  0  0  0
   18.3196   -2.3399   18.1366 S   0  0  0  0  0  0  0  0  0  0  0  0
   17.4008   -3.4681   18.1890 O   0  0  0  0  0  0  0  0  0  0  0  0
   19.5646   -2.4095   18.8798 O   0  0  0  0  0  0  0  0  0  0  0  0
   17.4024   -0.8870   18.6714 C   0  0  0  0  0  0  0  0  0  0  0  0
   16.3307   -0.5637   17.6083 C   0  0  0  0  0  0  0  0  0  0  0  0
   16.3518    0.4482   17.0173 O   0  0  0  0  0  0  0  0  0  0  0  0
   15.3110   -1.7486   17.5516 N   0  0  0  0  0  0  0  0  0  0  0  0
   14.1108   -1.8768   16.8539 C   0  0  0  0  0  0  0  0  0  0  0  0
   13.6071   -0.8069   16.1034 C   0  0  0  0  0  0  0  0  0  0  0  0
   12.3975   -0.9296   15.4172 C   0  0  0  0  0  0  0  0  0  0  0  0
   11.7016   -2.1253   15.4781 C   0  0  0  0  0  0  0  0  0  0  0  0
   10.5271   -2.2447   14.8501 F   0  0  0  0  0  0  0  0  0  0  0  0
   12.1928   -3.1991   16.2079 C   0  0  0  0  0  0  0  0  0  0  0  0
   13.4019   -3.0903   16.9095 C   0  0  0  0  0  0  0  0  0  0  0  0
   13.8878   -4.2731   17.7007 C   0  0  0  0  0  0  0  0  0  0  0  0
   18.3544    0.3163   18.9084 C   0  0  0  0  0  0  0  0  0  0  0  0
   18.5899    0.3611   20.4113 C   0  0  0  0  0  0  0  0  0  0  0  0
   17.2324   -0.0041   20.9702 C   0  0  0  0  0  0  0  0  0  0  0  0
   16.7583   -1.1359   20.0654 C   0  0  0  0  0  0  0  0  0  0  0  0
   17.9579   -2.6624   15.4219 C   0  0  0  0  0  0  0  0  0  0  0  0
   18.3175   -2.4894   14.0836 C   0  0  0  0  0  0  0  0  0  0  0  0
  1  2  1  0
  2  3  2  0
  3  4  1  0
  4  5  2  0
  5  6  1  0
  6  7  2  0
  6  8  2  0
  6  9  1  0
  9 10  1  0
 10 11  2  0
 10 12  1  0
 12 13  1  0
 13 14  2  0
 14 15  1  0
 15 16  2  0
 16 17  1  0
 16 18  1  0
 18 19  2  0
 19 20  1  0
  9 21  1  0
 21 22  1  0
 22 23  1  0
 23 24  1  0
  5 25  1  0
 25 26  2  0
 26  2  1  0
 24  9  1  0
 19 13  1  0
M  END
>  <ref_mols>  (934) 
B1396a

>  <gnina_score>  (934) 
5.022

>  <smina_score_min>  (934) 
-3.66

>  <ref_pdb>  (934) 
B1396a

>  <inspiration_score>  (934) 
None

>  <inchikey>  (934) 
OABYVLLDGBKUFP-UHFFFAOYSA-N

>  <tags>  (934) 
BulkDock Fragalysis export,openbind_d68ev3c_c2_elabs_scored,openbind_d68ev3c_c2_elabs_scored_4.5plus,openbind_d68ev3c_c2_elabs,openbind_d68ev3c_c2_elabs_scored_5plus,syndirella_product,openbind_d68ev3c_c2_elabs_scored_top80percent,syndirella_placed

>  <smiles>  (934) 
Cc1ccc(S(=O)(=O)C2(C(=O)Nc3ccc(F)cc3C)CCCC2)cc1

>  <subsites>  (934) 
None

>  <rmsd(smina/fragmenstein)>  (934) 
1.454

>  <alias>  (934) 
None

>  <energy_score>  (934) 
-32.302858

>  <HIPPO Pose ID>  (934) 
94927

>  <distance_score>  (934) 
0.427856

>  <HIPPO Compound ID>  (934) 
128769

>  <gnina_score_min>  (934) 
5.02

>  <name>  (934) 
P94927

>  <exports>  (934) 
['/opt/xchem-fragalysis-2/maxwin/BulkDock/OUTPUTS/openbind_d68ev3c_c2_elabs_1LOTQJ3.sdf', '/opt/xchem-fragalysis-2/maxwin/BulkDock/OUTPUTS/openbind_d68ev3c_c2_elabs_1LSYI5W.sdf']

$$$$
P94929
     RDKit          3D

 26 28  0  0  0  0  0  0  0  0999 V2000
   20.0303   -1.7945   12.3243 C   0  0  0  0  0  0  0  0  0  0  0  0
   19.5659   -1.9176   13.7468 C   0  0  0  0  0  0  0  0  0  0  0  0
   18.3894   -2.6174   14.0457 C   0  0  0  0  0  0  0  0  0  0  0  0
   17.9629   -2.7599   15.3679 C   0  0  0  0  0  0  0  0  0  0  0  0
   18.7177   -2.1882   16.3948 C   0  0  0  0  0  0  0  0  0  0  0  0
   18.1809   -2.3361   18.0834 S   0  0  0  0  0  0  0  0  0  0  0  0
   19.3771   -2.4498   18.8990 O   0  0  0  0  0  0  0  0  0  0  0  0
   17.1832   -3.3922   18.1425 O   0  0  0  0  0  0  0  0  0  0  0  0
   17.3575   -0.8021   18.4726 C   0  0  0  0  0  0  0  0  0  0  0  0
   16.3197   -0.5233   17.3593 C   0  0  0  0  0  0  0  0  0  0  0  0
   16.5009    0.3423   16.5900 O   0  0  0  0  0  0  0  0  0  0  0  0
   15.0856   -1.4668   17.5513 N   0  0  0  0  0  0  0  0  0  0  0  0
   13.9018   -1.5916   16.7941 C   0  0  0  0  0  0  0  0  0  0  0  0
   13.2873   -2.8720   16.7951 C   0  0  0  0  0  0  0  0  0  0  0  0
   13.8284   -4.0361   17.5908 C   0  0  0  0  0  0  0  0  0  0  0  0
   12.1429   -3.1063   16.0098 C   0  0  0  0  0  0  0  0  0  0  0  0
   11.5844   -2.0997   15.2366 C   0  0  0  0  0  0  0  0  0  0  0  0
   12.1365   -0.8277   15.2798 C   0  0  0  0  0  0  0  0  0  0  0  0
   13.2704   -0.5583   16.0700 C   0  0  0  0  0  0  0  0  0  0  0  0
   13.6503    1.5109   16.2680 I   0  0  0  0  0  0  0  0  0  0  0  0
   16.7741   -0.8013   19.8941 C   0  0  0  0  0  0  0  0  0  0  0  0
   16.5901    0.6738   20.2353 C   0  0  0  0  0  0  0  0  0  0  0  0
   17.6494    1.4221   19.4326 C   0  0  0  0  0  0  0  0  0  0  0  0
   18.3615    0.3670   18.5870 C   0  0  0  0  0  0  0  0  0  0  0  0
   19.9137   -1.5234   16.1149 C   0  0  0  0  0  0  0  0  0  0  0  0
   20.3322   -1.3870   14.7911 C   0  0  0  0  0  0  0  0  0  0  0  0
  1  2  1  0
  2  3  2  0
  3  4  1  0
  4  5  2  0
  5  6  1  0
  6  7  2  0
  6  8  2  0
  6  9  1  0
  9 10  1  0
 10 11  2  0
 10 12  1  0
 12 13  1  0
 13 14  2  0
 14 15  1  0
 14 16  1  0
 16 17  2  0
 17 18  1  0
 18 19  2  0
 19 20  1  0
  9 21  1  0
 21 22  1  0
 22 23  1  0
 23 24  1  0
  5 25  1  0
 25 26  2  0
 26  2  1  0
 24  9  1  0
 19 13  1  0
M  END
>  <ref_mols>  (935) 
B1396a

>  <gnina_score>  (935) 
5.065

>  <smina_score_min>  (935) 
-3.941

>  <ref_pdb>  (935) 
B1396a

>  <inspiration_score>  (935) 
None

>  <inchikey>  (935) 
PHTCJDAZYWRMTJ-UHFFFAOYSA-N

>  <tags>  (935) 
BulkDock Fragalysis export,openbind_d68ev3c_c2_elabs_scored,openbind_d68ev3c_c2_elabs_scored_4.5plus,openbind_d68ev3c_c2_elabs,openbind_d68ev3c_c2_elabs_scored_5plus,syndirella_product,openbind_d68ev3c_c2_elabs_scored_top80percent,syndirella_placed

>  <smiles>  (935) 
Cc1ccc(S(=O)(=O)C2(C(=O)Nc3c(C)cccc3I)CCCC2)cc1

>  <subsites>  (935) 
None

>  <rmsd(smina/fragmenstein)>  (935) 
2.424

>  <alias>  (935) 
None

>  <energy_score>  (935) 
-43.863195

>  <HIPPO Pose ID>  (935) 
94929

>  <distance_score>  (935) 
0.387854

>  <HIPPO Compound ID>  (935) 
128771

>  <gnina_score_min>  (935) 
5.039

>  <name>  (935) 
P94929

>  <exports>  (935) 
['/opt/xchem-fragalysis-2/maxwin/BulkDock/OUTPUTS/openbind_d68ev3c_c2_elabs_1LOTQJ3.sdf', '/opt/xchem-fragalysis-2/maxwin/BulkDock/OUTPUTS/openbind_d68ev3c_c2_elabs_1LSYI5W.sdf']

$$$$
P94933
     RDKit          3D

 26 28  0  0  0  0  0  0  0  0999 V2000
   13.8308   -4.0844   17.5632 C   0  0  0  0  0  0  0  0  0  0  0  0
   13.4940   -2.7689   16.9176 C   0  0  0  0  0  0  0  0  0  0  0  0
   14.3301   -1.6439   17.0137 C   0  0  0  0  0  0  0  0  0  0  0  0
   15.4925   -1.6881   17.7821 N   0  0  0  0  0  0  0  0  0  0  0  0
   16.6037   -0.6158   18.0001 C   0  0  0  0  0  0  0  0  0  0  0  0
   16.6713    0.4962   17.6277 O   0  0  0  0  0  0  0  0  0  0  0  0
   17.7044   -1.1787   18.9568 C   0  0  0  0  0  0  0  0  0  0  0  0
   18.4968   -2.5917   18.1759 S   0  0  0  0  0  0  0  0  0  0  0  0
   17.5084   -3.6619   18.1658 O   0  0  0  0  0  0  0  0  0  0  0  0
   19.7860   -2.8288   18.7986 O   0  0  0  0  0  0  0  0  0  0  0  0
   18.8634   -2.2397   16.4670 C   0  0  0  0  0  0  0  0  0  0  0  0
   19.5768   -1.0831   16.1433 C   0  0  0  0  0  0  0  0  0  0  0  0
   19.8807   -0.8198   14.8058 C   0  0  0  0  0  0  0  0  0  0  0  0
   19.4807   -1.7116   13.8097 C   0  0  0  0  0  0  0  0  0  0  0  0
   19.8714   -1.3823   12.1678 Cl  0  0  0  0  0  0  0  0  0  0  0  0
   18.7766   -2.8706   14.1367 C   0  0  0  0  0  0  0  0  0  0  0  0
   18.4612   -3.1382   15.4711 C   0  0  0  0  0  0  0  0  0  0  0  0
   18.7027   -0.1416   19.5796 C   0  0  0  0  0  0  0  0  0  0  0  0
   17.7661   -0.0595   20.7978 C   0  0  0  0  0  0  0  0  0  0  0  0
   17.2642   -1.4667   20.4315 C   0  0  0  0  0  0  0  0  0  0  0  0
   13.9611   -0.4422   16.3975 C   0  0  0  0  0  0  0  0  0  0  0  0
   12.7248   -0.3109   15.7714 C   0  0  0  0  0  0  0  0  0  0  0  0
   11.8617   -1.3945   15.7394 C   0  0  0  0  0  0  0  0  0  0  0  0
   10.0942   -1.0971   15.1601 Br  0  0  0  0  0  0  0  0  0  0  0  0
   12.2678   -2.6246   16.2537 C   0  0  0  0  0  0  0  0  0  0  0  0
   11.4462   -3.6783   16.1713 F   0  0  0  0  0  0  0  0  0  0  0  0
  1  2  1  0
  2  3  2  0
  3  4  1  0
  4  5  1  0
  5  6  2  0
  5  7  1  0
  7  8  1  0
  8  9  2  0
  8 10  2  0
  8 11  1  0
 11 12  2  0
 12 13  1  0
 13 14  2  0
 14 15  1  0
 14 16  1  0
 16 17  2  0
  7 18  1  0
 18 19  1  0
 19 20  1  0
  3 21  1  0
 21 22  2  0
 22 23  1  0
 23 24  1  0
 23 25  2  0
 25 26  1  0
 25  2  1  0
 20  7  1  0
 17 11  1  0
M  END
>  <ref_mols>  (936) 
B1396a

>  <gnina_score>  (936) 
5.551

>  <smina_score_min>  (936) 
-3.849

>  <ref_pdb>  (936) 
B1396a

>  <inspiration_score>  (936) 
None

>  <inchikey>  (936) 
VKVONFVNTAFKGP-UHFFFAOYSA-N

>  <tags>  (936) 
BulkDock Fragalysis export,openbind_d68ev3c_c2_elabs_scored,openbind_d68ev3c_c2_elabs_scored_4.5plus,openbind_d68ev3c_c2_elabs,openbind_d68ev3c_c2_elabs_scored_5plus,syndirella_product,openbind_d68ev3c_c2_elabs_scored_top80percent,syndirella_placed

>  <smiles>  (936) 
Cc1c(NC(=O)C2(S(=O)(=O)c3ccc(Cl)cc3)CCC2)ccc(Br)c1F

>  <subsites>  (936) 
None

>  <rmsd(smina/fragmenstein)>  (936) 
3.359

>  <alias>  (936) 
None

>  <energy_score>  (936) 
-35.64427

>  <HIPPO Pose ID>  (936) 
94933

>  <distance_score>  (936) 
0.681131

>  <HIPPO Compound ID>  (936) 
128775

>  <gnina_score_min>  (936) 
5.103

>  <name>  (936) 
P94933

>  <exports>  (936) 
['/opt/xchem-fragalysis-2/maxwin/BulkDock/OUTPUTS/openbind_d68ev3c_c2_elabs_1LOTQJ3.sdf', '/opt/xchem-fragalysis-2/maxwin/BulkDock/OUTPUTS/openbind_d68ev3c_c2_elabs_1LSYI5W.sdf']

$$$$
P94934
     RDKit          3D

 26 27  0  0  0  0  0  0  0  0999 V2000
   14.2790   -5.1056   18.0489 N   0  0  0  0  0  0  0  0  0  0  0  0
   13.9039   -4.1212   17.5674 C   0  0  0  0  0  0  0  0  0  0  0  0
   13.4906   -2.8950   16.9547 C   0  0  0  0  0  0  0  0  0  0  0  0
   12.2624   -2.8639   16.2798 C   0  0  0  0  0  0  0  0  0  0  0  0
   11.8169   -1.6714   15.7164 C   0  0  0  0  0  0  0  0  0  0  0  0
   10.2345   -1.5492   15.0806 Cl  0  0  0  0  0  0  0  0  0  0  0  0
   12.6106   -0.5334   15.7447 C   0  0  0  0  0  0  0  0  0  0  0  0
   13.8453   -0.5693   16.3890 C   0  0  0  0  0  0  0  0  0  0  0  0
   14.2855   -1.7364   17.0226 C   0  0  0  0  0  0  0  0  0  0  0  0
   15.4836   -1.7078   17.7466 N   0  0  0  0  0  0  0  0  0  0  0  0
   16.6112   -0.6284   17.7980 C   0  0  0  0  0  0  0  0  0  0  0  0
   16.6700    0.4314   17.3026 O   0  0  0  0  0  0  0  0  0  0  0  0
   17.6900   -1.0991   18.7319 C   0  0  0  0  0  0  0  0  0  0  0  0
   18.5159   -2.5153   18.1200 S   0  0  0  0  0  0  0  0  0  0  0  0
   17.5402   -3.5906   18.1701 O   0  0  0  0  0  0  0  0  0  0  0  0
   19.7802   -2.6231   18.8190 O   0  0  0  0  0  0  0  0  0  0  0  0
   18.8952   -2.2193   16.4126 C   0  0  0  0  0  0  0  0  0  0  0  0
   18.4918   -3.1473   15.4473 C   0  0  0  0  0  0  0  0  0  0  0  0
   18.8056   -2.9234   14.1079 C   0  0  0  0  0  0  0  0  0  0  0  0
   19.5099   -1.7760   13.7373 C   0  0  0  0  0  0  0  0  0  0  0  0
   19.9205   -0.8405   14.7018 C   0  0  0  0  0  0  0  0  0  0  0  0
   20.7107    0.3785   14.2850 C   0  0  0  0  0  0  0  0  0  0  0  0
   22.0095    0.0842   14.0076 F   0  0  0  0  0  0  0  0  0  0  0  0
   20.2108    0.9754   13.1685 F   0  0  0  0  0  0  0  0  0  0  0  0
   20.7421    1.3472   15.2426 F   0  0  0  0  0  0  0  0  0  0  0  0
   19.6168   -1.0773   16.0523 C   0  0  0  0  0  0  0  0  0  0  0  0
  1  2  3  0
  2  3  1  0
  3  4  2  0
  4  5  1  0
  5  6  1  0
  5  7  2  0
  7  8  1  0
  8  9  2  0
  9 10  1  0
 10 11  1  0
 11 12  2  0
 11 13  1  0
 13 14  1  0
 14 15  2  0
 14 16  2  0
 14 17  1  0
 17 18  2  0
 18 19  1  0
 19 20  2  0
 20 21  1  0
 21 22  1  0
 22 23  1  0
 22 24  1  0
 22 25  1  0
 21 26  2  0
  9  3  1  0
 26 17  1  0
M  END
>  <ref_mols>  (937) 
B1396a

>  <gnina_score>  (937) 
5.233

>  <smina_score_min>  (937) 
-2.823

>  <ref_pdb>  (937) 
B1396a

>  <inspiration_score>  (937) 
None

>  <inchikey>  (937) 
KPSZLVGEKRSOFK-UHFFFAOYSA-N

>  <tags>  (937) 
BulkDock Fragalysis export,openbind_d68ev3c_c2_elabs_scored,openbind_d68ev3c_c2_elabs_scored_4.5plus,openbind_d68ev3c_c2_elabs,openbind_d68ev3c_c2_elabs_scored_5plus,syndirella_product,openbind_d68ev3c_c2_elabs_scored_top80percent,syndirella_placed

>  <smiles>  (937) 
N#Cc1cc(Cl)ccc1NC(=O)CS(=O)(=O)c1cccc(C(F)(F)F)c1

>  <subsites>  (937) 
None

>  <rmsd(smina/fragmenstein)>  (937) 
1.563

>  <alias>  (937) 
None

>  <energy_score>  (937) 
-40.567011

>  <HIPPO Pose ID>  (937) 
94934

>  <distance_score>  (937) 
0.559807

>  <HIPPO Compound ID>  (937) 
128776

>  <gnina_score_min>  (937) 
5.13

>  <name>  (937) 
P94934

>  <exports>  (937) 
['/opt/xchem-fragalysis-2/maxwin/BulkDock/OUTPUTS/openbind_d68ev3c_c2_elabs_1LOTQJ3.sdf', '/opt/xchem-fragalysis-2/maxwin/BulkDock/OUTPUTS/openbind_d68ev3c_c2_elabs_1LSYI5W.sdf']

$$$$
P94950
     RDKit          3D

 26 27  0  0  0  0  0  0  0  0999 V2000
   13.9386   -4.1620   17.6959 C   0  0  0  0  0  0  0  0  0  0  0  0
   13.3809   -2.9972   16.9162 C   0  0  0  0  0  0  0  0  0  0  0  0
   12.2099   -3.2198   16.1784 C   0  0  0  0  0  0  0  0  0  0  0  0
   11.6454   -2.2013   15.4355 C   0  0  0  0  0  0  0  0  0  0  0  0
   10.5122   -2.4314   14.7653 F   0  0  0  0  0  0  0  0  0  0  0  0
   12.2043   -0.9370   15.4304 C   0  0  0  0  0  0  0  0  0  0  0  0
   13.3703   -0.6723   16.1694 C   0  0  0  0  0  0  0  0  0  0  0  0
   13.7735    1.0702   16.2547 S   0  0  0  0  0  0  0  0  0  0  0  0
   13.9967   -1.7177   16.8932 C   0  0  0  0  0  0  0  0  0  0  0  0
   15.1836   -1.5880   17.6423 N   0  0  0  0  0  0  0  0  0  0  0  0
   16.3902   -0.6122   17.4688 C   0  0  0  0  0  0  0  0  0  0  0  0
   16.5437    0.2807   16.7253 O   0  0  0  0  0  0  0  0  0  0  0  0
   17.4345   -0.8990   18.5346 C   0  0  1  0  0  0  0  0  0  0  0  0
   16.8865   -0.9002   19.9554 C   0  0  0  0  0  0  0  0  0  0  0  0
   18.3090   -2.3804   18.1383 S   0  0  0  0  0  0  0  0  0  0  0  0
   17.3526   -3.4726   18.1991 O   0  0  0  0  0  0  0  0  0  0  0  0
   19.5188   -2.4188   18.9367 O   0  0  0  0  0  0  0  0  0  0  0  0
   18.8374   -2.2152   16.4462 C   0  0  0  0  0  0  0  0  0  0  0  0
   18.4541   -3.1693   15.4956 C   0  0  0  0  0  0  0  0  0  0  0  0
   18.9025   -3.0458   14.1762 C   0  0  0  0  0  0  0  0  0  0  0  0
   19.7246   -1.9652   13.8217 C   0  0  0  0  0  0  0  0  0  0  0  0
   20.2210   -1.8445   12.4448 N   0  0  0  0  0  0  0  0  0  0  0  0
   20.0873   -2.8236   11.6998 O   0  0  0  0  0  0  0  0  0  0  0  0
   20.7535   -0.7738   12.1198 O   0  0  0  0  0  0  0  0  0  0  0  0
   20.1058   -1.0123   14.7770 C   0  0  0  0  0  0  0  0  0  0  0  0
   19.6681   -1.1443   16.0964 C   0  0  0  0  0  0  0  0  0  0  0  0
  1  2  1  0
  2  3  2  0
  3  4  1  0
  4  5  1  0
  4  6  2  0
  6  7  1  0
  7  8  1  0
  7  9  2  0
  9 10  1  0
 10 11  1  0
 11 12  2  0
 11 13  1  0
 13 14  1  1
 13 15  1  0
 15 16  2  0
 15 17  2  0
 15 18  1  0
 18 19  2  0
 19 20  1  0
 20 21  2  0
 21 22  1  0
 22 23  2  0
 22 24  1  0
 21 25  1  0
 25 26  2  0
  9  2  1  0
 26 18  1  0
M  CHG  2  22   1  24  -1
M  END
>  <ref_mols>  (938) 
B1396a

>  <gnina_score>  (938) 
5.156

>  <smina_score_min>  (938) 
-3.846

>  <ref_pdb>  (938) 
B1396a

>  <inspiration_score>  (938) 
None

>  <inchikey>  (938) 
XVOJUOVIPGFCKU-SNVBAGLBSA-N

>  <tags>  (938) 
BulkDock Fragalysis export,openbind_d68ev3c_c2_elabs_scored,openbind_d68ev3c_c2_elabs_scored_4.5plus,openbind_d68ev3c_c2_elabs,openbind_d68ev3c_c2_elabs_scored_5plus,syndirella_product,openbind_d68ev3c_c2_elabs_scored_top80percent,syndirella_placed

>  <smiles>  (938) 
Cc1cc(F)cc(S)c1NC(=O)[C@@H](C)S(=O)(=O)c1ccc([N+](=O)[O-])cc1

>  <subsites>  (938) 
None

>  <rmsd(smina/fragmenstein)>  (938) 
2.014

>  <alias>  (938) 
None

>  <energy_score>  (938) 
-47.869823

>  <HIPPO Pose ID>  (938) 
94950

>  <distance_score>  (938) 
0.335271

>  <HIPPO Compound ID>  (938) 
128799

>  <gnina_score_min>  (938) 
5.085

>  <name>  (938) 
P94950

>  <exports>  (938) 
['/opt/xchem-fragalysis-2/maxwin/BulkDock/OUTPUTS/openbind_d68ev3c_c2_elabs_1LOTQJ3.sdf', '/opt/xchem-fragalysis-2/maxwin/BulkDock/OUTPUTS/openbind_d68ev3c_c2_elabs_1LSYI5W.sdf']

$$$$
P94954
     RDKit          3D

 26 27  0  0  0  0  0  0  0  0999 V2000
   13.8405   -3.9962   17.4478 C   0  0  0  0  0  0  0  0  0  0  0  0
   13.4074   -2.6733   16.8619 C   0  0  0  0  0  0  0  0  0  0  0  0
   12.1599   -2.6128   16.2112 C   0  0  0  0  0  0  0  0  0  0  0  0
   11.6758   -1.3950   15.7442 C   0  0  0  0  0  0  0  0  0  0  0  0
    9.8933   -1.1977   15.1707 Br  0  0  0  0  0  0  0  0  0  0  0  0
   12.4380   -0.2448   15.8507 C   0  0  0  0  0  0  0  0  0  0  0  0
   13.6795   -0.2841   16.4859 C   0  0  0  0  0  0  0  0  0  0  0  0
   14.3377    1.2773   16.8349 Cl  0  0  0  0  0  0  0  0  0  0  0  0
   14.1939   -1.4981   16.9845 C   0  0  0  0  0  0  0  0  0  0  0  0
   15.4273   -1.6131   17.6475 N   0  0  0  0  0  0  0  0  0  0  0  0
   16.7096   -0.7237   17.5655 C   0  0  0  0  0  0  0  0  0  0  0  0
   16.9556    0.1907   16.8768 O   0  0  0  0  0  0  0  0  0  0  0  0
   17.6683   -1.1789   18.6232 C   0  0  0  0  0  0  0  0  0  0  0  0
   18.4873   -2.6376   18.1044 S   0  0  0  0  0  0  0  0  0  0  0  0
   17.4887   -3.6940   18.1433 O   0  0  0  0  0  0  0  0  0  0  0  0
   19.7103   -2.7495   18.8742 O   0  0  0  0  0  0  0  0  0  0  0  0
   18.9627   -2.3956   16.4110 C   0  0  0  0  0  0  0  0  0  0  0  0
   18.5196   -3.2883   15.4316 C   0  0  0  0  0  0  0  0  0  0  0  0
   18.8838   -3.0802   14.1020 C   0  0  0  0  0  0  0  0  0  0  0  0
   19.6766   -1.9834   13.7559 C   0  0  0  0  0  0  0  0  0  0  0  0
   20.1300   -1.0852   14.7359 C   0  0  0  0  0  0  0  0  0  0  0  0
   21.0123    0.0782   14.3480 C   0  0  0  0  0  0  0  0  0  0  0  0
   21.0815    1.0425   15.3080 F   0  0  0  0  0  0  0  0  0  0  0  0
   20.5938    0.7076   13.2159 F   0  0  0  0  0  0  0  0  0  0  0  0
   22.2969   -0.3055   14.1125 F   0  0  0  0  0  0  0  0  0  0  0  0
   19.7781   -1.3089   16.0762 C   0  0  0  0  0  0  0  0  0  0  0  0
  1  2  1  0
  2  3  2  0
  3  4  1  0
  4  5  1  0
  4  6  2  0
  6  7  1  0
  7  8  1  0
  7  9  2  0
  9 10  1  0
 10 11  1  0
 11 12  2  0
 11 13  1  0
 13 14  1  0
 14 15  2  0
 14 16  2  0
 14 17  1  0
 17 18  2  0
 18 19  1  0
 19 20  2  0
 20 21  1  0
 21 22  1  0
 22 23  1  0
 22 24  1  0
 22 25  1  0
 21 26  2  0
  9  2  1  0
 26 17  1  0
M  END
>  <ref_mols>  (939) 
B1396a

>  <gnina_score>  (939) 
5.35

>  <smina_score_min>  (939) 
-3.034

>  <ref_pdb>  (939) 
B1396a

>  <inspiration_score>  (939) 
None

>  <inchikey>  (939) 
HIIZEEYUDGXGHR-UHFFFAOYSA-N

>  <tags>  (939) 
BulkDock Fragalysis export,openbind_d68ev3c_c2_elabs_scored,openbind_d68ev3c_c2_elabs_scored_4.5plus,openbind_d68ev3c_c2_elabs,openbind_d68ev3c_c2_elabs_scored_5plus,syndirella_product,openbind_d68ev3c_c2_elabs_scored_top80percent,syndirella_placed

>  <smiles>  (939) 
Cc1cc(Br)cc(Cl)c1NC(=O)CS(=O)(=O)c1cccc(C(F)(F)F)c1

>  <subsites>  (939) 
None

>  <rmsd(smina/fragmenstein)>  (939) 
3.086

>  <alias>  (939) 
None

>  <energy_score>  (939) 
-37.833193

>  <HIPPO Pose ID>  (939) 
94954

>  <distance_score>  (939) 
0.57011

>  <HIPPO Compound ID>  (939) 
128803

>  <gnina_score_min>  (939) 
5.164

>  <name>  (939) 
P94954

>  <exports>  (939) 
['/opt/xchem-fragalysis-2/maxwin/BulkDock/OUTPUTS/openbind_d68ev3c_c2_elabs_1LOTQJ3.sdf', '/opt/xchem-fragalysis-2/maxwin/BulkDock/OUTPUTS/openbind_d68ev3c_c2_elabs_1LSYI5W.sdf']

$$$$
P94955
     RDKit          3D

 26 27  0  0  0  0  0  0  0  0999 V2000
   13.8367   -4.0826   17.5505 C   0  0  0  0  0  0  0  0  0  0  0  0
   13.4912   -2.7579   16.9287 C   0  0  0  0  0  0  0  0  0  0  0  0
   14.3176   -1.6276   17.0488 C   0  0  0  0  0  0  0  0  0  0  0  0
   15.4940   -1.6810   17.7974 N   0  0  0  0  0  0  0  0  0  0  0  0
   16.6490   -0.6393   17.9469 C   0  0  0  0  0  0  0  0  0  0  0  0
   16.7481    0.4492   17.5255 O   0  0  0  0  0  0  0  0  0  0  0  0
   17.6874   -1.2073   18.8709 C   0  0  0  0  0  0  0  0  0  0  0  0
   18.5066   -2.5760   18.1461 S   0  0  0  0  0  0  0  0  0  0  0  0
   17.5282   -3.6467   18.0492 O   0  0  0  0  0  0  0  0  0  0  0  0
   19.7425   -2.7778   18.8769 O   0  0  0  0  0  0  0  0  0  0  0  0
   18.9404   -2.0893   16.4944 C   0  0  0  0  0  0  0  0  0  0  0  0
   20.1257   -1.3856   16.2786 C   0  0  0  0  0  0  0  0  0  0  0  0
   20.4812   -1.0196   14.9813 C   0  0  0  0  0  0  0  0  0  0  0  0
   19.6563   -1.3534   13.9069 C   0  0  0  0  0  0  0  0  0  0  0  0
   18.4650   -2.0635   14.1152 C   0  0  0  0  0  0  0  0  0  0  0  0
   17.5660   -2.3670   12.9447 C   0  0  0  0  0  0  0  0  0  0  0  0
   16.5138   -3.1591   13.2967 F   0  0  0  0  0  0  0  0  0  0  0  0
   18.2100   -3.0173   11.9423 F   0  0  0  0  0  0  0  0  0  0  0  0
   17.0235   -1.2500   12.3889 F   0  0  0  0  0  0  0  0  0  0  0  0
   18.1189   -2.4495   15.4210 C   0  0  0  0  0  0  0  0  0  0  0  0
   13.9359   -0.4153   16.4618 C   0  0  0  0  0  0  0  0  0  0  0  0
   12.7038   -0.2856   15.8269 C   0  0  0  0  0  0  0  0  0  0  0  0
   11.8538   -1.3785   15.7625 C   0  0  0  0  0  0  0  0  0  0  0  0
   10.0904   -1.0881   15.1667 Br  0  0  0  0  0  0  0  0  0  0  0  0
   12.2674   -2.6134   16.2591 C   0  0  0  0  0  0  0  0  0  0  0  0
   11.4544   -3.6722   16.1564 F   0  0  0  0  0  0  0  0  0  0  0  0
  1  2  1  0
  2  3  2  0
  3  4  1  0
  4  5  1  0
  5  6  2  0
  5  7  1  0
  7  8  1  0
  8  9  2  0
  8 10  2  0
  8 11  1  0
 11 12  2  0
 12 13  1  0
 13 14  2  0
 14 15  1  0
 15 16  1  0
 16 17  1  0
 16 18  1  0
 16 19  1  0
 15 20  2  0
  3 21  1  0
 21 22  2  0
 22 23  1  0
 23 24  1  0
 23 25  2  0
 25 26  1  0
 25  2  1  0
 20 11  1  0
M  END
>  <ref_mols>  (940) 
B1396a

>  <gnina_score>  (940) 
5.387

>  <smina_score_min>  (940) 
-3.957

>  <ref_pdb>  (940) 
B1396a

>  <inspiration_score>  (940) 
None

>  <inchikey>  (940) 
ZKKBLLUKPGWBMB-UHFFFAOYSA-N

>  <tags>  (940) 
BulkDock Fragalysis export,openbind_d68ev3c_c2_elabs_scored,openbind_d68ev3c_c2_elabs_scored_4.5plus,openbind_d68ev3c_c2_elabs,openbind_d68ev3c_c2_elabs_scored_5plus,syndirella_product,openbind_d68ev3c_c2_elabs_scored_top80percent,syndirella_placed

>  <smiles>  (940) 
Cc1c(NC(=O)CS(=O)(=O)c2cccc(C(F)(F)F)c2)ccc(Br)c1F

>  <subsites>  (940) 
None

>  <rmsd(smina/fragmenstein)>  (940) 
1.716

>  <alias>  (940) 
None

>  <energy_score>  (940) 
-35.741216

>  <HIPPO Pose ID>  (940) 
94955

>  <distance_score>  (940) 
0.749528

>  <HIPPO Compound ID>  (940) 
128805

>  <gnina_score_min>  (940) 
5.241

>  <name>  (940) 
P94955

>  <exports>  (940) 
['/opt/xchem-fragalysis-2/maxwin/BulkDock/OUTPUTS/openbind_d68ev3c_c2_elabs_1LOTQJ3.sdf', '/opt/xchem-fragalysis-2/maxwin/BulkDock/OUTPUTS/openbind_d68ev3c_c2_elabs_1LSYI5W.sdf']

$$$$
P94957
     RDKit          3D

 26 27  0  0  0  0  0  0  0  0999 V2000
   13.8818   -4.1670   17.6988 C   0  0  0  0  0  0  0  0  0  0  0  0
   13.4714   -2.9337   16.9448 C   0  0  0  0  0  0  0  0  0  0  0  0
   14.2163   -1.7426   16.9700 C   0  0  0  0  0  0  0  0  0  0  0  0
   15.3895   -1.6816   17.7229 N   0  0  0  0  0  0  0  0  0  0  0  0
   16.4584   -0.5507   17.8431 C   0  0  0  0  0  0  0  0  0  0  0  0
   16.4751    0.5285   17.3889 O   0  0  0  0  0  0  0  0  0  0  0  0
   17.5343   -1.0126   18.7896 C   0  0  0  0  0  0  0  0  0  0  0  0
   18.4185   -2.3968   18.1653 S   0  0  0  0  0  0  0  0  0  0  0  0
   19.6427   -2.5139   18.9347 O   0  0  0  0  0  0  0  0  0  0  0  0
   17.4893   -3.5129   18.1096 O   0  0  0  0  0  0  0  0  0  0  0  0
   18.8790   -1.9868   16.5000 C   0  0  0  0  0  0  0  0  0  0  0  0
   20.0782   -1.3104   16.2707 C   0  0  0  0  0  0  0  0  0  0  0  0
   20.4561   -1.0024   14.9648 C   0  0  0  0  0  0  0  0  0  0  0  0
   19.6391   -1.3657   13.8944 C   0  0  0  0  0  0  0  0  0  0  0  0
   18.4349   -2.0498   14.1158 C   0  0  0  0  0  0  0  0  0  0  0  0
   17.5442   -2.3823   12.9469 C   0  0  0  0  0  0  0  0  0  0  0  0
   16.4878   -3.1626   13.3124 F   0  0  0  0  0  0  0  0  0  0  0  0
   18.1944   -3.0619   11.9683 F   0  0  0  0  0  0  0  0  0  0  0  0
   17.0088   -1.2800   12.3566 F   0  0  0  0  0  0  0  0  0  0  0  0
   18.0672   -2.3802   15.4313 C   0  0  0  0  0  0  0  0  0  0  0  0
   13.7780   -0.6267   16.2423 C   0  0  0  0  0  0  0  0  0  0  0  0
   12.5918   -0.6757   15.5058 C   0  0  0  0  0  0  0  0  0  0  0  0
   11.8539   -1.8465   15.4885 C   0  0  0  0  0  0  0  0  0  0  0  0
   10.6976   -1.8907   14.8178 F   0  0  0  0  0  0  0  0  0  0  0  0
   12.2954   -2.9600   16.1884 C   0  0  0  0  0  0  0  0  0  0  0  0
   11.5642   -4.0768   16.1497 F   0  0  0  0  0  0  0  0  0  0  0  0
  1  2  1  0
  2  3  2  0
  3  4  1  0
  4  5  1  0
  5  6  2  0
  5  7  1  0
  7  8  1  0
  8  9  2  0
  8 10  2  0
  8 11  1  0
 11 12  2  0
 12 13  1  0
 13 14  2  0
 14 15  1  0
 15 16  1  0
 16 17  1  0
 16 18  1  0
 16 19  1  0
 15 20  2  0
  3 21  1  0
 21 22  2  0
 22 23  1  0
 23 24  1  0
 23 25  2  0
 25 26  1  0
 25  2  1  0
 20 11  1  0
M  END
>  <ref_mols>  (941) 
B1396a

>  <gnina_score>  (941) 
5.224

>  <smina_score_min>  (941) 
-4.006

>  <ref_pdb>  (941) 
B1396a

>  <inspiration_score>  (941) 
None

>  <inchikey>  (941) 
FTZNNLOIQRVRQI-UHFFFAOYSA-N

>  <tags>  (941) 
BulkDock Fragalysis export,openbind_d68ev3c_c2_elabs_scored,openbind_d68ev3c_c2_elabs_scored_4.5plus,openbind_d68ev3c_c2_elabs,openbind_d68ev3c_c2_elabs_scored_5plus,syndirella_product,openbind_d68ev3c_c2_elabs_scored_top80percent,syndirella_placed

>  <smiles>  (941) 
Cc1c(NC(=O)CS(=O)(=O)c2cccc(C(F)(F)F)c2)ccc(F)c1F

>  <subsites>  (941) 
None

>  <rmsd(smina/fragmenstein)>  (941) 
1.531

>  <alias>  (941) 
None

>  <energy_score>  (941) 
-32.525155

>  <HIPPO Pose ID>  (941) 
94957

>  <distance_score>  (941) 
0.625539

>  <HIPPO Compound ID>  (941) 
128807

>  <gnina_score_min>  (941) 
5.189

>  <name>  (941) 
P94957

>  <exports>  (941) 
['/opt/xchem-fragalysis-2/maxwin/BulkDock/OUTPUTS/openbind_d68ev3c_c2_elabs_1LOTQJ3.sdf', '/opt/xchem-fragalysis-2/maxwin/BulkDock/OUTPUTS/openbind_d68ev3c_c2_elabs_1LSYI5W.sdf']

$$$$
P94969
     RDKit          3D

 26 27  0  0  0  0  0  0  0  0999 V2000
   13.7860   -4.0122   17.5626 C   0  0  0  0  0  0  0  0  0  0  0  0
   13.3180   -2.7867   16.8215 C   0  0  0  0  0  0  0  0  0  0  0  0
   12.1926   -2.8958   15.9929 C   0  0  0  0  0  0  0  0  0  0  0  0
   11.5686   -4.0692   15.8754 F   0  0  0  0  0  0  0  0  0  0  0  0
   11.6867   -1.8216   15.2777 C   0  0  0  0  0  0  0  0  0  0  0  0
   12.2995   -0.5847   15.4052 C   0  0  0  0  0  0  0  0  0  0  0  0
   13.4325   -0.4361   16.2196 C   0  0  0  0  0  0  0  0  0  0  0  0
   13.9386    1.1968   16.4739 Cl  0  0  0  0  0  0  0  0  0  0  0  0
   13.9841   -1.5436   16.9010 C   0  0  0  0  0  0  0  0  0  0  0  0
   15.1631   -1.4919   17.6684 N   0  0  0  0  0  0  0  0  0  0  0  0
   16.4371   -0.6011   17.5111 C   0  0  0  0  0  0  0  0  0  0  0  0
   16.6631    0.2745   16.7676 O   0  0  0  0  0  0  0  0  0  0  0  0
   17.4150   -0.9825   18.5851 C   0  0  0  0  0  0  0  0  0  0  0  0
   18.2937   -2.4337   18.1322 S   0  0  0  0  0  0  0  0  0  0  0  0
   17.3344   -3.5249   18.1843 O   0  0  0  0  0  0  0  0  0  0  0  0
   19.5041   -2.4861   18.9293 O   0  0  0  0  0  0  0  0  0  0  0  0
   18.8059   -2.2376   16.4436 C   0  0  0  0  0  0  0  0  0  0  0  0
   18.4234   -3.1827   15.4877 C   0  0  0  0  0  0  0  0  0  0  0  0
   18.8336   -3.0226   14.1648 C   0  0  0  0  0  0  0  0  0  0  0  0
   19.6132   -1.9221   13.8012 C   0  0  0  0  0  0  0  0  0  0  0  0
   20.0057   -0.9711   14.7575 C   0  0  0  0  0  0  0  0  0  0  0  0
   20.8770    0.1953   14.3542 C   0  0  0  0  0  0  0  0  0  0  0  0
   22.1823   -0.1629   14.2105 F   0  0  0  0  0  0  0  0  0  0  0  0
   20.8672    1.2111   15.2621 F   0  0  0  0  0  0  0  0  0  0  0  0
   20.5065    0.7507   13.1680 F   0  0  0  0  0  0  0  0  0  0  0  0
   19.6067   -1.1456   16.0922 C   0  0  0  0  0  0  0  0  0  0  0  0
  1  2  1  0
  2  3  2  0
  3  4  1  0
  3  5  1  0
  5  6  2  0
  6  7  1  0
  7  8  1  0
  7  9  2  0
  9 10  1  0
 10 11  1  0
 11 12  2  0
 11 13  1  0
 13 14  1  0
 14 15  2  0
 14 16  2  0
 14 17  1  0
 17 18  2  0
 18 19  1  0
 19 20  2  0
 20 21  1  0
 21 22  1  0
 22 23  1  0
 22 24  1  0
 22 25  1  0
 21 26  2  0
  9  2  1  0
 26 17  1  0
M  END
>  <ref_mols>  (942) 
B1396a

>  <gnina_score>  (942) 
5.19

>  <smina_score_min>  (942) 
-3.883

>  <ref_pdb>  (942) 
B1396a

>  <inspiration_score>  (942) 
None

>  <inchikey>  (942) 
PRHHQCCMGGZSII-UHFFFAOYSA-N

>  <tags>  (942) 
BulkDock Fragalysis export,openbind_d68ev3c_c2_elabs_scored,openbind_d68ev3c_c2_elabs_scored_4.5plus,openbind_d68ev3c_c2_elabs,openbind_d68ev3c_c2_elabs_scored_5plus,syndirella_product,openbind_d68ev3c_c2_elabs_scored_top80percent,syndirella_placed

>  <smiles>  (942) 
Cc1c(F)ccc(Cl)c1NC(=O)CS(=O)(=O)c1cccc(C(F)(F)F)c1

>  <subsites>  (942) 
None

>  <rmsd(smina/fragmenstein)>  (942) 
3.646

>  <alias>  (942) 
None

>  <energy_score>  (942) 
-25.798705

>  <HIPPO Pose ID>  (942) 
94969

>  <distance_score>  (942) 
0.389997

>  <HIPPO Compound ID>  (942) 
128823

>  <gnina_score_min>  (942) 
5.097

>  <name>  (942) 
P94969

>  <exports>  (942) 
['/opt/xchem-fragalysis-2/maxwin/BulkDock/OUTPUTS/openbind_d68ev3c_c2_elabs_1LOTQJ3.sdf', '/opt/xchem-fragalysis-2/maxwin/BulkDock/OUTPUTS/openbind_d68ev3c_c2_elabs_1LSYI5W.sdf']

$$$$
P94972
     RDKit          3D

 26 27  0  0  0  0  0  0  0  0999 V2000
   14.8065   -5.0640   17.5791 C   0  0  0  0  0  0  0  0  0  0  0  0
   13.8446   -4.0274   18.1260 C   0  0  0  0  0  0  0  0  0  0  0  0
   13.5888   -2.8539   17.2057 C   0  0  0  0  0  0  0  0  0  0  0  0
   12.3903   -2.8225   16.4706 C   0  0  0  0  0  0  0  0  0  0  0  0
   12.0325   -1.6740   15.7651 C   0  0  0  0  0  0  0  0  0  0  0  0
   10.2983   -1.4662   15.0782 Br  0  0  0  0  0  0  0  0  0  0  0  0
   12.8998   -0.5975   15.6699 C   0  0  0  0  0  0  0  0  0  0  0  0
   14.1163   -0.6412   16.3402 C   0  0  0  0  0  0  0  0  0  0  0  0
   14.4546   -1.7424   17.1327 C   0  0  0  0  0  0  0  0  0  0  0  0
   15.6351   -1.7124   17.8747 N   0  0  0  0  0  0  0  0  0  0  0  0
   16.7370   -0.6106   17.9822 C   0  0  0  0  0  0  0  0  0  0  0  0
   16.7797    0.4667   17.5246 O   0  0  0  0  0  0  0  0  0  0  0  0
   17.8135   -1.1061   18.9043 C   0  0  0  0  0  0  0  0  0  0  0  0
   18.6591   -2.4821   18.2176 S   0  0  0  0  0  0  0  0  0  0  0  0
   17.7262   -3.5956   18.2048 O   0  0  0  0  0  0  0  0  0  0  0  0
   19.9207   -2.6057   18.9217 O   0  0  0  0  0  0  0  0  0  0  0  0
   19.0279   -2.0556   16.5329 C   0  0  0  0  0  0  0  0  0  0  0  0
   20.2228   -1.3962   16.2424 C   0  0  0  0  0  0  0  0  0  0  0  0
   20.5205   -1.0594   14.9229 C   0  0  0  0  0  0  0  0  0  0  0  0
   19.6259   -1.3736   13.9001 C   0  0  0  0  0  0  0  0  0  0  0  0
   18.4247   -2.0397   14.1829 C   0  0  0  0  0  0  0  0  0  0  0  0
   17.4375   -2.2992   13.0750 C   0  0  0  0  0  0  0  0  0  0  0  0
   16.7861   -1.1746   12.6743 F   0  0  0  0  0  0  0  0  0  0  0  0
   16.4681   -3.1828   13.4463 F   0  0  0  0  0  0  0  0  0  0  0  0
   18.0145   -2.8204   11.9617 F   0  0  0  0  0  0  0  0  0  0  0  0
   18.1399   -2.4038   15.5098 C   0  0  0  0  0  0  0  0  0  0  0  0
  1  2  1  0
  2  3  1  0
  3  4  2  0
  4  5  1  0
  5  6  1  0
  5  7  2  0
  7  8  1  0
  8  9  2  0
  9 10  1  0
 10 11  1  0
 11 12  2  0
 11 13  1  0
 13 14  1  0
 14 15  2  0
 14 16  2  0
 14 17  1  0
 17 18  2  0
 18 19  1  0
 19 20  2  0
 20 21  1  0
 21 22  1  0
 22 23  1  0
 22 24  1  0
 22 25  1  0
 21 26  2  0
  9  3  1  0
 26 17  1  0
M  END
>  <ref_mols>  (943) 
B1396a

>  <gnina_score>  (943) 
5.325

>  <smina_score_min>  (943) 
-3.033

>  <ref_pdb>  (943) 
B1396a

>  <inspiration_score>  (943) 
None

>  <inchikey>  (943) 
BHUONILAZOTVRG-UHFFFAOYSA-N

>  <tags>  (943) 
BulkDock Fragalysis export,openbind_d68ev3c_c2_elabs_scored,openbind_d68ev3c_c2_elabs_scored_4.5plus,openbind_d68ev3c_c2_elabs,openbind_d68ev3c_c2_elabs_scored_5plus,syndirella_product,openbind_d68ev3c_c2_elabs_scored_top80percent,syndirella_placed

>  <smiles>  (943) 
CCc1cc(Br)ccc1NC(=O)CS(=O)(=O)c1cccc(C(F)(F)F)c1

>  <subsites>  (943) 
None

>  <rmsd(smina/fragmenstein)>  (943) 
1.51

>  <alias>  (943) 
None

>  <energy_score>  (943) 
-44.472592

>  <HIPPO Pose ID>  (943) 
94972

>  <distance_score>  (943) 
0.794087

>  <HIPPO Compound ID>  (943) 
128826

>  <gnina_score_min>  (943) 
5.076

>  <name>  (943) 
P94972

>  <exports>  (943) 
['/opt/xchem-fragalysis-2/maxwin/BulkDock/OUTPUTS/openbind_d68ev3c_c2_elabs_1LOTQJ3.sdf', '/opt/xchem-fragalysis-2/maxwin/BulkDock/OUTPUTS/openbind_d68ev3c_c2_elabs_1LSYI5W.sdf']

$$$$
P94973
     RDKit          3D

 26 27  0  0  0  0  0  0  0  0999 V2000
   13.9200   -4.2071   17.6531 C   0  0  0  0  0  0  0  0  0  0  0  0
   13.3734   -3.0054   16.9232 C   0  0  0  0  0  0  0  0  0  0  0  0
   12.1932   -3.1753   16.1843 C   0  0  0  0  0  0  0  0  0  0  0  0
   11.6402   -2.1142   15.4899 C   0  0  0  0  0  0  0  0  0  0  0  0
   10.4886   -2.2920   14.8351 F   0  0  0  0  0  0  0  0  0  0  0  0
   12.2241   -0.8625   15.5283 C   0  0  0  0  0  0  0  0  0  0  0  0
   13.3976   -0.6639   16.2665 C   0  0  0  0  0  0  0  0  0  0  0  0
   13.8682    0.9890   16.4345 Cl  0  0  0  0  0  0  0  0  0  0  0  0
   14.0126   -1.7393   16.9446 C   0  0  0  0  0  0  0  0  0  0  0  0
   15.2248   -1.6735   17.6576 N   0  0  0  0  0  0  0  0  0  0  0  0
   16.4100   -0.6606   17.5519 C   0  0  0  0  0  0  0  0  0  0  0  0
   16.5882    0.2226   16.8044 O   0  0  0  0  0  0  0  0  0  0  0  0
   17.4123   -1.0011   18.6193 C   0  0  0  0  0  0  0  0  0  0  0  0
   18.3732   -2.3904   18.1246 S   0  0  0  0  0  0  0  0  0  0  0  0
   17.4791   -3.5346   18.0690 O   0  0  0  0  0  0  0  0  0  0  0  0
   19.5493   -2.4340   18.9735 O   0  0  0  0  0  0  0  0  0  0  0  0
   18.9234   -2.0465   16.4707 C   0  0  0  0  0  0  0  0  0  0  0  0
   20.1250   -1.3642   16.2770 C   0  0  0  0  0  0  0  0  0  0  0  0
   20.5507   -1.0765   14.9813 C   0  0  0  0  0  0  0  0  0  0  0  0
   19.7776   -1.4635   13.8866 C   0  0  0  0  0  0  0  0  0  0  0  0
   18.5705   -2.1524   14.0732 C   0  0  0  0  0  0  0  0  0  0  0  0
   17.7286   -2.5105   12.8765 C   0  0  0  0  0  0  0  0  0  0  0  0
   18.3792   -3.3258   12.0079 F   0  0  0  0  0  0  0  0  0  0  0  0
   16.5873   -3.1682   13.2304 F   0  0  0  0  0  0  0  0  0  0  0  0
   17.3275   -1.4266   12.1590 F   0  0  0  0  0  0  0  0  0  0  0  0
   18.1580   -2.4686   15.3786 C   0  0  0  0  0  0  0  0  0  0  0  0
  1  2  1  0
  2  3  2  0
  3  4  1  0
  4  5  1  0
  4  6  2  0
  6  7  1  0
  7  8  1  0
  7  9  2  0
  9 10  1  0
 10 11  1  0
 11 12  2  0
 11 13  1  0
 13 14  1  0
 14 15  2  0
 14 16  2  0
 14 17  1  0
 17 18  2  0
 18 19  1  0
 19 20  2  0
 20 21  1  0
 21 22  1  0
 22 23  1  0
 22 24  1  0
 22 25  1  0
 21 26  2  0
  9  2  1  0
 26 17  1  0
M  END
>  <ref_mols>  (944) 
B1396a

>  <gnina_score>  (944) 
5.32

>  <smina_score_min>  (944) 
-3.717

>  <ref_pdb>  (944) 
B1396a

>  <inspiration_score>  (944) 
None

>  <inchikey>  (944) 
PMSCVNGMHOAVBX-UHFFFAOYSA-N

>  <tags>  (944) 
BulkDock Fragalysis export,openbind_d68ev3c_c2_elabs_scored,openbind_d68ev3c_c2_elabs_scored_4.5plus,openbind_d68ev3c_c2_elabs,openbind_d68ev3c_c2_elabs_scored_5plus,syndirella_product,openbind_d68ev3c_c2_elabs_scored_top80percent,syndirella_placed

>  <smiles>  (944) 
Cc1cc(F)cc(Cl)c1NC(=O)CS(=O)(=O)c1cccc(C(F)(F)F)c1

>  <subsites>  (944) 
None

>  <rmsd(smina/fragmenstein)>  (944) 
2.547

>  <alias>  (944) 
None

>  <energy_score>  (944) 
-34.909082

>  <HIPPO Pose ID>  (944) 
94973

>  <distance_score>  (944) 
0.46975

>  <HIPPO Compound ID>  (944) 
128827

>  <gnina_score_min>  (944) 
5.107

>  <name>  (944) 
P94973

>  <exports>  (944) 
['/opt/xchem-fragalysis-2/maxwin/BulkDock/OUTPUTS/openbind_d68ev3c_c2_elabs_1LOTQJ3.sdf', '/opt/xchem-fragalysis-2/maxwin/BulkDock/OUTPUTS/openbind_d68ev3c_c2_elabs_1LSYI5W.sdf']

$$$$
P94975
     RDKit          3D

 26 28  0  0  0  0  0  0  0  0999 V2000
   13.8245   -4.0814   17.6022 C   0  0  0  0  0  0  0  0  0  0  0  0
   13.2899   -2.9062   16.8206 C   0  0  0  0  0  0  0  0  0  0  0  0
   12.1486   -3.1211   16.0247 C   0  0  0  0  0  0  0  0  0  0  0  0
   11.5980   -2.0988   15.2644 C   0  0  0  0  0  0  0  0  0  0  0  0
   12.1571   -0.8310   15.3296 C   0  0  0  0  0  0  0  0  0  0  0  0
   13.2872   -0.5839   16.1274 C   0  0  0  0  0  0  0  0  0  0  0  0
   13.6909    1.2643   16.3328 Br  0  0  0  0  0  0  0  0  0  0  0  0
   13.9070   -1.6302   16.8412 C   0  0  0  0  0  0  0  0  0  0  0  0
   15.0843   -1.5034   17.6078 N   0  0  0  0  0  0  0  0  0  0  0  0
   16.3029   -0.5310   17.4471 C   0  0  0  0  0  0  0  0  0  0  0  0
   16.4713    0.3579   16.7016 O   0  0  0  0  0  0  0  0  0  0  0  0
   17.3416   -0.8341   18.5520 C   0  0  0  0  0  0  0  0  0  0  0  0
   18.1745   -2.3592   18.1049 S   0  0  0  0  0  0  0  0  0  0  0  0
   19.3709   -2.5002   18.9149 O   0  0  0  0  0  0  0  0  0  0  0  0
   17.1830   -3.4223   18.1195 O   0  0  0  0  0  0  0  0  0  0  0  0
   18.7123   -2.1562   16.4184 C   0  0  0  0  0  0  0  0  0  0  0  0
   17.9684   -2.7191   15.3750 C   0  0  0  0  0  0  0  0  0  0  0  0
   18.4038   -2.5565   14.0567 C   0  0  0  0  0  0  0  0  0  0  0  0
   19.5788   -1.8517   13.7933 C   0  0  0  0  0  0  0  0  0  0  0  0
   20.1109   -1.6502   12.1704 Cl  0  0  0  0  0  0  0  0  0  0  0  0
   20.3306   -1.3135   14.8367 C   0  0  0  0  0  0  0  0  0  0  0  0
   19.9040   -1.4732   16.1563 C   0  0  0  0  0  0  0  0  0  0  0  0
   16.6910   -0.9294   19.9571 C   0  0  0  0  0  0  0  0  0  0  0  0
   17.4921   -0.0039   20.8639 C   0  0  0  0  0  0  0  0  0  0  0  0
   17.9336    1.1010   19.9278 C   0  0  0  0  0  0  0  0  0  0  0  0
   18.3678    0.3295   18.6903 C   0  0  0  0  0  0  0  0  0  0  0  0
  1  2  1  0
  2  3  2  0
  3  4  1  0
  4  5  2  0
  5  6  1  0
  6  7  1  0
  6  8  2  0
  8  9  1  0
  9 10  1  0
 10 11  2  0
 10 12  1  0
 12 13  1  0
 13 14  2  0
 13 15  2  0
 13 16  1  0
 16 17  2  0
 17 18  1  0
 18 19  2  0
 19 20  1  0
 19 21  1  0
 21 22  2  0
 12 23  1  0
 23 24  1  0
 24 25  1  0
 25 26  1  0
  8  2  1  0
 26 12  1  0
 22 16  1  0
M  END
>  <ref_mols>  (945) 
B1396a

>  <gnina_score>  (945) 
5.185

>  <smina_score_min>  (945) 
-3.811

>  <ref_pdb>  (945) 
B1396a

>  <inspiration_score>  (945) 
None

>  <inchikey>  (945) 
LIADNGNWDIRMIQ-UHFFFAOYSA-N

>  <tags>  (945) 
BulkDock Fragalysis export,openbind_d68ev3c_c2_elabs_scored,openbind_d68ev3c_c2_elabs_scored_4.5plus,openbind_d68ev3c_c2_elabs,openbind_d68ev3c_c2_elabs_scored_5plus,syndirella_product,openbind_d68ev3c_c2_elabs_scored_top80percent,syndirella_placed

>  <smiles>  (945) 
Cc1cccc(Br)c1NC(=O)C1(S(=O)(=O)c2ccc(Cl)cc2)CCCC1

>  <subsites>  (945) 
None

>  <rmsd(smina/fragmenstein)>  (945) 
1.832

>  <alias>  (945) 
None

>  <energy_score>  (945) 
-47.991398

>  <HIPPO Pose ID>  (945) 
94975

>  <distance_score>  (945) 
0.388354

>  <HIPPO Compound ID>  (945) 
128829

>  <gnina_score_min>  (945) 
5.073

>  <name>  (945) 
P94975

>  <exports>  (945) 
['/opt/xchem-fragalysis-2/maxwin/BulkDock/OUTPUTS/openbind_d68ev3c_c2_elabs_1LOTQJ3.sdf', '/opt/xchem-fragalysis-2/maxwin/BulkDock/OUTPUTS/openbind_d68ev3c_c2_elabs_1LSYI5W.sdf']

$$$$
P94977
     RDKit          3D

 26 28  0  0  0  0  0  0  0  0999 V2000
   14.1512   -5.0265   18.2261 N   0  0  0  0  0  0  0  0  0  0  0  0
   13.7446   -4.1385   17.6029 C   0  0  0  0  0  0  0  0  0  0  0  0
   13.3044   -3.0166   16.8293 C   0  0  0  0  0  0  0  0  0  0  0  0
   12.1189   -3.1298   16.0875 C   0  0  0  0  0  0  0  0  0  0  0  0
   11.6580   -2.0629   15.3184 C   0  0  0  0  0  0  0  0  0  0  0  0
   12.3846   -0.8773   15.2885 C   0  0  0  0  0  0  0  0  0  0  0  0
   13.5766   -0.7621   16.0118 C   0  0  0  0  0  0  0  0  0  0  0  0
   14.0518   -1.8288   16.7819 C   0  0  0  0  0  0  0  0  0  0  0  0
   15.2603   -1.7118   17.4824 N   0  0  0  0  0  0  0  0  0  0  0  0
   16.2973   -0.5415   17.5293 C   0  0  0  0  0  0  0  0  0  0  0  0
   16.3331    0.4649   16.9298 O   0  0  0  0  0  0  0  0  0  0  0  0
   17.3623   -0.8589   18.6071 C   0  0  0  0  0  0  0  0  0  0  0  0
   18.2752   -2.3179   18.1043 S   0  0  0  0  0  0  0  0  0  0  0  0
   19.4948   -2.4135   18.8840 O   0  0  0  0  0  0  0  0  0  0  0  0
   17.3354   -3.4267   18.1073 O   0  0  0  0  0  0  0  0  0  0  0  0
   18.7665   -2.0616   16.4121 C   0  0  0  0  0  0  0  0  0  0  0  0
   19.8383   -1.2104   16.1299 C   0  0  0  0  0  0  0  0  0  0  0  0
   20.2444   -1.0322   14.8060 C   0  0  0  0  0  0  0  0  0  0  0  0
   19.5952   -1.7180   13.7798 C   0  0  0  0  0  0  0  0  0  0  0  0
   20.1060   -1.4951   12.1529 Cl  0  0  0  0  0  0  0  0  0  0  0  0
   18.5434   -2.5890   14.0642 C   0  0  0  0  0  0  0  0  0  0  0  0
   18.1273   -2.7688   15.3860 C   0  0  0  0  0  0  0  0  0  0  0  0
   18.3160    0.3480   18.8219 C   0  0  0  0  0  0  0  0  0  0  0  0
   17.7559    1.0780   20.0331 C   0  0  0  0  0  0  0  0  0  0  0  0
   17.3458   -0.0635   20.9402 C   0  0  0  0  0  0  0  0  0  0  0  0
   16.6907   -1.0625   19.9923 C   0  0  0  0  0  0  0  0  0  0  0  0
  1  2  3  0
  2  3  1  0
  3  4  2  0
  4  5  1  0
  5  6  2  0
  6  7  1  0
  7  8  2  0
  8  9  1  0
  9 10  1  0
 10 11  2  0
 10 12  1  0
 12 13  1  0
 13 14  2  0
 13 15  2  0
 13 16  1  0
 16 17  2  0
 17 18  1  0
 18 19  2  0
 19 20  1  0
 19 21  1  0
 21 22  2  0
 12 23  1  0
 23 24  1  0
 24 25  1  0
 25 26  1  0
  8  3  1  0
 26 12  1  0
 22 16  1  0
M  END
>  <ref_mols>  (946) 
B1396a

>  <gnina_score>  (946) 
5.209

>  <smina_score_min>  (946) 
-3.564

>  <ref_pdb>  (946) 
B1396a

>  <inspiration_score>  (946) 
None

>  <inchikey>  (946) 
GNSRUPHNIYEBLS-UHFFFAOYSA-N

>  <tags>  (946) 
BulkDock Fragalysis export,openbind_d68ev3c_c2_elabs_scored,openbind_d68ev3c_c2_elabs_scored_4.5plus,openbind_d68ev3c_c2_elabs,openbind_d68ev3c_c2_elabs_scored_5plus,syndirella_product,openbind_d68ev3c_c2_elabs_scored_top80percent,syndirella_placed

>  <smiles>  (946) 
N#Cc1ccccc1NC(=O)C1(S(=O)(=O)c2ccc(Cl)cc2)CCCC1

>  <subsites>  (946) 
None

>  <rmsd(smina/fragmenstein)>  (946) 
1.598

>  <alias>  (946) 
None

>  <energy_score>  (946) 
-18.479755

>  <HIPPO Pose ID>  (946) 
94977

>  <distance_score>  (946) 
0.401244

>  <HIPPO Compound ID>  (946) 
128831

>  <gnina_score_min>  (946) 
5.046

>  <name>  (946) 
P94977

>  <exports>  (946) 
['/opt/xchem-fragalysis-2/maxwin/BulkDock/OUTPUTS/openbind_d68ev3c_c2_elabs_1LOTQJ3.sdf', '/opt/xchem-fragalysis-2/maxwin/BulkDock/OUTPUTS/openbind_d68ev3c_c2_elabs_1LSYI5W.sdf']

$$$$
P94979
     RDKit          3D

 26 28  0  0  0  0  0  0  0  0999 V2000
   13.7219   -4.2131   17.6082 C   0  0  0  0  0  0  0  0  0  0  0  0
   13.2994   -3.0225   16.7896 C   0  0  0  0  0  0  0  0  0  0  0  0
   12.1147   -3.1037   16.0354 C   0  0  0  0  0  0  0  0  0  0  0  0
   11.6781   -2.0249   15.2704 C   0  0  0  0  0  0  0  0  0  0  0  0
   12.4301   -0.8605   15.2567 C   0  0  0  0  0  0  0  0  0  0  0  0
   12.0121    0.1815   14.5266 F   0  0  0  0  0  0  0  0  0  0  0  0
   13.6116   -0.7570   15.9843 C   0  0  0  0  0  0  0  0  0  0  0  0
   14.0526   -1.8344   16.7555 C   0  0  0  0  0  0  0  0  0  0  0  0
   15.2400   -1.7461   17.4858 N   0  0  0  0  0  0  0  0  0  0  0  0
   16.2489   -0.5616   17.6434 C   0  0  0  0  0  0  0  0  0  0  0  0
   16.2738    0.4880   17.1232 O   0  0  0  0  0  0  0  0  0  0  0  0
   17.2908   -0.9361   18.7199 C   0  0  0  0  0  0  0  0  0  0  0  0
   18.2220   -2.3698   18.1560 S   0  0  0  0  0  0  0  0  0  0  0  0
   19.4584   -2.4551   18.9117 O   0  0  0  0  0  0  0  0  0  0  0  0
   17.3118   -3.5050   18.1589 O   0  0  0  0  0  0  0  0  0  0  0  0
   18.6821   -2.0774   16.4582 C   0  0  0  0  0  0  0  0  0  0  0  0
   17.9314   -2.6475   15.4227 C   0  0  0  0  0  0  0  0  0  0  0  0
   18.3291   -2.4555   14.0963 C   0  0  0  0  0  0  0  0  0  0  0  0
   19.4782   -1.7167   13.8146 C   0  0  0  0  0  0  0  0  0  0  0  0
   19.9656   -1.4796   12.1828 Cl  0  0  0  0  0  0  0  0  0  0  0  0
   20.2408   -1.1742   14.8477 C   0  0  0  0  0  0  0  0  0  0  0  0
   19.8507   -1.3634   16.1752 C   0  0  0  0  0  0  0  0  0  0  0  0
   16.6069   -1.2359   20.0851 C   0  0  0  0  0  0  0  0  0  0  0  0
   17.0697   -0.1513   21.0517 C   0  0  0  0  0  0  0  0  0  0  0  0
   18.4421    0.2282   20.5413 C   0  0  0  0  0  0  0  0  0  0  0  0
   18.2407    0.2525   19.0330 C   0  0  0  0  0  0  0  0  0  0  0  0
  1  2  1  0
  2  3  2  0
  3  4  1  0
  4  5  2  0
  5  6  1  0
  5  7  1  0
  7  8  2  0
  8  9  1  0
  9 10  1  0
 10 11  2  0
 10 12  1  0
 12 13  1  0
 13 14  2  0
 13 15  2  0
 13 16  1  0
 16 17  2  0
 17 18  1  0
 18 19  2  0
 19 20  1  0
 19 21  1  0
 21 22  2  0
 12 23  1  0
 23 24  1  0
 24 25  1  0
 25 26  1  0
  8  2  1  0
 26 12  1  0
 22 16  1  0
M  END
>  <ref_mols>  (947) 
B1396a

>  <gnina_score>  (947) 
5.168

>  <smina_score_min>  (947) 
-3.949

>  <ref_pdb>  (947) 
B1396a

>  <inspiration_score>  (947) 
None

>  <inchikey>  (947) 
IYQFQGFBUBLCGG-UHFFFAOYSA-N

>  <tags>  (947) 
BulkDock Fragalysis export,openbind_d68ev3c_c2_elabs_scored,openbind_d68ev3c_c2_elabs_scored_4.5plus,openbind_d68ev3c_c2_elabs,openbind_d68ev3c_c2_elabs_scored_5plus,syndirella_product,openbind_d68ev3c_c2_elabs_scored_top80percent,syndirella_placed

>  <smiles>  (947) 
Cc1ccc(F)cc1NC(=O)C1(S(=O)(=O)c2ccc(Cl)cc2)CCCC1

>  <subsites>  (947) 
None

>  <rmsd(smina/fragmenstein)>  (947) 
2.138

>  <alias>  (947) 
None

>  <energy_score>  (947) 
-48.067614

>  <HIPPO Pose ID>  (947) 
94979

>  <distance_score>  (947) 
0.443573

>  <HIPPO Compound ID>  (947) 
128833

>  <gnina_score_min>  (947) 
5.106

>  <name>  (947) 
P94979

>  <exports>  (947) 
['/opt/xchem-fragalysis-2/maxwin/BulkDock/OUTPUTS/openbind_d68ev3c_c2_elabs_1LOTQJ3.sdf', '/opt/xchem-fragalysis-2/maxwin/BulkDock/OUTPUTS/openbind_d68ev3c_c2_elabs_1LSYI5W.sdf']

$$$$
P94982
     RDKit          3D

 26 28  0  0  0  0  0  0  0  0999 V2000
   13.7121   -3.6196   17.3021 C   0  0  0  0  0  0  0  0  0  0  0  0
   13.5083   -2.2204   16.7710 C   0  0  0  0  0  0  0  0  0  0  0  0
   12.5257   -1.8971   15.8144 C   0  0  0  0  0  0  0  0  0  0  0  0
   11.4740   -3.2562   14.7060 I   0  0  0  0  0  0  0  0  0  0  0  0
   12.2735   -0.5776   15.4241 C   0  0  0  0  0  0  0  0  0  0  0  0
   13.0599    0.4449   15.9106 C   0  0  0  0  0  0  0  0  0  0  0  0
   14.1177    0.1407   16.7563 C   0  0  0  0  0  0  0  0  0  0  0  0
   14.3563   -1.1723   17.1825 C   0  0  0  0  0  0  0  0  0  0  0  0
   15.4778   -1.4194   17.9776 N   0  0  0  0  0  0  0  0  0  0  0  0
   16.6792   -0.4899   18.3566 C   0  0  0  0  0  0  0  0  0  0  0  0
   16.8659    0.6434   18.1209 O   0  0  0  0  0  0  0  0  0  0  0  0
   17.6572   -1.2702   19.2398 C   0  0  0  0  0  0  0  0  0  0  0  0
   18.3430   -2.6336   18.3099 S   0  0  0  0  0  0  0  0  0  0  0  0
   19.6397   -2.9754   18.8634 O   0  0  0  0  0  0  0  0  0  0  0  0
   17.3065   -3.6524   18.2324 O   0  0  0  0  0  0  0  0  0  0  0  0
   18.6557   -2.1073   16.6334 C   0  0  0  0  0  0  0  0  0  0  0  0
   17.8465   -2.5844   15.5932 C   0  0  0  0  0  0  0  0  0  0  0  0
   18.1604   -2.2663   14.2686 C   0  0  0  0  0  0  0  0  0  0  0  0
   19.2829   -1.4876   13.9895 C   0  0  0  0  0  0  0  0  0  0  0  0
   19.6685   -1.0937   12.3610 Cl  0  0  0  0  0  0  0  0  0  0  0  0
   20.0978   -1.0266   15.0232 C   0  0  0  0  0  0  0  0  0  0  0  0
   19.7921   -1.3444   16.3496 C   0  0  0  0  0  0  0  0  0  0  0  0
   16.9680   -1.7409   20.5352 C   0  0  0  0  0  0  0  0  0  0  0  0
   18.0936   -1.9476   21.5384 C   0  0  0  0  0  0  0  0  0  0  0  0
   19.1671   -0.9359   21.1652 C   0  0  0  0  0  0  0  0  0  0  0  0
   18.7602   -0.3507   19.8122 C   0  0  0  0  0  0  0  0  0  0  0  0
  1  2  1  0
  2  3  2  0
  3  4  1  0
  3  5  1  0
  5  6  2  0
  6  7  1  0
  7  8  2  0
  8  9  1  0
  9 10  1  0
 10 11  2  0
 10 12  1  0
 12 13  1  0
 13 14  2  0
 13 15  2  0
 13 16  1  0
 16 17  2  0
 17 18  1  0
 18 19  2  0
 19 20  1  0
 19 21  1  0
 21 22  2  0
 12 23  1  0
 23 24  1  0
 24 25  1  0
 25 26  1  0
  8  2  1  0
 26 12  1  0
 22 16  1  0
M  END
>  <ref_mols>  (948) 
B1396a

>  <gnina_score>  (948) 
5.321

>  <smina_score_min>  (948) 
-3.587

>  <ref_pdb>  (948) 
B1396a

>  <inspiration_score>  (948) 
None

>  <inchikey>  (948) 
CZULHBIWKOMUHS-UHFFFAOYSA-N

>  <tags>  (948) 
BulkDock Fragalysis export,openbind_d68ev3c_c2_elabs_scored,openbind_d68ev3c_c2_elabs_scored_4.5plus,openbind_d68ev3c_c2_elabs,openbind_d68ev3c_c2_elabs_scored_5plus,syndirella_product,openbind_d68ev3c_c2_elabs_scored_top80percent,syndirella_placed

>  <smiles>  (948) 
Cc1c(I)cccc1NC(=O)C1(S(=O)(=O)c2ccc(Cl)cc2)CCCC1

>  <subsites>  (948) 
None

>  <rmsd(smina/fragmenstein)>  (948) 
3.323

>  <alias>  (948) 
None

>  <energy_score>  (948) 
-49.1773

>  <HIPPO Pose ID>  (948) 
94982

>  <distance_score>  (948) 
1.085561

>  <HIPPO Compound ID>  (948) 
128836

>  <gnina_score_min>  (948) 
5.127

>  <name>  (948) 
P94982

>  <exports>  (948) 
['/opt/xchem-fragalysis-2/maxwin/BulkDock/OUTPUTS/openbind_d68ev3c_c2_elabs_1LOTQJ3.sdf', '/opt/xchem-fragalysis-2/maxwin/BulkDock/OUTPUTS/openbind_d68ev3c_c2_elabs_1LSYI5W.sdf']

$$$$
P94983
     RDKit          3D

 26 28  0  0  0  0  0  0  0  0999 V2000
   13.8887   -4.2541   17.7512 C   0  0  0  0  0  0  0  0  0  0  0  0
   13.4066   -3.0823   16.9426 C   0  0  0  0  0  0  0  0  0  0  0  0
   12.2173   -3.2137   16.2106 C   0  0  0  0  0  0  0  0  0  0  0  0
   11.7315   -2.1546   15.4566 C   0  0  0  0  0  0  0  0  0  0  0  0
   10.5776   -2.2977   14.7965 F   0  0  0  0  0  0  0  0  0  0  0  0
   12.4127   -0.9502   15.4024 C   0  0  0  0  0  0  0  0  0  0  0  0
   13.6003   -0.8037   16.1218 C   0  0  0  0  0  0  0  0  0  0  0  0
   14.0992   -1.8591   16.8966 C   0  0  0  0  0  0  0  0  0  0  0  0
   15.2669   -1.6922   17.6424 N   0  0  0  0  0  0  0  0  0  0  0  0
   16.3231   -0.5385   17.6301 C   0  0  0  0  0  0  0  0  0  0  0  0
   16.3288    0.4788   17.0481 O   0  0  0  0  0  0  0  0  0  0  0  0
   17.4325   -0.8688   18.6566 C   0  0  0  0  0  0  0  0  0  0  0  0
   18.2934   -2.3492   18.1283 S   0  0  0  0  0  0  0  0  0  0  0  0
   17.3337   -3.4424   18.1535 O   0  0  0  0  0  0  0  0  0  0  0  0
   19.5260   -2.4764   18.8835 O   0  0  0  0  0  0  0  0  0  0  0  0
   18.7528   -2.0891   16.4282 C   0  0  0  0  0  0  0  0  0  0  0  0
   19.8983   -1.3429   16.1358 C   0  0  0  0  0  0  0  0  0  0  0  0
   20.2803   -1.1604   14.8056 C   0  0  0  0  0  0  0  0  0  0  0  0
   19.5308   -1.7375   13.7812 C   0  0  0  0  0  0  0  0  0  0  0  0
   20.0087   -1.5079   12.1455 Cl  0  0  0  0  0  0  0  0  0  0  0  0
   18.4016   -2.5028   14.0742 C   0  0  0  0  0  0  0  0  0  0  0  0
   18.0109   -2.6884   15.4033 C   0  0  0  0  0  0  0  0  0  0  0  0
   16.8245   -1.0460   20.0740 C   0  0  0  0  0  0  0  0  0  0  0  0
   17.5512   -0.0581   20.9803 C   0  0  0  0  0  0  0  0  0  0  0  0
   17.9405    1.0686   20.0456 C   0  0  0  0  0  0  0  0  0  0  0  0
   18.4210    0.3195   18.8121 C   0  0  0  0  0  0  0  0  0  0  0  0
  1  2  1  0
  2  3  2  0
  3  4  1  0
  4  5  1  0
  4  6  2  0
  6  7  1  0
  7  8  2  0
  8  9  1  0
  9 10  1  0
 10 11  2  0
 10 12  1  0
 12 13  1  0
 13 14  2  0
 13 15  2  0
 13 16  1  0
 16 17  2  0
 17 18  1  0
 18 19  2  0
 19 20  1  0
 19 21  1  0
 21 22  2  0
 12 23  1  0
 23 24  1  0
 24 25  1  0
 25 26  1  0
  8  2  1  0
 26 12  1  0
 22 16  1  0
M  END
>  <ref_mols>  (949) 
B1396a

>  <gnina_score>  (949) 
5.16

>  <smina_score_min>  (949) 
-3.683

>  <ref_pdb>  (949) 
B1396a

>  <inspiration_score>  (949) 
None

>  <inchikey>  (949) 
MXOYWZVBUVXESP-UHFFFAOYSA-N

>  <tags>  (949) 
BulkDock Fragalysis export,openbind_d68ev3c_c2_elabs_scored,openbind_d68ev3c_c2_elabs_scored_4.5plus,openbind_d68ev3c_c2_elabs,openbind_d68ev3c_c2_elabs_scored_5plus,syndirella_product,openbind_d68ev3c_c2_elabs_scored_top80percent,syndirella_placed

>  <smiles>  (949) 
Cc1cc(F)ccc1NC(=O)C1(S(=O)(=O)c2ccc(Cl)cc2)CCCC1

>  <subsites>  (949) 
None

>  <rmsd(smina/fragmenstein)>  (949) 
1.38

>  <alias>  (949) 
None

>  <energy_score>  (949) 
-19.277667

>  <HIPPO Pose ID>  (949) 
94983

>  <distance_score>  (949) 
0.435818

>  <HIPPO Compound ID>  (949) 
128837

>  <gnina_score_min>  (949) 
5.096

>  <name>  (949) 
P94983

>  <exports>  (949) 
['/opt/xchem-fragalysis-2/maxwin/BulkDock/OUTPUTS/openbind_d68ev3c_c2_elabs_1LOTQJ3.sdf', '/opt/xchem-fragalysis-2/maxwin/BulkDock/OUTPUTS/openbind_d68ev3c_c2_elabs_1LSYI5W.sdf']

$$$$
P94984
     RDKit          3D

 26 28  0  0  0  0  0  0  0  0999 V2000
   13.7313   -4.0375   17.4764 C   0  0  0  0  0  0  0  0  0  0  0  0
   13.4237   -2.7094   16.8369 C   0  0  0  0  0  0  0  0  0  0  0  0
   12.1669   -2.5176   16.2297 C   0  0  0  0  0  0  0  0  0  0  0  0
   11.8016   -1.2566   15.7532 C   0  0  0  0  0  0  0  0  0  0  0  0
    9.8495   -0.7927   15.2517 I   0  0  0  0  0  0  0  0  0  0  0  0
   12.7162   -0.2145   15.7496 C   0  0  0  0  0  0  0  0  0  0  0  0
   13.9713   -0.4034   16.3137 C   0  0  0  0  0  0  0  0  0  0  0  0
   14.3150   -1.6230   16.9017 C   0  0  0  0  0  0  0  0  0  0  0  0
   15.5151   -1.7153   17.6039 N   0  0  0  0  0  0  0  0  0  0  0  0
   16.6485   -0.6578   17.8214 C   0  0  0  0  0  0  0  0  0  0  0  0
   16.7763    0.4203   17.3782 O   0  0  0  0  0  0  0  0  0  0  0  0
   17.6608   -1.2011   18.8467 C   0  0  0  0  0  0  0  0  0  0  0  0
   18.4494   -2.6344   18.1514 S   0  0  0  0  0  0  0  0  0  0  0  0
   17.4422   -3.6843   18.1163 O   0  0  0  0  0  0  0  0  0  0  0  0
   19.7040   -2.8649   18.8409 O   0  0  0  0  0  0  0  0  0  0  0  0
   18.8595   -2.2440   16.4634 C   0  0  0  0  0  0  0  0  0  0  0  0
   19.9378   -1.3954   16.1989 C   0  0  0  0  0  0  0  0  0  0  0  0
   20.2769   -1.1076   14.8752 C   0  0  0  0  0  0  0  0  0  0  0  0
   19.5531   -1.6810   13.8299 C   0  0  0  0  0  0  0  0  0  0  0  0
   19.9802   -1.3217   12.2033 Cl  0  0  0  0  0  0  0  0  0  0  0  0
   18.4915   -2.5464   14.0941 C   0  0  0  0  0  0  0  0  0  0  0  0
   18.1426   -2.8355   15.4160 C   0  0  0  0  0  0  0  0  0  0  0  0
   18.6796   -0.1172   19.2565 C   0  0  0  0  0  0  0  0  0  0  0  0
   17.9741    0.7206   20.3231 C   0  0  0  0  0  0  0  0  0  0  0  0
   16.8552   -0.1534   20.8797 C   0  0  0  0  0  0  0  0  0  0  0  0
   17.0103   -1.5116   20.2042 C   0  0  0  0  0  0  0  0  0  0  0  0
  1  2  1  0
  2  3  2  0
  3  4  1  0
  4  5  1  0
  4  6  2  0
  6  7  1  0
  7  8  2  0
  8  9  1  0
  9 10  1  0
 10 11  2  0
 10 12  1  0
 12 13  1  0
 13 14  2  0
 13 15  2  0
 13 16  1  0
 16 17  2  0
 17 18  1  0
 18 19  2  0
 19 20  1  0
 19 21  1  0
 21 22  2  0
 12 23  1  0
 23 24  1  0
 24 25  1  0
 25 26  1  0
  8  2  1  0
 26 12  1  0
 22 16  1  0
M  END
>  <ref_mols>  (950) 
B1396a

>  <gnina_score>  (950) 
5.534

>  <smina_score_min>  (950) 
-3.284

>  <ref_pdb>  (950) 
B1396a

>  <inspiration_score>  (950) 
None

>  <inchikey>  (950) 
ZFRDEFOEQMUIQA-UHFFFAOYSA-N

>  <tags>  (950) 
BulkDock Fragalysis export,openbind_d68ev3c_c2_elabs_scored,openbind_d68ev3c_c2_elabs_scored_4.5plus,openbind_d68ev3c_c2_elabs,openbind_d68ev3c_c2_elabs_scored_5plus,syndirella_product,openbind_d68ev3c_c2_elabs_scored_top80percent,syndirella_placed

>  <smiles>  (950) 
Cc1cc(I)ccc1NC(=O)C1(S(=O)(=O)c2ccc(Cl)cc2)CCCC1

>  <subsites>  (950) 
None

>  <rmsd(smina/fragmenstein)>  (950) 
3.139

>  <alias>  (950) 
None

>  <energy_score>  (950) 
-22.815704

>  <HIPPO Pose ID>  (950) 
94984

>  <distance_score>  (950) 
0.673687

>  <HIPPO Compound ID>  (950) 
128838

>  <gnina_score_min>  (950) 
5.075

>  <name>  (950) 
P94984

>  <exports>  (950) 
['/opt/xchem-fragalysis-2/maxwin/BulkDock/OUTPUTS/openbind_d68ev3c_c2_elabs_1LOTQJ3.sdf', '/opt/xchem-fragalysis-2/maxwin/BulkDock/OUTPUTS/openbind_d68ev3c_c2_elabs_1LSYI5W.sdf']

$$$$
P94985
     RDKit          3D

 26 28  0  0  0  0  0  0  0  0999 V2000
   13.8193   -4.0374   17.6122 C   0  0  0  0  0  0  0  0  0  0  0  0
   13.2824   -2.8780   16.8077 C   0  0  0  0  0  0  0  0  0  0  0  0
   12.1434   -3.1156   16.0159 C   0  0  0  0  0  0  0  0  0  0  0  0
   11.5922   -2.1137   15.2308 C   0  0  0  0  0  0  0  0  0  0  0  0
   12.1475   -0.8428   15.2661 C   0  0  0  0  0  0  0  0  0  0  0  0
   13.2760   -0.5705   16.0620 C   0  0  0  0  0  0  0  0  0  0  0  0
   13.6674    1.4976   16.2469 I   0  0  0  0  0  0  0  0  0  0  0  0
   13.8974   -1.5991   16.8016 C   0  0  0  0  0  0  0  0  0  0  0  0
   15.0708   -1.4623   17.5714 N   0  0  0  0  0  0  0  0  0  0  0  0
   16.3198   -0.5394   17.3658 C   0  0  0  0  0  0  0  0  0  0  0  0
   16.5224    0.2973   16.5704 O   0  0  0  0  0  0  0  0  0  0  0  0
   17.3433   -0.8116   18.4931 C   0  0  0  0  0  0  0  0  0  0  0  0
   18.1791   -2.3483   18.0870 S   0  0  0  0  0  0  0  0  0  0  0  0
   17.1878   -3.4111   18.1116 O   0  0  0  0  0  0  0  0  0  0  0  0
   19.3667   -2.4738   18.9127 O   0  0  0  0  0  0  0  0  0  0  0  0
   18.7348   -2.1763   16.4023 C   0  0  0  0  0  0  0  0  0  0  0  0
   17.9913   -2.7420   15.3602 C   0  0  0  0  0  0  0  0  0  0  0  0
   18.4341   -2.5929   14.0427 C   0  0  0  0  0  0  0  0  0  0  0  0
   19.6158   -1.8995   13.7794 C   0  0  0  0  0  0  0  0  0  0  0  0
   20.1570   -1.7146   12.1574 Cl  0  0  0  0  0  0  0  0  0  0  0  0
   20.3673   -1.3596   14.8220 C   0  0  0  0  0  0  0  0  0  0  0  0
   19.9335   -1.5057   16.1407 C   0  0  0  0  0  0  0  0  0  0  0  0
   18.3704    0.3549   18.6102 C   0  0  0  0  0  0  0  0  0  0  0  0
   17.9544    1.1370   19.8478 C   0  0  0  0  0  0  0  0  0  0  0  0
   17.5079    0.0428   20.7936 C   0  0  0  0  0  0  0  0  0  0  0  0
   16.6860   -0.8729   19.8964 C   0  0  0  0  0  0  0  0  0  0  0  0
  1  2  1  0
  2  3  2  0
  3  4  1  0
  4  5  2  0
  5  6  1  0
  6  7  1  0
  6  8  2  0
  8  9  1  0
  9 10  1  0
 10 11  2  0
 10 12  1  0
 12 13  1  0
 13 14  2  0
 13 15  2  0
 13 16  1  0
 16 17  2  0
 17 18  1  0
 18 19  2  0
 19 20  1  0
 19 21  1  0
 21 22  2  0
 12 23  1  0
 23 24  1  0
 24 25  1  0
 25 26  1  0
  8  2  1  0
 26 12  1  0
 22 16  1  0
M  END
>  <ref_mols>  (951) 
B1396a

>  <gnina_score>  (951) 
5.239

>  <smina_score_min>  (951) 
-3.952

>  <ref_pdb>  (951) 
B1396a

>  <inspiration_score>  (951) 
None

>  <inchikey>  (951) 
LHHJVXSMTRBALS-UHFFFAOYSA-N

>  <tags>  (951) 
BulkDock Fragalysis export,openbind_d68ev3c_c2_elabs_scored,openbind_d68ev3c_c2_elabs_scored_4.5plus,openbind_d68ev3c_c2_elabs,openbind_d68ev3c_c2_elabs_scored_5plus,syndirella_product,openbind_d68ev3c_c2_elabs_scored_top80percent,syndirella_placed

>  <smiles>  (951) 
Cc1cccc(I)c1NC(=O)C1(S(=O)(=O)c2ccc(Cl)cc2)CCCC1

>  <subsites>  (951) 
None

>  <rmsd(smina/fragmenstein)>  (951) 
2.709

>  <alias>  (951) 
None

>  <energy_score>  (951) 
-23.338306

>  <HIPPO Pose ID>  (951) 
94985

>  <distance_score>  (951) 
0.385885

>  <HIPPO Compound ID>  (951) 
128839

>  <gnina_score_min>  (951) 
5.093

>  <name>  (951) 
P94985

>  <exports>  (951) 
['/opt/xchem-fragalysis-2/maxwin/BulkDock/OUTPUTS/openbind_d68ev3c_c2_elabs_1LOTQJ3.sdf', '/opt/xchem-fragalysis-2/maxwin/BulkDock/OUTPUTS/openbind_d68ev3c_c2_elabs_1LSYI5W.sdf']

$$$$
P94986
     RDKit          3D

 26 28  0  0  0  0  0  0  0  0999 V2000
   16.3863    0.4652   16.7554 O   0  0  0  0  0  0  0  0  0  0  0  0
   16.3578   -0.4744   17.4551 C   0  0  0  0  0  0  0  0  0  0  0  0
   15.3378   -1.6575   17.5201 N   0  0  0  0  0  0  0  0  0  0  0  0
   14.1430   -1.8630   16.8273 C   0  0  0  0  0  0  0  0  0  0  0  0
   13.6960   -0.9143   15.9003 C   0  0  0  0  0  0  0  0  0  0  0  0
   12.5279   -1.1257   15.1638 C   0  0  0  0  0  0  0  0  0  0  0  0
   11.8048   -2.2984   15.3325 C   0  0  0  0  0  0  0  0  0  0  0  0
   12.2376   -3.2432   16.2617 C   0  0  0  0  0  0  0  0  0  0  0  0
   13.3917   -3.0324   17.0429 C   0  0  0  0  0  0  0  0  0  0  0  0
   13.7355   -4.0553   18.0992 C   0  0  0  0  0  0  0  0  0  0  0  0
   14.9823   -5.2579   17.5971 S   0  0  0  0  0  0  0  0  0  0  0  0
   17.4385   -0.6870   18.5409 C   0  0  0  0  0  0  0  0  0  0  0  0
   18.3610   -2.1667   18.1454 S   0  0  0  0  0  0  0  0  0  0  0  0
   17.4365   -3.2850   18.2553 O   0  0  0  0  0  0  0  0  0  0  0  0
   19.5873   -2.1873   18.9201 O   0  0  0  0  0  0  0  0  0  0  0  0
   18.8338   -2.0256   16.4359 C   0  0  0  0  0  0  0  0  0  0  0  0
   18.1493   -2.7477   15.4514 C   0  0  0  0  0  0  0  0  0  0  0  0
   18.5491   -2.6342   14.1167 C   0  0  0  0  0  0  0  0  0  0  0  0
   19.6286   -1.8174   13.7791 C   0  0  0  0  0  0  0  0  0  0  0  0
   20.1171   -1.6787   12.1363 Cl  0  0  0  0  0  0  0  0  0  0  0  0
   20.3223   -1.1179   14.7654 C   0  0  0  0  0  0  0  0  0  0  0  0
   19.9325   -1.2282   16.1009 C   0  0  0  0  0  0  0  0  0  0  0  0
   18.3555    0.5458   18.6670 C   0  0  0  0  0  0  0  0  0  0  0  0
   17.5918    1.5287   19.5541 C   0  0  0  0  0  0  0  0  0  0  0  0
   16.5717    0.7002   20.3284 C   0  0  0  0  0  0  0  0  0  0  0  0
   16.8448   -0.7532   19.9568 C   0  0  0  0  0  0  0  0  0  0  0  0
  1  2  2  0
  2  3  1  0
  3  4  1  0
  4  5  2  0
  5  6  1  0
  6  7  2  0
  7  8  1  0
  8  9  2  0
  9 10  1  0
 10 11  1  0
  2 12  1  0
 12 13  1  0
 13 14  2  0
 13 15  2  0
 13 16  1  0
 16 17  2  0
 17 18  1  0
 18 19  2  0
 19 20  1  0
 19 21  1  0
 21 22  2  0
 12 23  1  0
 23 24  1  0
 24 25  1  0
 25 26  1  0
  9  4  1  0
 26 12  1  0
 22 16  1  0
M  END
>  <ref_mols>  (952) 
B1396a

>  <gnina_score>  (952) 
5.232

>  <smina_score_min>  (952) 
-3.24

>  <ref_pdb>  (952) 
B1396a

>  <inspiration_score>  (952) 
None

>  <inchikey>  (952) 
WWRDYRIHRURCBE-UHFFFAOYSA-N

>  <tags>  (952) 
BulkDock Fragalysis export,openbind_d68ev3c_c2_elabs_scored,openbind_d68ev3c_c2_elabs_scored_4.5plus,openbind_d68ev3c_c2_elabs,openbind_d68ev3c_c2_elabs_scored_5plus,syndirella_product,openbind_d68ev3c_c2_elabs_scored_top80percent,syndirella_placed

>  <smiles>  (952) 
O=C(Nc1ccccc1CS)C1(S(=O)(=O)c2ccc(Cl)cc2)CCCC1

>  <subsites>  (952) 
None

>  <rmsd(smina/fragmenstein)>  (952) 
2.323

>  <alias>  (952) 
None

>  <energy_score>  (952) 
-51.988639

>  <HIPPO Pose ID>  (952) 
94986

>  <distance_score>  (952) 
0.471384

>  <HIPPO Compound ID>  (952) 
128840

>  <gnina_score_min>  (952) 
5.133

>  <name>  (952) 
P94986

>  <exports>  (952) 
['/opt/xchem-fragalysis-2/maxwin/BulkDock/OUTPUTS/openbind_d68ev3c_c2_elabs_1LOTQJ3.sdf', '/opt/xchem-fragalysis-2/maxwin/BulkDock/OUTPUTS/openbind_d68ev3c_c2_elabs_1LSYI5W.sdf']

$$$$
P94989
     RDKit          3D

 26 28  0  0  0  0  0  0  0  0999 V2000
   13.7588   -4.1718   17.6270 C   0  0  0  0  0  0  0  0  0  0  0  0
   13.2995   -2.9863   16.8198 C   0  0  0  0  0  0  0  0  0  0  0  0
   12.1348   -3.1192   16.0387 C   0  0  0  0  0  0  0  0  0  0  0  0
   11.6504   -2.0608   15.2736 C   0  0  0  0  0  0  0  0  0  0  0  0
   12.3239   -0.8476   15.2903 C   0  0  0  0  0  0  0  0  0  0  0  0
   13.4804   -0.7017   16.0568 C   0  0  0  0  0  0  0  0  0  0  0  0
   14.0483    0.5094   16.0649 F   0  0  0  0  0  0  0  0  0  0  0  0
   13.9948   -1.7600   16.8197 C   0  0  0  0  0  0  0  0  0  0  0  0
   15.1561   -1.6392   17.6009 N   0  0  0  0  0  0  0  0  0  0  0  0
   16.2641   -0.5339   17.6093 C   0  0  0  0  0  0  0  0  0  0  0  0
   16.3317    0.4773   17.0208 O   0  0  0  0  0  0  0  0  0  0  0  0
   17.3336   -0.8963   18.6651 C   0  0  0  0  0  0  0  0  0  0  0  0
   18.1925   -2.3672   18.1366 S   0  0  0  0  0  0  0  0  0  0  0  0
   19.4156   -2.5063   18.9057 O   0  0  0  0  0  0  0  0  0  0  0  0
   17.2254   -3.4540   18.1419 O   0  0  0  0  0  0  0  0  0  0  0  0
   18.6832   -2.0994   16.4467 C   0  0  0  0  0  0  0  0  0  0  0  0
   19.8286   -1.3423   16.1810 C   0  0  0  0  0  0  0  0  0  0  0  0
   20.2399   -1.1559   14.8601 C   0  0  0  0  0  0  0  0  0  0  0  0
   19.5194   -1.7395   13.8187 C   0  0  0  0  0  0  0  0  0  0  0  0
   20.0339   -1.5069   12.1943 Cl  0  0  0  0  0  0  0  0  0  0  0  0
   18.3901   -2.5145   14.0855 C   0  0  0  0  0  0  0  0  0  0  0  0
   17.9702   -2.7042   15.4052 C   0  0  0  0  0  0  0  0  0  0  0  0
   16.7406   -1.0618   20.0736 C   0  0  0  0  0  0  0  0  0  0  0  0
   16.5295    0.3633   20.5729 C   0  0  0  0  0  0  0  0  0  0  0  0
   17.5884    1.2111   19.8755 C   0  0  0  0  0  0  0  0  0  0  0  0
   18.3058    0.2794   18.8986 C   0  0  0  0  0  0  0  0  0  0  0  0
  1  2  1  0
  2  3  2  0
  3  4  1  0
  4  5  2  0
  5  6  1  0
  6  7  1  0
  6  8  2  0
  8  9  1  0
  9 10  1  0
 10 11  2  0
 10 12  1  0
 12 13  1  0
 13 14  2  0
 13 15  2  0
 13 16  1  0
 16 17  2  0
 17 18  1  0
 18 19  2  0
 19 20  1  0
 19 21  1  0
 21 22  2  0
 12 23  1  0
 23 24  1  0
 24 25  1  0
 25 26  1  0
  8  2  1  0
 26 12  1  0
 22 16  1  0
M  END
>  <ref_mols>  (953) 
B1396a

>  <gnina_score>  (953) 
5.174

>  <smina_score_min>  (953) 
-3.94

>  <ref_pdb>  (953) 
B1396a

>  <inspiration_score>  (953) 
None

>  <inchikey>  (953) 
XKGQQQDSZNBZKT-UHFFFAOYSA-N

>  <tags>  (953) 
BulkDock Fragalysis export,openbind_d68ev3c_c2_elabs_scored,openbind_d68ev3c_c2_elabs_scored_4.5plus,openbind_d68ev3c_c2_elabs,openbind_d68ev3c_c2_elabs_scored_5plus,syndirella_product,openbind_d68ev3c_c2_elabs_scored_top80percent,syndirella_placed

>  <smiles>  (953) 
Cc1cccc(F)c1NC(=O)C1(S(=O)(=O)c2ccc(Cl)cc2)CCCC1

>  <subsites>  (953) 
None

>  <rmsd(smina/fragmenstein)>  (953) 
2.13

>  <alias>  (953) 
None

>  <energy_score>  (953) 
-39.955417

>  <HIPPO Pose ID>  (953) 
94989

>  <distance_score>  (953) 
0.416196

>  <HIPPO Compound ID>  (953) 
128844

>  <gnina_score_min>  (953) 
5.028

>  <name>  (953) 
P94989

>  <exports>  (953) 
['/opt/xchem-fragalysis-2/maxwin/BulkDock/OUTPUTS/openbind_d68ev3c_c2_elabs_1LOTQJ3.sdf', '/opt/xchem-fragalysis-2/maxwin/BulkDock/OUTPUTS/openbind_d68ev3c_c2_elabs_1LSYI5W.sdf']

$$$$
P94990
     RDKit          3D

 26 28  0  0  0  0  0  0  0  0999 V2000
   13.7651   -4.1208   17.5169 C   0  0  0  0  0  0  0  0  0  0  0  0
   13.4139   -2.8127   16.8601 C   0  0  0  0  0  0  0  0  0  0  0  0
   12.1632   -2.6806   16.2298 C   0  0  0  0  0  0  0  0  0  0  0  0
   11.7602   -1.4452   15.7218 C   0  0  0  0  0  0  0  0  0  0  0  0
    9.9796   -1.1426   15.1866 Br  0  0  0  0  0  0  0  0  0  0  0  0
   12.6272   -0.3635   15.7247 C   0  0  0  0  0  0  0  0  0  0  0  0
   13.8807   -0.4930   16.3127 C   0  0  0  0  0  0  0  0  0  0  0  0
   14.2634   -1.6929   16.9188 C   0  0  0  0  0  0  0  0  0  0  0  0
   15.4609   -1.7464   17.6290 N   0  0  0  0  0  0  0  0  0  0  0  0
   16.5796   -0.6678   17.8166 C   0  0  0  0  0  0  0  0  0  0  0  0
   16.6958    0.3964   17.3388 O   0  0  0  0  0  0  0  0  0  0  0  0
   17.5869   -1.1785   18.8540 C   0  0  0  0  0  0  0  0  0  0  0  0
   18.4442   -2.5831   18.1602 S   0  0  0  0  0  0  0  0  0  0  0  0
   17.4921   -3.6834   18.1316 O   0  0  0  0  0  0  0  0  0  0  0  0
   19.7147   -2.7503   18.8390 O   0  0  0  0  0  0  0  0  0  0  0  0
   18.8270   -2.1944   16.4620 C   0  0  0  0  0  0  0  0  0  0  0  0
   18.0528   -2.7403   15.4300 C   0  0  0  0  0  0  0  0  0  0  0  0
   18.3868   -2.4690   14.1003 C   0  0  0  0  0  0  0  0  0  0  0  0
   19.4938   -1.6714   13.8111 C   0  0  0  0  0  0  0  0  0  0  0  0
   19.9022   -1.3338   12.1752 Cl  0  0  0  0  0  0  0  0  0  0  0  0
   20.2776   -1.1489   14.8392 C   0  0  0  0  0  0  0  0  0  0  0  0
   19.9524   -1.4187   16.1703 C   0  0  0  0  0  0  0  0  0  0  0  0
   18.5552   -0.0618   19.2978 C   0  0  0  0  0  0  0  0  0  0  0  0
   18.9704   -0.3829   20.7334 C   0  0  0  0  0  0  0  0  0  0  0  0
   17.9876   -1.4266   21.2438 C   0  0  0  0  0  0  0  0  0  0  0  0
   16.8959   -1.5186   20.1871 C   0  0  0  0  0  0  0  0  0  0  0  0
  1  2  1  0
  2  3  2  0
  3  4  1  0
  4  5  1  0
  4  6  2  0
  6  7  1  0
  7  8  2  0
  8  9  1  0
  9 10  1  0
 10 11  2  0
 10 12  1  0
 12 13  1  0
 13 14  2  0
 13 15  2  0
 13 16  1  0
 16 17  2  0
 17 18  1  0
 18 19  2  0
 19 20  1  0
 19 21  1  0
 21 22  2  0
 12 23  1  0
 23 24  1  0
 24 25  1  0
 25 26  1  0
  8  2  1  0
 26 12  1  0
 22 16  1  0
M  END
>  <ref_mols>  (954) 
B1396a

>  <gnina_score>  (954) 
5.496

>  <smina_score_min>  (954) 
-3.852

>  <ref_pdb>  (954) 
B1396a

>  <inspiration_score>  (954) 
None

>  <inchikey>  (954) 
OPVRCHXBFREFGV-UHFFFAOYSA-N

>  <tags>  (954) 
BulkDock Fragalysis export,openbind_d68ev3c_c2_elabs_scored,openbind_d68ev3c_c2_elabs_scored_4.5plus,openbind_d68ev3c_c2_elabs,openbind_d68ev3c_c2_elabs_scored_5plus,syndirella_product,openbind_d68ev3c_c2_elabs_scored_top80percent,syndirella_placed

>  <smiles>  (954) 
Cc1cc(Br)ccc1NC(=O)C1(S(=O)(=O)c2ccc(Cl)cc2)CCCC1

>  <subsites>  (954) 
None

>  <rmsd(smina/fragmenstein)>  (954) 
2.502

>  <alias>  (954) 
None

>  <energy_score>  (954) 
-31.418952

>  <HIPPO Pose ID>  (954) 
94990

>  <distance_score>  (954) 
0.607884

>  <HIPPO Compound ID>  (954) 
128845

>  <gnina_score_min>  (954) 
5.169

>  <name>  (954) 
P94990

>  <exports>  (954) 
['/opt/xchem-fragalysis-2/maxwin/BulkDock/OUTPUTS/openbind_d68ev3c_c2_elabs_1LOTQJ3.sdf', '/opt/xchem-fragalysis-2/maxwin/BulkDock/OUTPUTS/openbind_d68ev3c_c2_elabs_1LSYI5W.sdf']

$$$$
P94991
     RDKit          3D

 26 28  0  0  0  0  0  0  0  0999 V2000
   10.5242   -1.6779   14.9137 C   0  0  0  0  0  0  0  0  0  0  0  0
   11.8385   -1.7312   15.6205 C   0  0  0  0  0  0  0  0  0  0  0  0
   12.6079   -0.5740   15.7130 C   0  0  0  0  0  0  0  0  0  0  0  0
   13.8040   -0.5839   16.4234 C   0  0  0  0  0  0  0  0  0  0  0  0
   14.2399   -1.7423   17.0701 C   0  0  0  0  0  0  0  0  0  0  0  0
   15.4168   -1.7043   17.8179 N   0  0  0  0  0  0  0  0  0  0  0  0
   16.5249   -0.6029   17.9125 C   0  0  0  0  0  0  0  0  0  0  0  0
   16.5743    0.4672   17.4359 O   0  0  0  0  0  0  0  0  0  0  0  0
   17.6239   -1.0789   18.8845 C   0  0  0  0  0  0  0  0  0  0  0  0
   18.4044   -2.5324   18.1953 S   0  0  0  0  0  0  0  0  0  0  0  0
   19.6672   -2.7555   18.8738 O   0  0  0  0  0  0  0  0  0  0  0  0
   17.4076   -3.5923   18.1839 O   0  0  0  0  0  0  0  0  0  0  0  0
   18.7921   -2.1608   16.4971 C   0  0  0  0  0  0  0  0  0  0  0  0
   19.9232   -1.3936   16.2041 C   0  0  0  0  0  0  0  0  0  0  0  0
   20.2546   -1.1368   14.8721 C   0  0  0  0  0  0  0  0  0  0  0  0
   19.4689   -1.6601   13.8455 C   0  0  0  0  0  0  0  0  0  0  0  0
   19.8850   -1.3387   12.2082 Cl  0  0  0  0  0  0  0  0  0  0  0  0
   18.3521   -2.4433   14.1374 C   0  0  0  0  0  0  0  0  0  0  0  0
   18.0120   -2.7026   15.4680 C   0  0  0  0  0  0  0  0  0  0  0  0
   18.6669    0.0443   19.1396 C   0  0  0  0  0  0  0  0  0  0  0  0
   18.2280    0.6953   20.4424 C   0  0  0  0  0  0  0  0  0  0  0  0
   17.7967   -0.4960   21.2726 C   0  0  0  0  0  0  0  0  0  0  0  0
   17.0238   -1.3660   20.2868 C   0  0  0  0  0  0  0  0  0  0  0  0
   13.4770   -2.9195   16.9866 C   0  0  0  0  0  0  0  0  0  0  0  0
   13.8825   -4.1918   17.6777 C   0  0  0  0  0  0  0  0  0  0  0  0
   12.2799   -2.9008   16.2493 C   0  0  0  0  0  0  0  0  0  0  0  0
  1  2  1  0
  2  3  2  0
  3  4  1  0
  4  5  2  0
  5  6  1  0
  6  7  1  0
  7  8  2  0
  7  9  1  0
  9 10  1  0
 10 11  2  0
 10 12  2  0
 10 13  1  0
 13 14  2  0
 14 15  1  0
 15 16  2  0
 16 17  1  0
 16 18  1  0
 18 19  2  0
  9 20  1  0
 20 21  1  0
 21 22  1  0
 22 23  1  0
  5 24  1  0
 24 25  1  0
 24 26  2  0
 26  2  1  0
 23  9  1  0
 19 13  1  0
M  END
>  <ref_mols>  (955) 
B1396a

>  <gnina_score>  (955) 
5.242

>  <smina_score_min>  (955) 
-3.459

>  <ref_pdb>  (955) 
B1396a

>  <inspiration_score>  (955) 
None

>  <inchikey>  (955) 
AYRNBQPBIRLLLX-UHFFFAOYSA-N

>  <tags>  (955) 
BulkDock Fragalysis export,openbind_d68ev3c_c2_elabs_scored,openbind_d68ev3c_c2_elabs_scored_4.5plus,openbind_d68ev3c_c2_elabs,openbind_d68ev3c_c2_elabs_scored_5plus,syndirella_product,openbind_d68ev3c_c2_elabs_scored_top80percent,syndirella_placed

>  <smiles>  (955) 
Cc1ccc(NC(=O)C2(S(=O)(=O)c3ccc(Cl)cc3)CCCC2)c(C)c1

>  <subsites>  (955) 
None

>  <rmsd(smina/fragmenstein)>  (955) 
1.964

>  <alias>  (955) 
None

>  <energy_score>  (955) 
-57.119717

>  <HIPPO Pose ID>  (955) 
94991

>  <distance_score>  (955) 
0.592485

>  <HIPPO Compound ID>  (955) 
128846

>  <gnina_score_min>  (955) 
5.011

>  <name>  (955) 
P94991

>  <exports>  (955) 
['/opt/xchem-fragalysis-2/maxwin/BulkDock/OUTPUTS/openbind_d68ev3c_c2_elabs_1LOTQJ3.sdf', '/opt/xchem-fragalysis-2/maxwin/BulkDock/OUTPUTS/openbind_d68ev3c_c2_elabs_1LSYI5W.sdf']

$$$$
P94992
     RDKit          3D

 26 28  0  0  0  0  0  0  0  0999 V2000
   13.6878   -4.1994   17.5928 C   0  0  0  0  0  0  0  0  0  0  0  0
   13.2697   -3.0066   16.7759 C   0  0  0  0  0  0  0  0  0  0  0  0
   12.0940   -3.0866   16.0105 C   0  0  0  0  0  0  0  0  0  0  0  0
   11.6560   -2.0054   15.2470 C   0  0  0  0  0  0  0  0  0  0  0  0
   12.3989   -0.8303   15.2437 C   0  0  0  0  0  0  0  0  0  0  0  0
   11.7523    0.7913   14.1137 I   0  0  0  0  0  0  0  0  0  0  0  0
   13.5764   -0.7326   15.9884 C   0  0  0  0  0  0  0  0  0  0  0  0
   14.0163   -1.8161   16.7552 C   0  0  0  0  0  0  0  0  0  0  0  0
   15.1939   -1.7280   17.4997 N   0  0  0  0  0  0  0  0  0  0  0  0
   16.2567   -0.5843   17.5861 C   0  0  0  0  0  0  0  0  0  0  0  0
   16.3414    0.4196   16.9876 O   0  0  0  0  0  0  0  0  0  0  0  0
   17.2727   -0.9402   18.6852 C   0  0  0  0  0  0  0  0  0  0  0  0
   18.2215   -2.3643   18.1512 S   0  0  0  0  0  0  0  0  0  0  0  0
   19.4566   -2.4348   18.9095 O   0  0  0  0  0  0  0  0  0  0  0  0
   17.3189   -3.5056   18.1553 O   0  0  0  0  0  0  0  0  0  0  0  0
   18.6902   -2.0830   16.4536 C   0  0  0  0  0  0  0  0  0  0  0  0
   19.8485   -1.3510   16.1742 C   0  0  0  0  0  0  0  0  0  0  0  0
   20.2439   -1.1641   14.8482 C   0  0  0  0  0  0  0  0  0  0  0  0
   19.4962   -1.7252   13.8139 C   0  0  0  0  0  0  0  0  0  0  0  0
   19.9900   -1.4901   12.1835 Cl  0  0  0  0  0  0  0  0  0  0  0  0
   18.3568   -2.4802   14.0928 C   0  0  0  0  0  0  0  0  0  0  0  0
   17.9536   -2.6705   15.4177 C   0  0  0  0  0  0  0  0  0  0  0  0
   16.5769   -1.1848   20.0365 C   0  0  0  0  0  0  0  0  0  0  0  0
   17.6365   -0.9161   21.0961 C   0  0  0  0  0  0  0  0  0  0  0  0
   18.5828    0.1097   20.4893 C   0  0  0  0  0  0  0  0  0  0  0  0
   18.1734    0.2651   19.0255 C   0  0  0  0  0  0  0  0  0  0  0  0
  1  2  1  0
  2  3  2  0
  3  4  1  0
  4  5  2  0
  5  6  1  0
  5  7  1  0
  7  8  2  0
  8  9  1  0
  9 10  1  0
 10 11  2  0
 10 12  1  0
 12 13  1  0
 13 14  2  0
 13 15  2  0
 13 16  1  0
 16 17  2  0
 17 18  1  0
 18 19  2  0
 19 20  1  0
 19 21  1  0
 21 22  2  0
 12 23  1  0
 23 24  1  0
 24 25  1  0
 25 26  1  0
  8  2  1  0
 26 12  1  0
 22 16  1  0
M  END
>  <ref_mols>  (956) 
B1396a

>  <gnina_score>  (956) 
5.291

>  <smina_score_min>  (956) 
-3.986

>  <ref_pdb>  (956) 
B1396a

>  <inspiration_score>  (956) 
None

>  <inchikey>  (956) 
QSRJOPCMKNIEEY-UHFFFAOYSA-N

>  <tags>  (956) 
BulkDock Fragalysis export,openbind_d68ev3c_c2_elabs_scored,openbind_d68ev3c_c2_elabs_scored_4.5plus,openbind_d68ev3c_c2_elabs,openbind_d68ev3c_c2_elabs_scored_5plus,syndirella_product,openbind_d68ev3c_c2_elabs_scored_top80percent,syndirella_placed

>  <smiles>  (956) 
Cc1ccc(I)cc1NC(=O)C1(S(=O)(=O)c2ccc(Cl)cc2)CCCC1

>  <subsites>  (956) 
None

>  <rmsd(smina/fragmenstein)>  (956) 
2.155

>  <alias>  (956) 
None

>  <energy_score>  (956) 
-40.745125

>  <HIPPO Pose ID>  (956) 
94992

>  <distance_score>  (956) 
0.412145

>  <HIPPO Compound ID>  (956) 
128847

>  <gnina_score_min>  (956) 
5.246

>  <name>  (956) 
P94992

>  <exports>  (956) 
['/opt/xchem-fragalysis-2/maxwin/BulkDock/OUTPUTS/openbind_d68ev3c_c2_elabs_1LOTQJ3.sdf', '/opt/xchem-fragalysis-2/maxwin/BulkDock/OUTPUTS/openbind_d68ev3c_c2_elabs_1LSYI5W.sdf']

$$$$
P94993
     RDKit          3D

 26 28  0  0  0  0  0  0  0  0999 V2000
   13.7386   -4.1949   17.6123 C   0  0  0  0  0  0  0  0  0  0  0  0
   13.2905   -3.0174   16.7894 C   0  0  0  0  0  0  0  0  0  0  0  0
   12.1035   -3.1234   16.0448 C   0  0  0  0  0  0  0  0  0  0  0  0
   11.6385   -2.0586   15.2752 C   0  0  0  0  0  0  0  0  0  0  0  0
   12.3635   -0.8740   15.2465 C   0  0  0  0  0  0  0  0  0  0  0  0
   11.7319    0.5774   14.2119 Br  0  0  0  0  0  0  0  0  0  0  0  0
   13.5511   -0.7494   15.9691 C   0  0  0  0  0  0  0  0  0  0  0  0
   14.0209   -1.8176   16.7401 C   0  0  0  0  0  0  0  0  0  0  0  0
   15.2139   -1.7047   17.4568 N   0  0  0  0  0  0  0  0  0  0  0  0
   16.2577   -0.5417   17.5133 C   0  0  0  0  0  0  0  0  0  0  0  0
   16.3104    0.4605   16.9084 O   0  0  0  0  0  0  0  0  0  0  0  0
   17.3055   -0.8653   18.6045 C   0  0  0  0  0  0  0  0  0  0  0  0
   18.2084   -2.3385   18.1205 S   0  0  0  0  0  0  0  0  0  0  0  0
   17.2641   -3.4456   18.1240 O   0  0  0  0  0  0  0  0  0  0  0  0
   19.4176   -2.4417   18.9162 O   0  0  0  0  0  0  0  0  0  0  0  0
   18.7212   -2.0887   16.4338 C   0  0  0  0  0  0  0  0  0  0  0  0
   19.8465   -1.3026   16.1697 C   0  0  0  0  0  0  0  0  0  0  0  0
   20.2681   -1.1260   14.8504 C   0  0  0  0  0  0  0  0  0  0  0  0
   19.5786   -1.7480   13.8101 C   0  0  0  0  0  0  0  0  0  0  0  0
   20.1073   -1.5272   12.1887 Cl  0  0  0  0  0  0  0  0  0  0  0  0
   18.4702   -2.5524   14.0759 C   0  0  0  0  0  0  0  0  0  0  0  0
   18.0398   -2.7319   15.3934 C   0  0  0  0  0  0  0  0  0  0  0  0
   16.6167   -1.0522   19.9831 C   0  0  0  0  0  0  0  0  0  0  0  0
   17.2755   -0.0564   20.9318 C   0  0  0  0  0  0  0  0  0  0  0  0
   17.7100    1.0746   20.0227 C   0  0  0  0  0  0  0  0  0  0  0  0
   18.2725    0.3309   18.8209 C   0  0  0  0  0  0  0  0  0  0  0  0
  1  2  1  0
  2  3  2  0
  3  4  1  0
  4  5  2  0
  5  6  1  0
  5  7  1  0
  7  8  2  0
  8  9  1  0
  9 10  1  0
 10 11  2  0
 10 12  1  0
 12 13  1  0
 13 14  2  0
 13 15  2  0
 13 16  1  0
 16 17  2  0
 17 18  1  0
 18 19  2  0
 19 20  1  0
 19 21  1  0
 21 22  2  0
 12 23  1  0
 23 24  1  0
 24 25  1  0
 25 26  1  0
  8  2  1  0
 26 12  1  0
 22 16  1  0
M  END
>  <ref_mols>  (957) 
B1396a

>  <gnina_score>  (957) 
5.256

>  <smina_score_min>  (957) 
-3.982

>  <ref_pdb>  (957) 
B1396a

>  <inspiration_score>  (957) 
None

>  <inchikey>  (957) 
MTOCCCRNPNCMON-UHFFFAOYSA-N

>  <tags>  (957) 
BulkDock Fragalysis export,openbind_d68ev3c_c2_elabs_scored,openbind_d68ev3c_c2_elabs_scored_4.5plus,openbind_d68ev3c_c2_elabs,openbind_d68ev3c_c2_elabs_scored_5plus,syndirella_product,openbind_d68ev3c_c2_elabs_scored_top80percent,syndirella_placed

>  <smiles>  (957) 
Cc1ccc(Br)cc1NC(=O)C1(S(=O)(=O)c2ccc(Cl)cc2)CCCC1

>  <subsites>  (957) 
None

>  <rmsd(smina/fragmenstein)>  (957) 
2.079

>  <alias>  (957) 
None

>  <energy_score>  (957) 
-51.529714

>  <HIPPO Pose ID>  (957) 
94993

>  <distance_score>  (957) 
0.40098

>  <HIPPO Compound ID>  (957) 
128848

>  <gnina_score_min>  (957) 
5.191

>  <name>  (957) 
P94993

>  <exports>  (957) 
['/opt/xchem-fragalysis-2/maxwin/BulkDock/OUTPUTS/openbind_d68ev3c_c2_elabs_1LOTQJ3.sdf', '/opt/xchem-fragalysis-2/maxwin/BulkDock/OUTPUTS/openbind_d68ev3c_c2_elabs_1LSYI5W.sdf']

$$$$
P94994
     RDKit          3D

 26 28  0  0  0  0  0  0  0  0999 V2000
   14.7644   -4.9620   17.6750 C   0  0  0  0  0  0  0  0  0  0  0  0
   13.6748   -4.1974   17.8070 C   0  0  0  0  0  0  0  0  0  0  0  0
   13.3374   -3.0845   16.9076 C   0  0  0  0  0  0  0  0  0  0  0  0
   12.1606   -3.2039   16.1521 C   0  0  0  0  0  0  0  0  0  0  0  0
   11.7401   -2.1783   15.3055 C   0  0  0  0  0  0  0  0  0  0  0  0
   12.4965   -1.0162   15.2085 C   0  0  0  0  0  0  0  0  0  0  0  0
   13.6770   -0.8849   15.9453 C   0  0  0  0  0  0  0  0  0  0  0  0
   14.1066   -1.9112   16.7936 C   0  0  0  0  0  0  0  0  0  0  0  0
   15.2821   -1.7733   17.5362 N   0  0  0  0  0  0  0  0  0  0  0  0
   16.3336   -0.6182   17.5651 C   0  0  0  0  0  0  0  0  0  0  0  0
   16.4116    0.3534   16.9148 O   0  0  0  0  0  0  0  0  0  0  0  0
   17.3596   -0.9117   18.6727 C   0  0  0  0  0  0  0  0  0  0  0  0
   18.3751   -2.2964   18.1561 S   0  0  0  0  0  0  0  0  0  0  0  0
   17.5450   -3.4881   18.2058 O   0  0  0  0  0  0  0  0  0  0  0  0
   19.6265   -2.2780   18.8911 O   0  0  0  0  0  0  0  0  0  0  0  0
   18.7963   -2.0360   16.4427 C   0  0  0  0  0  0  0  0  0  0  0  0
   19.9121   -1.2567   16.1227 C   0  0  0  0  0  0  0  0  0  0  0  0
   20.2735   -1.0859   14.7850 C   0  0  0  0  0  0  0  0  0  0  0  0
   19.5349   -1.7089   13.7799 C   0  0  0  0  0  0  0  0  0  0  0  0
   19.9882   -1.4944   12.1350 Cl  0  0  0  0  0  0  0  0  0  0  0  0
   18.4383   -2.5094   14.0996 C   0  0  0  0  0  0  0  0  0  0  0  0
   18.0689   -2.6835   15.4363 C   0  0  0  0  0  0  0  0  0  0  0  0
   18.2061    0.3407   18.9857 C   0  0  0  0  0  0  0  0  0  0  0  0
   18.6268    0.2352   20.4507 C   0  0  0  0  0  0  0  0  0  0  0  0
   17.7396   -0.8293   21.0791 C   0  0  0  0  0  0  0  0  0  0  0  0
   16.6854   -1.1636   20.0329 C   0  0  0  0  0  0  0  0  0  0  0  0
  1  2  2  0
  2  3  1  0
  3  4  2  0
  4  5  1  0
  5  6  2  0
  6  7  1  0
  7  8  2  0
  8  9  1  0
  9 10  1  0
 10 11  2  0
 10 12  1  0
 12 13  1  0
 13 14  2  0
 13 15  2  0
 13 16  1  0
 16 17  2  0
 17 18  1  0
 18 19  2  0
 19 20  1  0
 19 21  1  0
 21 22  2  0
 12 23  1  0
 23 24  1  0
 24 25  1  0
 25 26  1  0
  8  3  1  0
 26 12  1  0
 22 16  1  0
M  END
>  <ref_mols>  (958) 
B1396a

>  <gnina_score>  (958) 
5.057

>  <smina_score_min>  (958) 
-3.371

>  <ref_pdb>  (958) 
B1396a

>  <inspiration_score>  (958) 
None

>  <inchikey>  (958) 
LAMPRIOYKQJEDR-UHFFFAOYSA-N

>  <tags>  (958) 
BulkDock Fragalysis export,openbind_d68ev3c_c2_elabs_scored,openbind_d68ev3c_c2_elabs_scored_4.5plus,openbind_d68ev3c_c2_elabs,openbind_d68ev3c_c2_elabs_scored_5plus,syndirella_product,openbind_d68ev3c_c2_elabs_scored_top80percent,syndirella_placed

>  <smiles>  (958) 
C=Cc1ccccc1NC(=O)C1(S(=O)(=O)c2ccc(Cl)cc2)CCCC1

>  <subsites>  (958) 
None

>  <rmsd(smina/fragmenstein)>  (958) 
1.929

>  <alias>  (958) 
None

>  <energy_score>  (958) 
-60.640566

>  <HIPPO Pose ID>  (958) 
94994

>  <distance_score>  (958) 
0.417412

>  <HIPPO Compound ID>  (958) 
128850

>  <gnina_score_min>  (958) 
5.024

>  <name>  (958) 
P94994

>  <exports>  (958) 
['/opt/xchem-fragalysis-2/maxwin/BulkDock/OUTPUTS/openbind_d68ev3c_c2_elabs_1LOTQJ3.sdf', '/opt/xchem-fragalysis-2/maxwin/BulkDock/OUTPUTS/openbind_d68ev3c_c2_elabs_1LSYI5W.sdf']

$$$$
P94995
     RDKit          3D

 26 28  0  0  0  0  0  0  0  0999 V2000
   13.7371   -4.2005   17.6381 C   0  0  0  0  0  0  0  0  0  0  0  0
   13.3096   -3.0058   16.8305 C   0  0  0  0  0  0  0  0  0  0  0  0
   12.1439   -3.0968   16.0490 C   0  0  0  0  0  0  0  0  0  0  0  0
   11.6991   -2.0140   15.2930 C   0  0  0  0  0  0  0  0  0  0  0  0
   12.4222   -0.8324   15.3134 C   0  0  0  0  0  0  0  0  0  0  0  0
   11.9588    0.2105   14.5670 O   0  0  0  0  0  0  0  0  0  0  0  0
   13.5836   -0.7170   16.0730 C   0  0  0  0  0  0  0  0  0  0  0  0
   14.0333   -1.8006   16.8348 C   0  0  0  0  0  0  0  0  0  0  0  0
   15.1880   -1.6779   17.6122 N   0  0  0  0  0  0  0  0  0  0  0  0
   16.2667   -0.5470   17.6553 C   0  0  0  0  0  0  0  0  0  0  0  0
   16.3067    0.4853   17.1013 O   0  0  0  0  0  0  0  0  0  0  0  0
   17.3487   -0.9199   18.6959 C   0  0  0  0  0  0  0  0  0  0  0  0
   18.2144   -2.3793   18.1452 S   0  0  0  0  0  0  0  0  0  0  0  0
   17.2555   -3.4730   18.1501 O   0  0  0  0  0  0  0  0  0  0  0  0
   19.4465   -2.5141   18.9003 O   0  0  0  0  0  0  0  0  0  0  0  0
   18.6851   -2.0925   16.4529 C   0  0  0  0  0  0  0  0  0  0  0  0
   19.8232   -1.3264   16.1822 C   0  0  0  0  0  0  0  0  0  0  0  0
   20.2215   -1.1288   14.8588 C   0  0  0  0  0  0  0  0  0  0  0  0
   19.4951   -1.7097   13.8199 C   0  0  0  0  0  0  0  0  0  0  0  0
   19.9925   -1.4609   12.1927 Cl  0  0  0  0  0  0  0  0  0  0  0  0
   18.3729   -2.4932   14.0914 C   0  0  0  0  0  0  0  0  0  0  0  0
   17.9663   -2.6945   15.4135 C   0  0  0  0  0  0  0  0  0  0  0  0
   18.3143    0.2583   18.9418 C   0  0  0  0  0  0  0  0  0  0  0  0
   17.6000    1.1681   19.9416 C   0  0  0  0  0  0  0  0  0  0  0  0
   16.5454    0.3049   20.6265 C   0  0  0  0  0  0  0  0  0  0  0  0
   16.7614   -1.1109   20.1037 C   0  0  0  0  0  0  0  0  0  0  0  0
  1  2  1  0
  2  3  2  0
  3  4  1  0
  4  5  2  0
  5  6  1  0
  5  7  1  0
  7  8  2  0
  8  9  1  0
  9 10  1  0
 10 11  2  0
 10 12  1  0
 12 13  1  0
 13 14  2  0
 13 15  2  0
 13 16  1  0
 16 17  2  0
 17 18  1  0
 18 19  2  0
 19 20  1  0
 19 21  1  0
 21 22  2  0
 12 23  1  0
 23 24  1  0
 24 25  1  0
 25 26  1  0
  8  2  1  0
 26 12  1  0
 22 16  1  0
M  END
>  <ref_mols>  (959) 
B1396a

>  <gnina_score>  (959) 
5.095

>  <smina_score_min>  (959) 
-4.082

>  <ref_pdb>  (959) 
B1396a

>  <inspiration_score>  (959) 
None

>  <inchikey>  (959) 
JCENMRYJISQKHX-UHFFFAOYSA-N

>  <tags>  (959) 
BulkDock Fragalysis export,openbind_d68ev3c_c2_elabs_scored,openbind_d68ev3c_c2_elabs_scored_4.5plus,openbind_d68ev3c_c2_elabs,openbind_d68ev3c_c2_elabs_scored_5plus,syndirella_product,openbind_d68ev3c_c2_elabs_scored_top80percent,syndirella_placed

>  <smiles>  (959) 
Cc1ccc(O)cc1NC(=O)C1(S(=O)(=O)c2ccc(Cl)cc2)CCCC1

>  <subsites>  (959) 
None

>  <rmsd(smina/fragmenstein)>  (959) 
1.803

>  <alias>  (959) 
None

>  <energy_score>  (959) 
-55.116695

>  <HIPPO Pose ID>  (959) 
94995

>  <distance_score>  (959) 
0.433869

>  <HIPPO Compound ID>  (959) 
128851

>  <gnina_score_min>  (959) 
5.013

>  <name>  (959) 
P94995

>  <exports>  (959) 
['/opt/xchem-fragalysis-2/maxwin/BulkDock/OUTPUTS/openbind_d68ev3c_c2_elabs_1LOTQJ3.sdf', '/opt/xchem-fragalysis-2/maxwin/BulkDock/OUTPUTS/openbind_d68ev3c_c2_elabs_1LSYI5W.sdf']

$$$$
P94997
     RDKit          3D

 26 28  0  0  0  0  0  0  0  0999 V2000
   11.8997    0.2502   14.3532 C   0  0  0  0  0  0  0  0  0  0  0  0
   12.3621   -0.8750   15.2318 C   0  0  0  0  0  0  0  0  0  0  0  0
   11.6671   -2.0838   15.2471 C   0  0  0  0  0  0  0  0  0  0  0  0
   12.1220   -3.1389   16.0366 C   0  0  0  0  0  0  0  0  0  0  0  0
   13.2830   -3.0171   16.8172 C   0  0  0  0  0  0  0  0  0  0  0  0
   13.7231   -4.1890   17.6505 C   0  0  0  0  0  0  0  0  0  0  0  0
   13.9946   -1.8076   16.7890 C   0  0  0  0  0  0  0  0  0  0  0  0
   15.1481   -1.6606   17.5642 N   0  0  0  0  0  0  0  0  0  0  0  0
   16.2228   -0.5257   17.5787 C   0  0  0  0  0  0  0  0  0  0  0  0
   16.2599    0.4918   16.9979 O   0  0  0  0  0  0  0  0  0  0  0  0
   17.3046   -0.8692   18.6306 C   0  0  0  0  0  0  0  0  0  0  0  0
   18.1813   -2.3371   18.1179 S   0  0  0  0  0  0  0  0  0  0  0  0
   19.4057   -2.4532   18.8890 O   0  0  0  0  0  0  0  0  0  0  0  0
   17.2291   -3.4363   18.1328 O   0  0  0  0  0  0  0  0  0  0  0  0
   18.6695   -2.0774   16.4265 C   0  0  0  0  0  0  0  0  0  0  0  0
   17.9492   -2.6790   15.3884 C   0  0  0  0  0  0  0  0  0  0  0  0
   18.3676   -2.4959   14.0673 C   0  0  0  0  0  0  0  0  0  0  0  0
   19.5029   -1.7312   13.7961 C   0  0  0  0  0  0  0  0  0  0  0  0
   20.0143   -1.5046   12.1700 Cl  0  0  0  0  0  0  0  0  0  0  0  0
   20.2309   -1.1512   14.8344 C   0  0  0  0  0  0  0  0  0  0  0  0
   19.8207   -1.3305   16.1566 C   0  0  0  0  0  0  0  0  0  0  0  0
   18.2638    0.3195   18.8501 C   0  0  0  0  0  0  0  0  0  0  0  0
   17.5424    1.2496   19.8259 C   0  0  0  0  0  0  0  0  0  0  0  0
   16.4908    0.3976   20.5293 C   0  0  0  0  0  0  0  0  0  0  0  0
   16.7155   -1.0293   20.0415 C   0  0  0  0  0  0  0  0  0  0  0  0
   13.5329   -0.7507   15.9955 C   0  0  0  0  0  0  0  0  0  0  0  0
  1  2  1  0
  2  3  2  0
  3  4  1  0
  4  5  2  0
  5  6  1  0
  5  7  1  0
  7  8  1  0
  8  9  1  0
  9 10  2  0
  9 11  1  0
 11 12  1  0
 12 13  2  0
 12 14  2  0
 12 15  1  0
 15 16  2  0
 16 17  1  0
 17 18  2  0
 18 19  1  0
 18 20  1  0
 20 21  2  0
 11 22  1  0
 22 23  1  0
 23 24  1  0
 24 25  1  0
  7 26  2  0
 26  2  1  0
 25 11  1  0
 21 15  1  0
M  END
>  <ref_mols>  (960) 
B1396a

>  <gnina_score>  (960) 
5.149

>  <smina_score_min>  (960) 
-4.032

>  <ref_pdb>  (960) 
B1396a

>  <inspiration_score>  (960) 
None

>  <inchikey>  (960) 
NCTOUVZZWDXLIT-UHFFFAOYSA-N

>  <tags>  (960) 
BulkDock Fragalysis export,openbind_d68ev3c_c2_elabs_scored,openbind_d68ev3c_c2_elabs_scored_4.5plus,openbind_d68ev3c_c2_elabs,openbind_d68ev3c_c2_elabs_scored_5plus,syndirella_product,openbind_d68ev3c_c2_elabs_scored_top80percent,syndirella_placed

>  <smiles>  (960) 
Cc1ccc(C)c(NC(=O)C2(S(=O)(=O)c3ccc(Cl)cc3)CCCC2)c1

>  <subsites>  (960) 
None

>  <rmsd(smina/fragmenstein)>  (960) 
2.053

>  <alias>  (960) 
None

>  <energy_score>  (960) 
-34.541345

>  <HIPPO Pose ID>  (960) 
94997

>  <distance_score>  (960) 
0.418529

>  <HIPPO Compound ID>  (960) 
128853

>  <gnina_score_min>  (960) 
5.076

>  <name>  (960) 
P94997

>  <exports>  (960) 
['/opt/xchem-fragalysis-2/maxwin/BulkDock/OUTPUTS/openbind_d68ev3c_c2_elabs_1LOTQJ3.sdf', '/opt/xchem-fragalysis-2/maxwin/BulkDock/OUTPUTS/openbind_d68ev3c_c2_elabs_1LSYI5W.sdf']

$$$$
P95000
     RDKit          3D

 26 28  0  0  0  0  0  0  0  0999 V2000
   13.5996   -3.8076   17.3097 C   0  0  0  0  0  0  0  0  0  0  0  0
   13.3374   -2.4753   16.6523 C   0  0  0  0  0  0  0  0  0  0  0  0
   12.3073   -2.2934   15.7070 C   0  0  0  0  0  0  0  0  0  0  0  0
   11.3949   -3.5786   15.0474 Cl  0  0  0  0  0  0  0  0  0  0  0  0
   12.0019   -1.0395   15.1749 C   0  0  0  0  0  0  0  0  0  0  0  0
   12.7593    0.0595   15.5316 C   0  0  0  0  0  0  0  0  0  0  0  0
   13.8392   -0.1071   16.3927 C   0  0  0  0  0  0  0  0  0  0  0  0
   14.1446   -1.3587   16.9446 C   0  0  0  0  0  0  0  0  0  0  0  0
   15.2745   -1.4721   17.7616 N   0  0  0  0  0  0  0  0  0  0  0  0
   16.4535   -0.4727   18.0089 C   0  0  0  0  0  0  0  0  0  0  0  0
   16.6126    0.6238   17.6246 O   0  0  0  0  0  0  0  0  0  0  0  0
   17.4656   -1.1014   18.9876 C   0  0  0  0  0  0  0  0  0  0  0  0
   18.2043   -2.5327   18.2286 S   0  0  0  0  0  0  0  0  0  0  0  0
   19.4523   -2.8349   18.9041 O   0  0  0  0  0  0  0  0  0  0  0  0
   17.1651   -3.5487   18.1570 O   0  0  0  0  0  0  0  0  0  0  0  0
   18.6344   -2.1121   16.5523 C   0  0  0  0  0  0  0  0  0  0  0  0
   17.9054   -2.6572   15.4876 C   0  0  0  0  0  0  0  0  0  0  0  0
   18.2949   -2.3838   14.1734 C   0  0  0  0  0  0  0  0  0  0  0  0
   19.4102   -1.5815   13.9325 C   0  0  0  0  0  0  0  0  0  0  0  0
   19.8885   -1.2434   12.3159 Cl  0  0  0  0  0  0  0  0  0  0  0  0
   20.1444   -1.0528   14.9942 C   0  0  0  0  0  0  0  0  0  0  0  0
   19.7636   -1.3245   16.3106 C   0  0  0  0  0  0  0  0  0  0  0  0
   16.8249   -1.4475   20.3417 C   0  0  0  0  0  0  0  0  0  0  0  0
   16.7287   -0.1154   21.0776 C   0  0  0  0  0  0  0  0  0  0  0  0
   17.8696    0.7427   20.5407 C   0  0  0  0  0  0  0  0  0  0  0  0
   18.5286   -0.0718   19.4273 C   0  0  0  0  0  0  0  0  0  0  0  0
  1  2  1  0
  2  3  2  0
  3  4  1  0
  3  5  1  0
  5  6  2  0
  6  7  1  0
  7  8  2  0
  8  9  1  0
  9 10  1  0
 10 11  2  0
 10 12  1  0
 12 13  1  0
 13 14  2  0
 13 15  2  0
 13 16  1  0
 16 17  2  0
 17 18  1  0
 18 19  2  0
 19 20  1  0
 19 21  1  0
 21 22  2  0
 12 23  1  0
 23 24  1  0
 24 25  1  0
 25 26  1  0
  8  2  1  0
 26 12  1  0
 22 16  1  0
M  END
>  <ref_mols>  (961) 
B1396a

>  <gnina_score>  (961) 
5.265

>  <smina_score_min>  (961) 
-3.906

>  <ref_pdb>  (961) 
B1396a

>  <inspiration_score>  (961) 
None

>  <inchikey>  (961) 
OWRIORCJJANEPS-UHFFFAOYSA-N

>  <tags>  (961) 
BulkDock Fragalysis export,openbind_d68ev3c_c2_elabs_scored,openbind_d68ev3c_c2_elabs_scored_4.5plus,openbind_d68ev3c_c2_elabs,openbind_d68ev3c_c2_elabs_scored_5plus,syndirella_product,openbind_d68ev3c_c2_elabs_scored_top80percent,syndirella_placed

>  <smiles>  (961) 
Cc1c(Cl)cccc1NC(=O)C1(S(=O)(=O)c2ccc(Cl)cc2)CCCC1

>  <subsites>  (961) 
None

>  <rmsd(smina/fragmenstein)>  (961) 
2.622

>  <alias>  (961) 
None

>  <energy_score>  (961) 
-38.591156

>  <HIPPO Pose ID>  (961) 
95000

>  <distance_score>  (961) 
0.80036

>  <HIPPO Compound ID>  (961) 
128856

>  <gnina_score_min>  (961) 
5.073

>  <name>  (961) 
P95000

>  <exports>  (961) 
['/opt/xchem-fragalysis-2/maxwin/BulkDock/OUTPUTS/openbind_d68ev3c_c2_elabs_1LOTQJ3.sdf', '/opt/xchem-fragalysis-2/maxwin/BulkDock/OUTPUTS/openbind_d68ev3c_c2_elabs_1LSYI5W.sdf']

$$$$
P95001
     RDKit          3D

 26 28  0  0  0  0  0  0  0  0999 V2000
   13.6517   -3.7282   17.2627 C   0  0  0  0  0  0  0  0  0  0  0  0
   13.3963   -2.3639   16.6707 C   0  0  0  0  0  0  0  0  0  0  0  0
   12.3666   -2.1174   15.7417 C   0  0  0  0  0  0  0  0  0  0  0  0
   11.3903   -3.4633   14.8763 Br  0  0  0  0  0  0  0  0  0  0  0  0
   12.0614   -0.8305   15.2923 C   0  0  0  0  0  0  0  0  0  0  0  0
   12.8303    0.2388   15.7054 C   0  0  0  0  0  0  0  0  0  0  0  0
   13.9252    0.0101   16.5308 C   0  0  0  0  0  0  0  0  0  0  0  0
   14.2254   -1.2747   17.0024 C   0  0  0  0  0  0  0  0  0  0  0  0
   15.3928   -1.4599   17.7475 N   0  0  0  0  0  0  0  0  0  0  0  0
   16.5578   -0.4674   18.0729 C   0  0  0  0  0  0  0  0  0  0  0  0
   16.7484    0.6279   17.7004 O   0  0  0  0  0  0  0  0  0  0  0  0
   17.5423   -1.1341   19.0512 C   0  0  0  0  0  0  0  0  0  0  0  0
   18.2725   -2.5557   18.2643 S   0  0  0  0  0  0  0  0  0  0  0  0
   17.2291   -3.5681   18.1932 O   0  0  0  0  0  0  0  0  0  0  0  0
   19.5278   -2.8674   18.9208 O   0  0  0  0  0  0  0  0  0  0  0  0
   18.6835   -2.1210   16.5862 C   0  0  0  0  0  0  0  0  0  0  0  0
   17.9664   -2.6873   15.5240 C   0  0  0  0  0  0  0  0  0  0  0  0
   18.3403   -2.4013   14.2079 C   0  0  0  0  0  0  0  0  0  0  0  0
   19.4284   -1.5643   13.9625 C   0  0  0  0  0  0  0  0  0  0  0  0
   19.8882   -1.2102   12.3438 Cl  0  0  0  0  0  0  0  0  0  0  0  0
   20.1509   -1.0137   15.0213 C   0  0  0  0  0  0  0  0  0  0  0  0
   19.7857   -1.2981   16.3397 C   0  0  0  0  0  0  0  0  0  0  0  0
   18.6098   -0.1321   19.5393 C   0  0  0  0  0  0  0  0  0  0  0  0
   17.9358    0.6658   20.6554 C   0  0  0  0  0  0  0  0  0  0  0  0
   16.7808   -0.1957   21.1556 C   0  0  0  0  0  0  0  0  0  0  0  0
   16.8700   -1.5074   20.3825 C   0  0  0  0  0  0  0  0  0  0  0  0
  1  2  1  0
  2  3  2  0
  3  4  1  0
  3  5  1  0
  5  6  2  0
  6  7  1  0
  7  8  2  0
  8  9  1  0
  9 10  1  0
 10 11  2  0
 10 12  1  0
 12 13  1  0
 13 14  2  0
 13 15  2  0
 13 16  1  0
 16 17  2  0
 17 18  1  0
 18 19  2  0
 19 20  1  0
 19 21  1  0
 21 22  2  0
 12 23  1  0
 23 24  1  0
 24 25  1  0
 25 26  1  0
  8  2  1  0
 26 12  1  0
 22 16  1  0
M  END
>  <ref_mols>  (962) 
B1396a

>  <gnina_score>  (962) 
5.263

>  <smina_score_min>  (962) 
-3.419

>  <ref_pdb>  (962) 
B1396a

>  <inspiration_score>  (962) 
None

>  <inchikey>  (962) 
DXEISZVGKJGGKJ-UHFFFAOYSA-N

>  <tags>  (962) 
BulkDock Fragalysis export,openbind_d68ev3c_c2_elabs_scored,openbind_d68ev3c_c2_elabs_scored_4.5plus,openbind_d68ev3c_c2_elabs,openbind_d68ev3c_c2_elabs_scored_5plus,syndirella_product,openbind_d68ev3c_c2_elabs_scored_top80percent,syndirella_placed

>  <smiles>  (962) 
Cc1c(Br)cccc1NC(=O)C1(S(=O)(=O)c2ccc(Cl)cc2)CCCC1

>  <subsites>  (962) 
None

>  <rmsd(smina/fragmenstein)>  (962) 
2.227

>  <alias>  (962) 
None

>  <energy_score>  (962) 
-54.439447

>  <HIPPO Pose ID>  (962) 
95001

>  <distance_score>  (962) 
0.889971

>  <HIPPO Compound ID>  (962) 
128857

>  <gnina_score_min>  (962) 
5.038

>  <name>  (962) 
P95001

>  <exports>  (962) 
['/opt/xchem-fragalysis-2/maxwin/BulkDock/OUTPUTS/openbind_d68ev3c_c2_elabs_1LOTQJ3.sdf', '/opt/xchem-fragalysis-2/maxwin/BulkDock/OUTPUTS/openbind_d68ev3c_c2_elabs_1LSYI5W.sdf']

$$$$
P95002
     RDKit          3D

 26 28  0  0  0  0  0  0  0  0999 V2000
   13.8115   -4.0944   17.5879 C   0  0  0  0  0  0  0  0  0  0  0  0
   13.2829   -2.9160   16.8060 C   0  0  0  0  0  0  0  0  0  0  0  0
   12.1349   -3.1248   16.0205 C   0  0  0  0  0  0  0  0  0  0  0  0
   11.5824   -2.0982   15.2703 C   0  0  0  0  0  0  0  0  0  0  0  0
   12.1497   -0.8333   15.3330 C   0  0  0  0  0  0  0  0  0  0  0  0
   13.2934   -0.5818   16.1163 C   0  0  0  0  0  0  0  0  0  0  0  0
   13.6790    1.1620   16.2559 S   0  0  0  0  0  0  0  0  0  0  0  0
   13.9059   -1.6410   16.8273 C   0  0  0  0  0  0  0  0  0  0  0  0
   15.0828   -1.5299   17.6005 N   0  0  0  0  0  0  0  0  0  0  0  0
   16.2792   -0.5274   17.4911 C   0  0  0  0  0  0  0  0  0  0  0  0
   16.4289    0.4027   16.7928 O   0  0  0  0  0  0  0  0  0  0  0  0
   17.3225   -0.8535   18.5863 C   0  0  0  0  0  0  0  0  0  0  0  0
   18.1651   -2.3564   18.1243 S   0  0  0  0  0  0  0  0  0  0  0  0
   17.1818   -3.4268   18.1425 O   0  0  0  0  0  0  0  0  0  0  0  0
   19.3718   -2.4880   18.9201 O   0  0  0  0  0  0  0  0  0  0  0  0
   18.6897   -2.1391   16.4363 C   0  0  0  0  0  0  0  0  0  0  0  0
   19.8632   -1.4248   16.1738 C   0  0  0  0  0  0  0  0  0  0  0  0
   20.2874   -1.2577   14.8545 C   0  0  0  0  0  0  0  0  0  0  0  0
   19.5514   -1.8188   13.8120 C   0  0  0  0  0  0  0  0  0  0  0  0
   20.0794   -1.6076   12.1891 Cl  0  0  0  0  0  0  0  0  0  0  0  0
   18.3946   -2.5533   14.0761 C   0  0  0  0  0  0  0  0  0  0  0  0
   17.9616   -2.7240   15.3943 C   0  0  0  0  0  0  0  0  0  0  0  0
   18.3114    0.3192   18.7678 C   0  0  0  0  0  0  0  0  0  0  0  0
   17.5876    1.3164   19.6721 C   0  0  0  0  0  0  0  0  0  0  0  0
   16.5279    0.5152   20.4215 C   0  0  0  0  0  0  0  0  0  0  0  0
   16.7291   -0.9370   20.0013 C   0  0  0  0  0  0  0  0  0  0  0  0
  1  2  1  0
  2  3  2  0
  3  4  1  0
  4  5  2  0
  5  6  1  0
  6  7  1  0
  6  8  2  0
  8  9  1  0
  9 10  1  0
 10 11  2  0
 10 12  1  0
 12 13  1  0
 13 14  2  0
 13 15  2  0
 13 16  1  0
 16 17  2  0
 17 18  1  0
 18 19  2  0
 19 20  1  0
 19 21  1  0
 21 22  2  0
 12 23  1  0
 23 24  1  0
 24 25  1  0
 25 26  1  0
  8  2  1  0
 26 12  1  0
 22 16  1  0
M  END
>  <ref_mols>  (963) 
B1396a

>  <gnina_score>  (963) 
5.243

>  <smina_score_min>  (963) 
-3.867

>  <ref_pdb>  (963) 
B1396a

>  <inspiration_score>  (963) 
None

>  <inchikey>  (963) 
AWLJZOMXICDBRR-UHFFFAOYSA-N

>  <tags>  (963) 
BulkDock Fragalysis export,openbind_d68ev3c_c2_elabs_scored,openbind_d68ev3c_c2_elabs_scored_4.5plus,openbind_d68ev3c_c2_elabs,openbind_d68ev3c_c2_elabs_scored_5plus,syndirella_product,openbind_d68ev3c_c2_elabs_scored_top80percent,syndirella_placed

>  <smiles>  (963) 
Cc1cccc(S)c1NC(=O)C1(S(=O)(=O)c2ccc(Cl)cc2)CCCC1

>  <subsites>  (963) 
None

>  <rmsd(smina/fragmenstein)>  (963) 
2.203

>  <alias>  (963) 
None

>  <energy_score>  (963) 
-46.193951

>  <HIPPO Pose ID>  (963) 
95002

>  <distance_score>  (963) 
0.389823

>  <HIPPO Compound ID>  (963) 
128858

>  <gnina_score_min>  (963) 
5.09

>  <name>  (963) 
P95002

>  <exports>  (963) 
['/opt/xchem-fragalysis-2/maxwin/BulkDock/OUTPUTS/openbind_d68ev3c_c2_elabs_1LOTQJ3.sdf', '/opt/xchem-fragalysis-2/maxwin/BulkDock/OUTPUTS/openbind_d68ev3c_c2_elabs_1LSYI5W.sdf']

$$$$
P95003
     RDKit          3D

 26 28  0  0  0  0  0  0  0  0999 V2000
   13.8095   -4.1092   17.5842 C   0  0  0  0  0  0  0  0  0  0  0  0
   13.2864   -2.9234   16.8116 C   0  0  0  0  0  0  0  0  0  0  0  0
   12.1395   -3.1165   16.0181 C   0  0  0  0  0  0  0  0  0  0  0  0
   11.5937   -2.0782   15.2749 C   0  0  0  0  0  0  0  0  0  0  0  0
   12.1659   -0.8169   15.3535 C   0  0  0  0  0  0  0  0  0  0  0  0
   13.3019   -0.5924   16.1473 C   0  0  0  0  0  0  0  0  0  0  0  0
   13.7196    1.0728   16.3410 Cl  0  0  0  0  0  0  0  0  0  0  0  0
   13.9135   -1.6533   16.8473 C   0  0  0  0  0  0  0  0  0  0  0  0
   15.0919   -1.5418   17.6160 N   0  0  0  0  0  0  0  0  0  0  0  0
   16.2873   -0.5363   17.5039 C   0  0  0  0  0  0  0  0  0  0  0  0
   16.4331    0.3948   16.8068 O   0  0  0  0  0  0  0  0  0  0  0  0
   17.3343   -0.8619   18.5940 C   0  0  0  0  0  0  0  0  0  0  0  0
   18.1744   -2.3634   18.1260 S   0  0  0  0  0  0  0  0  0  0  0  0
   19.3823   -2.4984   18.9199 O   0  0  0  0  0  0  0  0  0  0  0  0
   17.1908   -3.4340   18.1449 O   0  0  0  0  0  0  0  0  0  0  0  0
   18.6968   -2.1441   16.4377 C   0  0  0  0  0  0  0  0  0  0  0  0
   17.9682   -2.7289   15.3960 C   0  0  0  0  0  0  0  0  0  0  0  0
   18.4004   -2.5580   14.0775 C   0  0  0  0  0  0  0  0  0  0  0  0
   19.5568   -1.8230   13.8128 C   0  0  0  0  0  0  0  0  0  0  0  0
   20.0848   -1.6131   12.1897 Cl  0  0  0  0  0  0  0  0  0  0  0  0
   20.2930   -1.2615   14.8550 C   0  0  0  0  0  0  0  0  0  0  0  0
   19.8696   -1.4290   16.1744 C   0  0  0  0  0  0  0  0  0  0  0  0
   18.3235    0.3107   18.7734 C   0  0  0  0  0  0  0  0  0  0  0  0
   17.6038    1.3060   19.6831 C   0  0  0  0  0  0  0  0  0  0  0  0
   16.5462    0.5038   20.4342 C   0  0  0  0  0  0  0  0  0  0  0  0
   16.7462   -0.9478   20.0112 C   0  0  0  0  0  0  0  0  0  0  0  0
  1  2  1  0
  2  3  2  0
  3  4  1  0
  4  5  2  0
  5  6  1  0
  6  7  1  0
  6  8  2  0
  8  9  1  0
  9 10  1  0
 10 11  2  0
 10 12  1  0
 12 13  1  0
 13 14  2  0
 13 15  2  0
 13 16  1  0
 16 17  2  0
 17 18  1  0
 18 19  2  0
 19 20  1  0
 19 21  1  0
 21 22  2  0
 12 23  1  0
 23 24  1  0
 24 25  1  0
 25 26  1  0
  8  2  1  0
 26 12  1  0
 22 16  1  0
M  END
>  <ref_mols>  (964) 
B1396a

>  <gnina_score>  (964) 
5.258

>  <smina_score_min>  (964) 
-3.935

>  <ref_pdb>  (964) 
B1396a

>  <inspiration_score>  (964) 
None

>  <inchikey>  (964) 
RECRBLOBCHYLKG-UHFFFAOYSA-N

>  <tags>  (964) 
BulkDock Fragalysis export,openbind_d68ev3c_c2_elabs_scored,openbind_d68ev3c_c2_elabs_scored_4.5plus,openbind_d68ev3c_c2_elabs,openbind_d68ev3c_c2_elabs_scored_5plus,syndirella_product,openbind_d68ev3c_c2_elabs_scored_top80percent,syndirella_placed

>  <smiles>  (964) 
Cc1cccc(Cl)c1NC(=O)C1(S(=O)(=O)c2ccc(Cl)cc2)CCCC1

>  <subsites>  (964) 
None

>  <rmsd(smina/fragmenstein)>  (964) 
2.068

>  <alias>  (964) 
None

>  <energy_score>  (964) 
-35.98048

>  <HIPPO Pose ID>  (964) 
95003

>  <distance_score>  (964) 
0.387505

>  <HIPPO Compound ID>  (964) 
128859

>  <gnina_score_min>  (964) 
5.136

>  <name>  (964) 
P95003

>  <exports>  (964) 
['/opt/xchem-fragalysis-2/maxwin/BulkDock/OUTPUTS/openbind_d68ev3c_c2_elabs_1LOTQJ3.sdf', '/opt/xchem-fragalysis-2/maxwin/BulkDock/OUTPUTS/openbind_d68ev3c_c2_elabs_1LSYI5W.sdf']

$$$$
P95004
     RDKit          3D

 26 28  0  0  0  0  0  0  0  0999 V2000
   13.7086   -4.2076   17.6008 C   0  0  0  0  0  0  0  0  0  0  0  0
   13.2776   -3.0192   16.7835 C   0  0  0  0  0  0  0  0  0  0  0  0
   12.0993   -3.1100   16.0234 C   0  0  0  0  0  0  0  0  0  0  0  0
   11.6525   -2.0333   15.2597 C   0  0  0  0  0  0  0  0  0  0  0  0
   12.3868   -0.8535   15.2508 C   0  0  0  0  0  0  0  0  0  0  0  0
   11.8309    0.4817   14.3181 Cl  0  0  0  0  0  0  0  0  0  0  0  0
   13.5661   -0.7451   15.9889 C   0  0  0  0  0  0  0  0  0  0  0  0
   14.0167   -1.8235   16.7562 C   0  0  0  0  0  0  0  0  0  0  0  0
   15.1974   -1.7272   17.4949 N   0  0  0  0  0  0  0  0  0  0  0  0
   16.2546   -0.5780   17.5731 C   0  0  0  0  0  0  0  0  0  0  0  0
   16.3312    0.4245   16.9714 O   0  0  0  0  0  0  0  0  0  0  0  0
   17.2759   -0.9246   18.6709 C   0  0  0  0  0  0  0  0  0  0  0  0
   18.2247   -2.3517   18.1446 S   0  0  0  0  0  0  0  0  0  0  0  0
   17.3199   -3.4914   18.1512 O   0  0  0  0  0  0  0  0  0  0  0  0
   19.4581   -2.4212   18.9057 O   0  0  0  0  0  0  0  0  0  0  0  0
   18.6966   -2.0776   16.4469 C   0  0  0  0  0  0  0  0  0  0  0  0
   17.9635   -2.6716   15.4122 C   0  0  0  0  0  0  0  0  0  0  0  0
   18.3694   -2.4869   14.0873 C   0  0  0  0  0  0  0  0  0  0  0  0
   19.5079   -1.7308   13.8074 C   0  0  0  0  0  0  0  0  0  0  0  0
   20.0053   -1.5034   12.1771 Cl  0  0  0  0  0  0  0  0  0  0  0  0
   20.2520   -1.1633   14.8406 C   0  0  0  0  0  0  0  0  0  0  0  0
   19.8541   -1.3448   16.1666 C   0  0  0  0  0  0  0  0  0  0  0  0
   18.1754    0.2843   19.0007 C   0  0  0  0  0  0  0  0  0  0  0  0
   18.5907    0.1382   20.4637 C   0  0  0  0  0  0  0  0  0  0  0  0
   17.6453   -0.8822   21.0812 C   0  0  0  0  0  0  0  0  0  0  0  0
   16.5841   -1.1611   20.0257 C   0  0  0  0  0  0  0  0  0  0  0  0
  1  2  1  0
  2  3  2  0
  3  4  1  0
  4  5  2  0
  5  6  1  0
  5  7  1  0
  7  8  2  0
  8  9  1  0
  9 10  1  0
 10 11  2  0
 10 12  1  0
 12 13  1  0
 13 14  2  0
 13 15  2  0
 13 16  1  0
 16 17  2  0
 17 18  1  0
 18 19  2  0
 19 20  1  0
 19 21  1  0
 21 22  2  0
 12 23  1  0
 23 24  1  0
 24 25  1  0
 25 26  1  0
  8  2  1  0
 26 12  1  0
 22 16  1  0
M  END
>  <ref_mols>  (965) 
B1396a

>  <gnina_score>  (965) 
5.262

>  <smina_score_min>  (965) 
-3.95

>  <ref_pdb>  (965) 
B1396a

>  <inspiration_score>  (965) 
None

>  <inchikey>  (965) 
UZUJNFREBSYDJH-UHFFFAOYSA-N

>  <tags>  (965) 
BulkDock Fragalysis export,openbind_d68ev3c_c2_elabs_scored,openbind_d68ev3c_c2_elabs_scored_4.5plus,openbind_d68ev3c_c2_elabs,openbind_d68ev3c_c2_elabs_scored_5plus,syndirella_product,openbind_d68ev3c_c2_elabs_scored_top80percent,syndirella_placed

>  <smiles>  (965) 
Cc1ccc(Cl)cc1NC(=O)C1(S(=O)(=O)c2ccc(Cl)cc2)CCCC1

>  <subsites>  (965) 
None

>  <rmsd(smina/fragmenstein)>  (965) 
2.158

>  <alias>  (965) 
None

>  <energy_score>  (965) 
-38.502083

>  <HIPPO Pose ID>  (965) 
95004

>  <distance_score>  (965) 
0.407185

>  <HIPPO Compound ID>  (965) 
128860

>  <gnina_score_min>  (965) 
5.144

>  <name>  (965) 
P95004

>  <exports>  (965) 
['/opt/xchem-fragalysis-2/maxwin/BulkDock/OUTPUTS/openbind_d68ev3c_c2_elabs_1LOTQJ3.sdf', '/opt/xchem-fragalysis-2/maxwin/BulkDock/OUTPUTS/openbind_d68ev3c_c2_elabs_1LSYI5W.sdf']

$$$$
P95005
     RDKit          3D

 26 28  0  0  0  0  0  0  0  0999 V2000
   13.8771   -4.1845   17.5847 C   0  0  0  0  0  0  0  0  0  0  0  0
   13.4739   -2.9093   16.8950 C   0  0  0  0  0  0  0  0  0  0  0  0
   12.2228   -2.8485   16.2575 C   0  0  0  0  0  0  0  0  0  0  0  0
   11.7814   -1.6566   15.6847 C   0  0  0  0  0  0  0  0  0  0  0  0
   10.1762   -1.5063   15.1095 Cl  0  0  0  0  0  0  0  0  0  0  0  0
   12.6009   -0.5389   15.6593 C   0  0  0  0  0  0  0  0  0  0  0  0
   13.8548   -0.5957   16.2602 C   0  0  0  0  0  0  0  0  0  0  0  0
   14.2839   -1.7593   16.9067 C   0  0  0  0  0  0  0  0  0  0  0  0
   15.5015   -1.7580   17.5856 N   0  0  0  0  0  0  0  0  0  0  0  0
   16.5437   -0.6104   17.7995 C   0  0  0  0  0  0  0  0  0  0  0  0
   16.5696    0.4808   17.3718 O   0  0  0  0  0  0  0  0  0  0  0  0
   17.6086   -1.0809   18.8132 C   0  0  0  0  0  0  0  0  0  0  0  0
   18.4325   -2.5296   18.1639 S   0  0  0  0  0  0  0  0  0  0  0  0
   17.4546   -3.6073   18.1530 O   0  0  0  0  0  0  0  0  0  0  0  0
   19.6865   -2.7165   18.8680 O   0  0  0  0  0  0  0  0  0  0  0  0
   18.8431   -2.1755   16.4678 C   0  0  0  0  0  0  0  0  0  0  0  0
   18.1351   -2.7992   15.4329 C   0  0  0  0  0  0  0  0  0  0  0  0
   18.4879   -2.5420   14.1054 C   0  0  0  0  0  0  0  0  0  0  0  0
   19.5451   -1.6770   13.8230 C   0  0  0  0  0  0  0  0  0  0  0  0
   19.9770   -1.3575   12.1895 Cl  0  0  0  0  0  0  0  0  0  0  0  0
   20.2604   -1.0719   14.8561 C   0  0  0  0  0  0  0  0  0  0  0  0
   19.9172   -1.3272   16.1853 C   0  0  0  0  0  0  0  0  0  0  0  0
   18.6247    0.0540   19.1162 C   0  0  0  0  0  0  0  0  0  0  0  0
   18.1051    0.7127   20.3851 C   0  0  0  0  0  0  0  0  0  0  0  0
   17.6434   -0.4753   21.2035 C   0  0  0  0  0  0  0  0  0  0  0  0
   16.9456   -1.3731   20.1866 C   0  0  0  0  0  0  0  0  0  0  0  0
  1  2  1  0
  2  3  2  0
  3  4  1  0
  4  5  1  0
  4  6  2  0
  6  7  1  0
  7  8  2  0
  8  9  1  0
  9 10  1  0
 10 11  2  0
 10 12  1  0
 12 13  1  0
 13 14  2  0
 13 15  2  0
 13 16  1  0
 16 17  2  0
 17 18  1  0
 18 19  2  0
 19 20  1  0
 19 21  1  0
 21 22  2  0
 12 23  1  0
 23 24  1  0
 24 25  1  0
 25 26  1  0
  8  2  1  0
 26 12  1  0
 22 16  1  0
M  END
>  <ref_mols>  (966) 
B1396a

>  <gnina_score>  (966) 
5.469

>  <smina_score_min>  (966) 
-3.267

>  <ref_pdb>  (966) 
B1396a

>  <inspiration_score>  (966) 
None

>  <inchikey>  (966) 
UHASGKUVNVLDNR-UHFFFAOYSA-N

>  <tags>  (966) 
BulkDock Fragalysis export,openbind_d68ev3c_c2_elabs_scored,openbind_d68ev3c_c2_elabs_scored_4.5plus,openbind_d68ev3c_c2_elabs,openbind_d68ev3c_c2_elabs_scored_5plus,syndirella_product,openbind_d68ev3c_c2_elabs_scored_top80percent,syndirella_placed

>  <smiles>  (966) 
Cc1cc(Cl)ccc1NC(=O)C1(S(=O)(=O)c2ccc(Cl)cc2)CCCC1

>  <subsites>  (966) 
None

>  <rmsd(smina/fragmenstein)>  (966) 
2.018

>  <alias>  (966) 
None

>  <energy_score>  (966) 
-32.550693

>  <HIPPO Pose ID>  (966) 
95005

>  <distance_score>  (966) 
0.57147

>  <HIPPO Compound ID>  (966) 
128861

>  <gnina_score_min>  (966) 
5.272

>  <name>  (966) 
P95005

>  <exports>  (966) 
['/opt/xchem-fragalysis-2/maxwin/BulkDock/OUTPUTS/openbind_d68ev3c_c2_elabs_1LOTQJ3.sdf', '/opt/xchem-fragalysis-2/maxwin/BulkDock/OUTPUTS/openbind_d68ev3c_c2_elabs_1LSYI5W.sdf']

$$$$
P95006
     RDKit          3D

 26 28  0  0  0  0  0  0  0  0999 V2000
   13.7263   -4.0960   17.6218 C   0  0  0  0  0  0  0  0  0  0  0  0
   13.3683   -2.8754   16.8215 C   0  0  0  0  0  0  0  0  0  0  0  0
   12.2299   -2.8973   16.0065 C   0  0  0  0  0  0  0  0  0  0  0  0
   11.4842   -4.0025   15.9440 F   0  0  0  0  0  0  0  0  0  0  0  0
   11.8330   -1.8026   15.2482 C   0  0  0  0  0  0  0  0  0  0  0  0
   12.5948   -0.6444   15.2881 C   0  0  0  0  0  0  0  0  0  0  0  0
   13.7448   -0.5976   16.0817 C   0  0  0  0  0  0  0  0  0  0  0  0
   14.1349   -1.7013   16.8513 C   0  0  0  0  0  0  0  0  0  0  0  0
   15.2753   -1.6351   17.6536 N   0  0  0  0  0  0  0  0  0  0  0  0
   16.3576   -0.5140   17.7891 C   0  0  0  0  0  0  0  0  0  0  0  0
   16.4105    0.5521   17.3050 O   0  0  0  0  0  0  0  0  0  0  0  0
   17.4115   -0.9651   18.8171 C   0  0  0  0  0  0  0  0  0  0  0  0
   18.2809   -2.3977   18.1841 S   0  0  0  0  0  0  0  0  0  0  0  0
   19.5460   -2.5374   18.8807 O   0  0  0  0  0  0  0  0  0  0  0  0
   17.3407   -3.5077   18.1883 O   0  0  0  0  0  0  0  0  0  0  0  0
   18.6862   -2.0717   16.4782 C   0  0  0  0  0  0  0  0  0  0  0  0
   17.9028   -2.6204   15.4556 C   0  0  0  0  0  0  0  0  0  0  0  0
   18.2650   -2.4094   14.1220 C   0  0  0  0  0  0  0  0  0  0  0  0
   19.4105   -1.6727   13.8201 C   0  0  0  0  0  0  0  0  0  0  0  0
   19.8524   -1.4113   12.1790 Cl  0  0  0  0  0  0  0  0  0  0  0  0
   20.2043   -1.1498   14.8398 C   0  0  0  0  0  0  0  0  0  0  0  0
   19.8497   -1.3577   16.1743 C   0  0  0  0  0  0  0  0  0  0  0  0
   16.7637   -1.2459   20.1861 C   0  0  0  0  0  0  0  0  0  0  0  0
   17.8765   -1.0707   21.2102 C   0  0  0  0  0  0  0  0  0  0  0  0
   18.8384   -0.0549   20.6114 C   0  0  0  0  0  0  0  0  0  0  0  0
   18.3754    0.1866   19.1754 C   0  0  0  0  0  0  0  0  0  0  0  0
  1  2  1  0
  2  3  2  0
  3  4  1  0
  3  5  1  0
  5  6  2  0
  6  7  1  0
  7  8  2  0
  8  9  1  0
  9 10  1  0
 10 11  2  0
 10 12  1  0
 12 13  1  0
 13 14  2  0
 13 15  2  0
 13 16  1  0
 16 17  2  0
 17 18  1  0
 18 19  2  0
 19 20  1  0
 19 21  1  0
 21 22  2  0
 12 23  1  0
 23 24  1  0
 24 25  1  0
 25 26  1  0
  8  2  1  0
 26 12  1  0
 22 16  1  0
M  END
>  <ref_mols>  (967) 
B1396a

>  <gnina_score>  (967) 
5.189

>  <smina_score_min>  (967) 
-3.87

>  <ref_pdb>  (967) 
B1396a

>  <inspiration_score>  (967) 
None

>  <inchikey>  (967) 
PCJOWVCCNMQFHH-UHFFFAOYSA-N

>  <tags>  (967) 
BulkDock Fragalysis export,openbind_d68ev3c_c2_elabs_scored,openbind_d68ev3c_c2_elabs_scored_4.5plus,openbind_d68ev3c_c2_elabs,openbind_d68ev3c_c2_elabs_scored_5plus,syndirella_product,openbind_d68ev3c_c2_elabs_scored_top80percent,syndirella_placed

>  <smiles>  (967) 
Cc1c(F)cccc1NC(=O)C1(S(=O)(=O)c2ccc(Cl)cc2)CCCC1

>  <subsites>  (967) 
None

>  <rmsd(smina/fragmenstein)>  (967) 
2.05

>  <alias>  (967) 
None

>  <energy_score>  (967) 
-54.26311

>  <HIPPO Pose ID>  (967) 
95006

>  <distance_score>  (967) 
0.537826

>  <HIPPO Compound ID>  (967) 
128862

>  <gnina_score_min>  (967) 
5.266

>  <name>  (967) 
P95006

>  <exports>  (967) 
['/opt/xchem-fragalysis-2/maxwin/BulkDock/OUTPUTS/openbind_d68ev3c_c2_elabs_1LOTQJ3.sdf', '/opt/xchem-fragalysis-2/maxwin/BulkDock/OUTPUTS/openbind_d68ev3c_c2_elabs_1LSYI5W.sdf']

$$$$
P95007
     RDKit          3D

 26 28  0  0  0  0  0  0  0  0999 V2000
   13.7277   -4.0959   17.4808 C   0  0  0  0  0  0  0  0  0  0  0  0
   13.3662   -2.8048   16.7959 C   0  0  0  0  0  0  0  0  0  0  0  0
   12.1007   -2.6875   16.1865 C   0  0  0  0  0  0  0  0  0  0  0  0
   11.6678   -1.4661   15.6595 C   0  0  0  0  0  0  0  0  0  0  0  0
    9.9747   -1.1864   15.2032 S   0  0  0  0  0  0  0  0  0  0  0  0
   12.5455   -0.3896   15.6222 C   0  0  0  0  0  0  0  0  0  0  0  0
   13.8165   -0.5046   16.1820 C   0  0  0  0  0  0  0  0  0  0  0  0
   14.2156   -1.6857   16.8123 C   0  0  0  0  0  0  0  0  0  0  0  0
   15.4274   -1.7177   17.5042 N   0  0  0  0  0  0  0  0  0  0  0  0
   16.4985   -0.5985   17.7294 C   0  0  0  0  0  0  0  0  0  0  0  0
   16.5583    0.4920   17.3024 O   0  0  0  0  0  0  0  0  0  0  0  0
   17.5332   -1.0882   18.7662 C   0  0  0  0  0  0  0  0  0  0  0  0
   18.3558   -2.5428   18.1306 S   0  0  0  0  0  0  0  0  0  0  0  0
   19.5992   -2.7392   18.8510 O   0  0  0  0  0  0  0  0  0  0  0  0
   17.3702   -3.6129   18.1044 O   0  0  0  0  0  0  0  0  0  0  0  0
   18.7935   -2.1910   16.4409 C   0  0  0  0  0  0  0  0  0  0  0  0
   19.8681   -1.3388   16.1721 C   0  0  0  0  0  0  0  0  0  0  0  0
   20.2267   -1.0817   14.8471 C   0  0  0  0  0  0  0  0  0  0  0  0
   19.5263   -1.6898   13.8055 C   0  0  0  0  0  0  0  0  0  0  0  0
   19.9704   -1.3651   12.1761 Cl  0  0  0  0  0  0  0  0  0  0  0  0
   18.4708   -2.5609   14.0750 C   0  0  0  0  0  0  0  0  0  0  0  0
   18.1018   -2.8184   15.3976 C   0  0  0  0  0  0  0  0  0  0  0  0
   16.8360   -1.3769   20.1237 C   0  0  0  0  0  0  0  0  0  0  0  0
   17.5245   -0.4949   21.1605 C   0  0  0  0  0  0  0  0  0  0  0  0
   18.0176    0.6918   20.3591 C   0  0  0  0  0  0  0  0  0  0  0  0
   18.5564    0.0335   19.0981 C   0  0  0  0  0  0  0  0  0  0  0  0
  1  2  1  0
  2  3  2  0
  3  4  1  0
  4  5  1  0
  4  6  2  0
  6  7  1  0
  7  8  2  0
  8  9  1  0
  9 10  1  0
 10 11  2  0
 10 12  1  0
 12 13  1  0
 13 14  2  0
 13 15  2  0
 13 16  1  0
 16 17  2  0
 17 18  1  0
 18 19  2  0
 19 20  1  0
 19 21  1  0
 21 22  2  0
 12 23  1  0
 23 24  1  0
 24 25  1  0
 25 26  1  0
  8  2  1  0
 26 12  1  0
 22 16  1  0
M  END
>  <ref_mols>  (968) 
B1396a

>  <gnina_score>  (968) 
5.531

>  <smina_score_min>  (968) 
-3.317

>  <ref_pdb>  (968) 
B1396a

>  <inspiration_score>  (968) 
None

>  <inchikey>  (968) 
DYOZGXVQUOKRIA-UHFFFAOYSA-N

>  <tags>  (968) 
BulkDock Fragalysis export,openbind_d68ev3c_c2_elabs_scored,openbind_d68ev3c_c2_elabs_scored_4.5plus,openbind_d68ev3c_c2_elabs,openbind_d68ev3c_c2_elabs_scored_5plus,syndirella_product,openbind_d68ev3c_c2_elabs_scored_top80percent,syndirella_placed

>  <smiles>  (968) 
Cc1cc(S)ccc1NC(=O)C1(S(=O)(=O)c2ccc(Cl)cc2)CCCC1

>  <subsites>  (968) 
None

>  <rmsd(smina/fragmenstein)>  (968) 
3.482

>  <alias>  (968) 
None

>  <energy_score>  (968) 
-38.510623

>  <HIPPO Pose ID>  (968) 
95007

>  <distance_score>  (968) 
0.565031

>  <HIPPO Compound ID>  (968) 
128863

>  <gnina_score_min>  (968) 
5.071

>  <name>  (968) 
P95007

>  <exports>  (968) 
['/opt/xchem-fragalysis-2/maxwin/BulkDock/OUTPUTS/openbind_d68ev3c_c2_elabs_1LOTQJ3.sdf', '/opt/xchem-fragalysis-2/maxwin/BulkDock/OUTPUTS/openbind_d68ev3c_c2_elabs_1LSYI5W.sdf']

$$$$
P95008
     RDKit          3D

 26 28  0  0  0  0  0  0  0  0999 V2000
   13.8544    0.8140   16.1177 C   0  0  0  0  0  0  0  0  0  0  0  0
   13.3566   -0.6031   16.0979 C   0  0  0  0  0  0  0  0  0  0  0  0
   12.2001   -0.8270   15.3178 C   0  0  0  0  0  0  0  0  0  0  0  0
   11.5799   -2.0670   15.2747 C   0  0  0  0  0  0  0  0  0  0  0  0
   12.1008   -3.1079   16.0256 C   0  0  0  0  0  0  0  0  0  0  0  0
   13.2628   -2.9325   16.7964 C   0  0  0  0  0  0  0  0  0  0  0  0
   13.7641   -4.1248   17.5767 C   0  0  0  0  0  0  0  0  0  0  0  0
   13.9304   -1.6789   16.8071 C   0  0  0  0  0  0  0  0  0  0  0  0
   15.1249   -1.6305   17.5546 N   0  0  0  0  0  0  0  0  0  0  0  0
   16.2772   -0.5695   17.5625 C   0  0  0  0  0  0  0  0  0  0  0  0
   16.4399    0.3797   16.8935 O   0  0  0  0  0  0  0  0  0  0  0  0
   17.2762   -0.9298   18.6746 C   0  0  0  0  0  0  0  0  0  0  0  0
   18.1943   -2.3785   18.1552 S   0  0  0  0  0  0  0  0  0  0  0  0
   19.4261   -2.4654   18.9181 O   0  0  0  0  0  0  0  0  0  0  0  0
   17.2713   -3.5024   18.1687 O   0  0  0  0  0  0  0  0  0  0  0  0
   18.6723   -2.1185   16.4569 C   0  0  0  0  0  0  0  0  0  0  0  0
   17.9039   -2.6658   15.4227 C   0  0  0  0  0  0  0  0  0  0  0  0
   18.3050   -2.4819   14.0966 C   0  0  0  0  0  0  0  0  0  0  0  0
   19.4745   -1.7747   13.8162 C   0  0  0  0  0  0  0  0  0  0  0  0
   20.0123   -1.5242   12.0217 Br  0  0  0  0  0  0  0  0  0  0  0  0
   20.2542   -1.2546   14.8482 C   0  0  0  0  0  0  0  0  0  0  0  0
   19.8592   -1.4348   16.1749 C   0  0  0  0  0  0  0  0  0  0  0  0
   16.5870   -1.1353   20.0347 C   0  0  0  0  0  0  0  0  0  0  0  0
   17.6575   -0.8636   21.0829 C   0  0  0  0  0  0  0  0  0  0  0  0
   18.6204    0.1297   20.4494 C   0  0  0  0  0  0  0  0  0  0  0  0
   18.2029    0.2645   18.9864 C   0  0  0  0  0  0  0  0  0  0  0  0
  1  2  1  0
  2  3  2  0
  3  4  1  0
  4  5  2  0
  5  6  1  0
  6  7  1  0
  6  8  2  0
  8  9  1  0
  9 10  1  0
 10 11  2  0
 10 12  1  0
 12 13  1  0
 13 14  2  0
 13 15  2  0
 13 16  1  0
 16 17  2  0
 17 18  1  0
 18 19  2  0
 19 20  1  0
 19 21  1  0
 21 22  2  0
 12 23  1  0
 23 24  1  0
 24 25  1  0
 25 26  1  0
  8  2  1  0
 26 12  1  0
 22 16  1  0
M  END
>  <ref_mols>  (969) 
B1396a

>  <gnina_score>  (969) 
5.077

>  <smina_score_min>  (969) 
-3.99

>  <ref_pdb>  (969) 
B1396a

>  <inspiration_score>  (969) 
None

>  <inchikey>  (969) 
HDYGWIJUWUSDIE-UHFFFAOYSA-N

>  <tags>  (969) 
BulkDock Fragalysis export,openbind_d68ev3c_c2_elabs_scored,openbind_d68ev3c_c2_elabs_scored_4.5plus,openbind_d68ev3c_c2_elabs,openbind_d68ev3c_c2_elabs_scored_5plus,syndirella_product,openbind_d68ev3c_c2_elabs_scored_top80percent,syndirella_placed

>  <smiles>  (969) 
Cc1cccc(C)c1NC(=O)C1(S(=O)(=O)c2ccc(Br)cc2)CCCC1

>  <subsites>  (969) 
None

>  <rmsd(smina/fragmenstein)>  (969) 
2.535

>  <alias>  (969) 
None

>  <energy_score>  (969) 
-58.945128

>  <HIPPO Pose ID>  (969) 
95008

>  <distance_score>  (969) 
0.394954

>  <HIPPO Compound ID>  (969) 
128864

>  <gnina_score_min>  (969) 
5.002

>  <name>  (969) 
P95008

>  <exports>  (969) 
['/opt/xchem-fragalysis-2/maxwin/BulkDock/OUTPUTS/openbind_d68ev3c_c2_elabs_1LOTQJ3.sdf', '/opt/xchem-fragalysis-2/maxwin/BulkDock/OUTPUTS/openbind_d68ev3c_c2_elabs_1LSYI5W.sdf']

$$$$
P95009
     RDKit          3D

 26 28  0  0  0  0  0  0  0  0999 V2000
   13.7303   -4.0855   17.6125 C   0  0  0  0  0  0  0  0  0  0  0  0
   13.3564   -2.8632   16.8223 C   0  0  0  0  0  0  0  0  0  0  0  0
   12.2212   -2.8949   16.0031 C   0  0  0  0  0  0  0  0  0  0  0  0
   11.4948   -4.0119   15.9242 F   0  0  0  0  0  0  0  0  0  0  0  0
   11.8074   -1.7981   15.2567 C   0  0  0  0  0  0  0  0  0  0  0  0
   12.5477   -0.6268   15.3136 C   0  0  0  0  0  0  0  0  0  0  0  0
   13.6949   -0.5702   16.1101 C   0  0  0  0  0  0  0  0  0  0  0  0
   14.1046   -1.6779   16.8639 C   0  0  0  0  0  0  0  0  0  0  0  0
   15.2474   -1.5987   17.6626 N   0  0  0  0  0  0  0  0  0  0  0  0
   16.3662   -0.5073   17.7287 C   0  0  0  0  0  0  0  0  0  0  0  0
   16.4540    0.5237   17.1782 O   0  0  0  0  0  0  0  0  0  0  0  0
   17.4087   -0.9349   18.7763 C   0  0  0  0  0  0  0  0  0  0  0  0
   18.2721   -2.3832   18.1727 S   0  0  0  0  0  0  0  0  0  0  0  0
   17.3178   -3.4817   18.1799 O   0  0  0  0  0  0  0  0  0  0  0  0
   19.5275   -2.5274   18.8855 O   0  0  0  0  0  0  0  0  0  0  0  0
   18.6952   -2.0817   16.4670 C   0  0  0  0  0  0  0  0  0  0  0  0
   19.8708   -1.3883   16.1636 C   0  0  0  0  0  0  0  0  0  0  0  0
   20.2324   -1.1917   14.8295 C   0  0  0  0  0  0  0  0  0  0  0  0
   19.4317   -1.7063   13.8108 C   0  0  0  0  0  0  0  0  0  0  0  0
   19.9256   -1.4355   12.0068 Br  0  0  0  0  0  0  0  0  0  0  0  0
   18.2736   -2.4234   14.1117 C   0  0  0  0  0  0  0  0  0  0  0  0
   17.9056   -2.6225   15.4451 C   0  0  0  0  0  0  0  0  0  0  0  0
   18.3743    0.2210   19.1115 C   0  0  0  0  0  0  0  0  0  0  0  0
   18.8321    0.0087   20.5538 C   0  0  0  0  0  0  0  0  0  0  0  0
   17.8638   -0.9896   21.1718 C   0  0  0  0  0  0  0  0  0  0  0  0
   16.7544   -1.1840   20.1475 C   0  0  0  0  0  0  0  0  0  0  0  0
  1  2  1  0
  2  3  2  0
  3  4  1  0
  3  5  1  0
  5  6  2  0
  6  7  1  0
  7  8  2  0
  8  9  1  0
  9 10  1  0
 10 11  2  0
 10 12  1  0
 12 13  1  0
 13 14  2  0
 13 15  2  0
 13 16  1  0
 16 17  2  0
 17 18  1  0
 18 19  2  0
 19 20  1  0
 19 21  1  0
 21 22  2  0
 12 23  1  0
 23 24  1  0
 24 25  1  0
 25 26  1  0
  8  2  1  0
 26 12  1  0
 22 16  1  0
M  END
>  <ref_mols>  (970) 
B1396a

>  <gnina_score>  (970) 
5.161

>  <smina_score_min>  (970) 
-3.825

>  <ref_pdb>  (970) 
B1396a

>  <inspiration_score>  (970) 
None

>  <inchikey>  (970) 
NBBXZXFVTJTBDF-UHFFFAOYSA-N

>  <tags>  (970) 
BulkDock Fragalysis export,openbind_d68ev3c_c2_elabs_scored,openbind_d68ev3c_c2_elabs_scored_4.5plus,openbind_d68ev3c_c2_elabs,openbind_d68ev3c_c2_elabs_scored_5plus,syndirella_product,openbind_d68ev3c_c2_elabs_scored_top80percent,syndirella_placed

>  <smiles>  (970) 
Cc1c(F)cccc1NC(=O)C1(S(=O)(=O)c2ccc(Br)cc2)CCCC1

>  <subsites>  (970) 
None

>  <rmsd(smina/fragmenstein)>  (970) 
1.883

>  <alias>  (970) 
None

>  <energy_score>  (970) 
-39.659855

>  <HIPPO Pose ID>  (970) 
95009

>  <distance_score>  (970) 
0.515757

>  <HIPPO Compound ID>  (970) 
128865

>  <gnina_score_min>  (970) 
5.217

>  <name>  (970) 
P95009

>  <exports>  (970) 
['/opt/xchem-fragalysis-2/maxwin/BulkDock/OUTPUTS/openbind_d68ev3c_c2_elabs_1LOTQJ3.sdf', '/opt/xchem-fragalysis-2/maxwin/BulkDock/OUTPUTS/openbind_d68ev3c_c2_elabs_1LSYI5W.sdf']

$$$$
P95010
     RDKit          3D

 26 28  0  0  0  0  0  0  0  0999 V2000
   13.9161   -4.1881   17.6456 C   0  0  0  0  0  0  0  0  0  0  0  0
   13.5006   -2.9142   16.9620 C   0  0  0  0  0  0  0  0  0  0  0  0
   12.2727   -2.8810   16.2792 C   0  0  0  0  0  0  0  0  0  0  0  0
   11.8209   -1.6959   15.7012 C   0  0  0  0  0  0  0  0  0  0  0  0
   10.2377   -1.5878   15.0643 Cl  0  0  0  0  0  0  0  0  0  0  0  0
   12.6068   -0.5545   15.7196 C   0  0  0  0  0  0  0  0  0  0  0  0
   13.8350   -0.5812   16.3726 C   0  0  0  0  0  0  0  0  0  0  0  0
   14.2747   -1.7408   17.0201 C   0  0  0  0  0  0  0  0  0  0  0  0
   15.4530   -1.6987   17.7647 N   0  0  0  0  0  0  0  0  0  0  0  0
   16.5578   -0.5932   17.8564 C   0  0  0  0  0  0  0  0  0  0  0  0
   16.6021    0.4771   17.3797 O   0  0  0  0  0  0  0  0  0  0  0  0
   17.6604   -1.0643   18.8285 C   0  0  0  0  0  0  0  0  0  0  0  0
   18.4328   -2.5289   18.1565 S   0  0  0  0  0  0  0  0  0  0  0  0
   17.4248   -3.5787   18.1533 O   0  0  0  0  0  0  0  0  0  0  0  0
   19.6909   -2.7542   18.8419 O   0  0  0  0  0  0  0  0  0  0  0  0
   18.8242   -2.1733   16.4570 C   0  0  0  0  0  0  0  0  0  0  0  0
   19.9445   -1.3924   16.1600 C   0  0  0  0  0  0  0  0  0  0  0  0
   20.2730   -1.1388   14.8271 C   0  0  0  0  0  0  0  0  0  0  0  0
   19.4946   -1.6804   13.8046 C   0  0  0  0  0  0  0  0  0  0  0  0
   19.9463   -1.3324   12.0027 Br  0  0  0  0  0  0  0  0  0  0  0  0
   18.3897   -2.4792   14.0997 C   0  0  0  0  0  0  0  0  0  0  0  0
   18.0533   -2.7340   15.4314 C   0  0  0  0  0  0  0  0  0  0  0  0
   17.0608   -1.3337   20.2350 C   0  0  0  0  0  0  0  0  0  0  0  0
   17.8329   -0.4503   21.2097 C   0  0  0  0  0  0  0  0  0  0  0  0
   18.2681    0.7282   20.3635 C   0  0  0  0  0  0  0  0  0  0  0  0
   18.7070    0.0580   19.0704 C   0  0  0  0  0  0  0  0  0  0  0  0
  1  2  1  0
  2  3  2  0
  3  4  1  0
  4  5  1  0
  4  6  2  0
  6  7  1  0
  7  8  2  0
  8  9  1  0
  9 10  1  0
 10 11  2  0
 10 12  1  0
 12 13  1  0
 13 14  2  0
 13 15  2  0
 13 16  1  0
 16 17  2  0
 17 18  1  0
 18 19  2  0
 19 20  1  0
 19 21  1  0
 21 22  2  0
 12 23  1  0
 23 24  1  0
 24 25  1  0
 25 26  1  0
  8  2  1  0
 26 12  1  0
 22 16  1  0
M  END
>  <ref_mols>  (971) 
B1396a

>  <gnina_score>  (971) 
5.433

>  <smina_score_min>  (971) 
-3.325

>  <ref_pdb>  (971) 
B1396a

>  <inspiration_score>  (971) 
None

>  <inchikey>  (971) 
KFJDENYMDVMYLS-UHFFFAOYSA-N

>  <tags>  (971) 
BulkDock Fragalysis export,openbind_d68ev3c_c2_elabs_scored,openbind_d68ev3c_c2_elabs_scored_4.5plus,openbind_d68ev3c_c2_elabs,openbind_d68ev3c_c2_elabs_scored_5plus,syndirella_product,openbind_d68ev3c_c2_elabs_scored_top80percent,syndirella_placed

>  <smiles>  (971) 
Cc1cc(Cl)ccc1NC(=O)C1(S(=O)(=O)c2ccc(Br)cc2)CCCC1

>  <subsites>  (971) 
None

>  <rmsd(smina/fragmenstein)>  (971) 
1.93

>  <alias>  (971) 
None

>  <energy_score>  (971) 
-46.415197

>  <HIPPO Pose ID>  (971) 
95010

>  <distance_score>  (971) 
0.59001

>  <HIPPO Compound ID>  (971) 
128866

>  <gnina_score_min>  (971) 
5.212

>  <name>  (971) 
P95010

>  <exports>  (971) 
['/opt/xchem-fragalysis-2/maxwin/BulkDock/OUTPUTS/openbind_d68ev3c_c2_elabs_1LOTQJ3.sdf', '/opt/xchem-fragalysis-2/maxwin/BulkDock/OUTPUTS/openbind_d68ev3c_c2_elabs_1LSYI5W.sdf']

$$$$
P95011
     RDKit          3D

 26 28  0  0  0  0  0  0  0  0999 V2000
   13.7430   -4.1944   17.6363 C   0  0  0  0  0  0  0  0  0  0  0  0
   13.3002   -3.0125   16.8165 C   0  0  0  0  0  0  0  0  0  0  0  0
   12.1353   -3.1259   16.0378 C   0  0  0  0  0  0  0  0  0  0  0  0
   11.6792   -2.0585   15.2666 C   0  0  0  0  0  0  0  0  0  0  0  0
   12.3894   -0.8644   15.2696 C   0  0  0  0  0  0  0  0  0  0  0  0
   11.8214    0.4603   14.3293 Cl  0  0  0  0  0  0  0  0  0  0  0  0
   13.5523   -0.7321   16.0294 C   0  0  0  0  0  0  0  0  0  0  0  0
   14.0139   -1.8013   16.8041 C   0  0  0  0  0  0  0  0  0  0  0  0
   15.1692   -1.6641   17.5786 N   0  0  0  0  0  0  0  0  0  0  0  0
   16.2431   -0.5285   17.6065 C   0  0  0  0  0  0  0  0  0  0  0  0
   16.2781    0.4969   17.0399 O   0  0  0  0  0  0  0  0  0  0  0  0
   17.3284   -0.8846   18.6509 C   0  0  0  0  0  0  0  0  0  0  0  0
   18.1966   -2.3515   18.1228 S   0  0  0  0  0  0  0  0  0  0  0  0
   19.4230   -2.4803   18.8882 O   0  0  0  0  0  0  0  0  0  0  0  0
   17.2359   -3.4439   18.1332 O   0  0  0  0  0  0  0  0  0  0  0  0
   18.6779   -2.0831   16.4312 C   0  0  0  0  0  0  0  0  0  0  0  0
   17.9628   -2.6930   15.3943 C   0  0  0  0  0  0  0  0  0  0  0  0
   18.3747   -2.5039   14.0725 C   0  0  0  0  0  0  0  0  0  0  0  0
   19.4994   -1.7243   13.8004 C   0  0  0  0  0  0  0  0  0  0  0  0
   20.0534   -1.4685   12.0115 Br  0  0  0  0  0  0  0  0  0  0  0  0
   20.2235   -1.1356   14.8366 C   0  0  0  0  0  0  0  0  0  0  0  0
   19.8187   -1.3218   16.1593 C   0  0  0  0  0  0  0  0  0  0  0  0
   18.2924    0.2985   18.8782 C   0  0  0  0  0  0  0  0  0  0  0  0
   17.5791    1.2212   19.8670 C   0  0  0  0  0  0  0  0  0  0  0  0
   16.5242    0.3675   20.5633 C   0  0  0  0  0  0  0  0  0  0  0  0
   16.7422   -1.0556   20.0618 C   0  0  0  0  0  0  0  0  0  0  0  0
  1  2  1  0
  2  3  2  0
  3  4  1  0
  4  5  2  0
  5  6  1  0
  5  7  1  0
  7  8  2  0
  8  9  1  0
  9 10  1  0
 10 11  2  0
 10 12  1  0
 12 13  1  0
 13 14  2  0
 13 15  2  0
 13 16  1  0
 16 17  2  0
 17 18  1  0
 18 19  2  0
 19 20  1  0
 19 21  1  0
 21 22  2  0
 12 23  1  0
 23 24  1  0
 24 25  1  0
 25 26  1  0
  8  2  1  0
 26 12  1  0
 22 16  1  0
M  END
>  <ref_mols>  (972) 
B1396a

>  <gnina_score>  (972) 
5.227

>  <smina_score_min>  (972) 
-3.989

>  <ref_pdb>  (972) 
B1396a

>  <inspiration_score>  (972) 
None

>  <inchikey>  (972) 
YMUQWLYISGZRTG-UHFFFAOYSA-N

>  <tags>  (972) 
BulkDock Fragalysis export,openbind_d68ev3c_c2_elabs_scored,openbind_d68ev3c_c2_elabs_scored_4.5plus,openbind_d68ev3c_c2_elabs,openbind_d68ev3c_c2_elabs_scored_5plus,syndirella_product,openbind_d68ev3c_c2_elabs_scored_top80percent,syndirella_placed

>  <smiles>  (972) 
Cc1ccc(Cl)cc1NC(=O)C1(S(=O)(=O)c2ccc(Br)cc2)CCCC1

>  <subsites>  (972) 
None

>  <rmsd(smina/fragmenstein)>  (972) 
2.186

>  <alias>  (972) 
None

>  <energy_score>  (972) 
-60.620782

>  <HIPPO Pose ID>  (972) 
95011

>  <distance_score>  (972) 
0.423486

>  <HIPPO Compound ID>  (972) 
128867

>  <gnina_score_min>  (972) 
5.117

>  <name>  (972) 
P95011

>  <exports>  (972) 
['/opt/xchem-fragalysis-2/maxwin/BulkDock/OUTPUTS/openbind_d68ev3c_c2_elabs_1LOTQJ3.sdf', '/opt/xchem-fragalysis-2/maxwin/BulkDock/OUTPUTS/openbind_d68ev3c_c2_elabs_1LSYI5W.sdf']

$$$$
P95012
     RDKit          3D

 26 28  0  0  0  0  0  0  0  0999 V2000
   13.8126   -4.1081   17.5841 C   0  0  0  0  0  0  0  0  0  0  0  0
   13.2881   -2.9224   16.8123 C   0  0  0  0  0  0  0  0  0  0  0  0
   12.1407   -3.1163   16.0196 C   0  0  0  0  0  0  0  0  0  0  0  0
   11.5936   -2.0784   15.2770 C   0  0  0  0  0  0  0  0  0  0  0  0
   12.1647   -0.8166   15.3556 C   0  0  0  0  0  0  0  0  0  0  0  0
   13.3012   -0.5913   16.1486 C   0  0  0  0  0  0  0  0  0  0  0  0
   13.7171    1.0743   16.3423 Cl  0  0  0  0  0  0  0  0  0  0  0  0
   13.9145   -1.6519   16.8476 C   0  0  0  0  0  0  0  0  0  0  0  0
   15.0941   -1.5400   17.6146 N   0  0  0  0  0  0  0  0  0  0  0  0
   16.2878   -0.5324   17.5023 C   0  0  0  0  0  0  0  0  0  0  0  0
   16.4309    0.4003   16.8067 O   0  0  0  0  0  0  0  0  0  0  0  0
   17.3372   -0.8586   18.5901 C   0  0  0  0  0  0  0  0  0  0  0  0
   18.1741   -2.3623   18.1233 S   0  0  0  0  0  0  0  0  0  0  0  0
   19.3830   -2.4976   18.9156 O   0  0  0  0  0  0  0  0  0  0  0  0
   17.1886   -3.4313   18.1469 O   0  0  0  0  0  0  0  0  0  0  0  0
   18.6925   -2.1464   16.4339 C   0  0  0  0  0  0  0  0  0  0  0  0
   19.8680   -1.4374   16.1667 C   0  0  0  0  0  0  0  0  0  0  0  0
   20.2872   -1.2704   14.8461 C   0  0  0  0  0  0  0  0  0  0  0  0
   19.5422   -1.8268   13.8073 C   0  0  0  0  0  0  0  0  0  0  0  0
   20.1140   -1.5961   12.0205 Br  0  0  0  0  0  0  0  0  0  0  0  0
   18.3829   -2.5560   14.0750 C   0  0  0  0  0  0  0  0  0  0  0  0
   17.9565   -2.7262   15.3949 C   0  0  0  0  0  0  0  0  0  0  0  0
   18.3288    0.3125   18.7659 C   0  0  0  0  0  0  0  0  0  0  0  0
   17.6130    1.3101   19.6762 C   0  0  0  0  0  0  0  0  0  0  0  0
   16.5549    0.5109   20.4298 C   0  0  0  0  0  0  0  0  0  0  0  0
   16.7511   -0.9415   20.0082 C   0  0  0  0  0  0  0  0  0  0  0  0
  1  2  1  0
  2  3  2  0
  3  4  1  0
  4  5  2  0
  5  6  1  0
  6  7  1  0
  6  8  2  0
  8  9  1  0
  9 10  1  0
 10 11  2  0
 10 12  1  0
 12 13  1  0
 13 14  2  0
 13 15  2  0
 13 16  1  0
 16 17  2  0
 17 18  1  0
 18 19  2  0
 19 20  1  0
 19 21  1  0
 21 22  2  0
 12 23  1  0
 23 24  1  0
 24 25  1  0
 25 26  1  0
  8  2  1  0
 26 12  1  0
 22 16  1  0
M  END
>  <ref_mols>  (973) 
B1396a

>  <gnina_score>  (973) 
5.244

>  <smina_score_min>  (973) 
-3.929

>  <ref_pdb>  (973) 
B1396a

>  <inspiration_score>  (973) 
None

>  <inchikey>  (973) 
HLAXGNAKVASTPG-UHFFFAOYSA-N

>  <tags>  (973) 
BulkDock Fragalysis export,openbind_d68ev3c_c2_elabs_scored,openbind_d68ev3c_c2_elabs_scored_4.5plus,openbind_d68ev3c_c2_elabs,openbind_d68ev3c_c2_elabs_scored_5plus,syndirella_product,openbind_d68ev3c_c2_elabs_scored_top80percent,syndirella_placed

>  <smiles>  (973) 
Cc1cccc(Cl)c1NC(=O)C1(S(=O)(=O)c2ccc(Br)cc2)CCCC1

>  <subsites>  (973) 
None

>  <rmsd(smina/fragmenstein)>  (973) 
2.042

>  <alias>  (973) 
None

>  <energy_score>  (973) 
-26.9449

>  <HIPPO Pose ID>  (973) 
95012

>  <distance_score>  (973) 
0.388889

>  <HIPPO Compound ID>  (973) 
128868

>  <gnina_score_min>  (973) 
5.131

>  <name>  (973) 
P95012

>  <exports>  (973) 
['/opt/xchem-fragalysis-2/maxwin/BulkDock/OUTPUTS/openbind_d68ev3c_c2_elabs_1LOTQJ3.sdf', '/opt/xchem-fragalysis-2/maxwin/BulkDock/OUTPUTS/openbind_d68ev3c_c2_elabs_1LSYI5W.sdf']

$$$$
P95013
     RDKit          3D

 26 28  0  0  0  0  0  0  0  0999 V2000
   13.7851   -4.1003   17.6013 C   0  0  0  0  0  0  0  0  0  0  0  0
   13.2735   -2.9204   16.8108 C   0  0  0  0  0  0  0  0  0  0  0  0
   12.1316   -3.1204   16.0146 C   0  0  0  0  0  0  0  0  0  0  0  0
   11.5975   -2.0901   15.2559 C   0  0  0  0  0  0  0  0  0  0  0  0
   12.1809   -0.8320   15.3157 C   0  0  0  0  0  0  0  0  0  0  0  0
   13.3200   -0.5897   16.1080 C   0  0  0  0  0  0  0  0  0  0  0  0
   13.7386    1.1467   16.2317 S   0  0  0  0  0  0  0  0  0  0  0  0
   13.9069   -1.6506   16.8365 C   0  0  0  0  0  0  0  0  0  0  0  0
   15.0655   -1.5447   17.6360 N   0  0  0  0  0  0  0  0  0  0  0  0
   16.2865   -0.5707   17.5315 C   0  0  0  0  0  0  0  0  0  0  0  0
   16.4741    0.3375   16.8138 O   0  0  0  0  0  0  0  0  0  0  0  0
   17.2978   -0.9127   18.6404 C   0  0  0  0  0  0  0  0  0  0  0  0
   18.1881   -2.3825   18.1363 S   0  0  0  0  0  0  0  0  0  0  0  0
   19.4160   -2.4872   18.9030 O   0  0  0  0  0  0  0  0  0  0  0  0
   17.2431   -3.4875   18.1554 O   0  0  0  0  0  0  0  0  0  0  0  0
   18.6739   -2.1422   16.4373 C   0  0  0  0  0  0  0  0  0  0  0  0
   17.8887   -2.6678   15.4047 C   0  0  0  0  0  0  0  0  0  0  0  0
   18.2907   -2.4909   14.0780 C   0  0  0  0  0  0  0  0  0  0  0  0
   19.4772   -1.8133   13.7955 C   0  0  0  0  0  0  0  0  0  0  0  0
   20.0156   -1.5722   11.9999 Br  0  0  0  0  0  0  0  0  0  0  0  0
   20.2735   -1.3164   14.8261 C   0  0  0  0  0  0  0  0  0  0  0  0
   19.8779   -1.4899   16.1534 C   0  0  0  0  0  0  0  0  0  0  0  0
   16.6420   -1.0742   20.0226 C   0  0  0  0  0  0  0  0  0  0  0  0
   17.7368   -0.7772   21.0388 C   0  0  0  0  0  0  0  0  0  0  0  0
   18.7023    0.1757   20.3501 C   0  0  0  0  0  0  0  0  0  0  0  0
   18.2419    0.2814   18.8983 C   0  0  0  0  0  0  0  0  0  0  0  0
  1  2  1  0
  2  3  2  0
  3  4  1  0
  4  5  2  0
  5  6  1  0
  6  7  1  0
  6  8  2  0
  8  9  1  0
  9 10  1  0
 10 11  2  0
 10 12  1  0
 12 13  1  0
 13 14  2  0
 13 15  2  0
 13 16  1  0
 16 17  2  0
 17 18  1  0
 18 19  2  0
 19 20  1  0
 19 21  1  0
 21 22  2  0
 12 23  1  0
 23 24  1  0
 24 25  1  0
 25 26  1  0
  8  2  1  0
 26 12  1  0
 22 16  1  0
M  END
>  <ref_mols>  (974) 
B1396a

>  <gnina_score>  (974) 
5.22

>  <smina_score_min>  (974) 
-3.892

>  <ref_pdb>  (974) 
B1396a

>  <inspiration_score>  (974) 
None

>  <inchikey>  (974) 
YNAFMEBMZYYABR-UHFFFAOYSA-N

>  <tags>  (974) 
BulkDock Fragalysis export,openbind_d68ev3c_c2_elabs_scored,openbind_d68ev3c_c2_elabs_scored_4.5plus,openbind_d68ev3c_c2_elabs,openbind_d68ev3c_c2_elabs_scored_5plus,syndirella_product,openbind_d68ev3c_c2_elabs_scored_top80percent,syndirella_placed

>  <smiles>  (974) 
Cc1cccc(S)c1NC(=O)C1(S(=O)(=O)c2ccc(Br)cc2)CCCC1

>  <subsites>  (974) 
None

>  <rmsd(smina/fragmenstein)>  (974) 
2.44

>  <alias>  (974) 
None

>  <energy_score>  (974) 
-49.176331

>  <HIPPO Pose ID>  (974) 
95013

>  <distance_score>  (974) 
0.390613

>  <HIPPO Compound ID>  (974) 
128869

>  <gnina_score_min>  (974) 
5.136

>  <name>  (974) 
P95013

>  <exports>  (974) 
['/opt/xchem-fragalysis-2/maxwin/BulkDock/OUTPUTS/openbind_d68ev3c_c2_elabs_1LOTQJ3.sdf', '/opt/xchem-fragalysis-2/maxwin/BulkDock/OUTPUTS/openbind_d68ev3c_c2_elabs_1LSYI5W.sdf']

$$$$
P95014
     RDKit          3D

 26 28  0  0  0  0  0  0  0  0999 V2000
   13.6534   -3.7162   17.2676 C   0  0  0  0  0  0  0  0  0  0  0  0
   13.3935   -2.3542   16.6727 C   0  0  0  0  0  0  0  0  0  0  0  0
   12.3618   -2.1139   15.7441 C   0  0  0  0  0  0  0  0  0  0  0  0
   11.3929   -3.4659   14.8796 Br  0  0  0  0  0  0  0  0  0  0  0  0
   12.0509   -0.8295   15.2916 C   0  0  0  0  0  0  0  0  0  0  0  0
   12.8168    0.2437   15.6998 C   0  0  0  0  0  0  0  0  0  0  0  0
   13.9146    0.0207   16.5230 C   0  0  0  0  0  0  0  0  0  0  0  0
   14.2199   -1.2614   16.9987 C   0  0  0  0  0  0  0  0  0  0  0  0
   15.3915   -1.4387   17.7395 N   0  0  0  0  0  0  0  0  0  0  0  0
   16.5609   -0.4434   18.0445 C   0  0  0  0  0  0  0  0  0  0  0  0
   16.7512    0.6464   17.6556 O   0  0  0  0  0  0  0  0  0  0  0  0
   17.5490   -1.1017   19.0272 C   0  0  0  0  0  0  0  0  0  0  0  0
   18.2590   -2.5497   18.2520 S   0  0  0  0  0  0  0  0  0  0  0  0
   19.5016   -2.8848   18.9214 O   0  0  0  0  0  0  0  0  0  0  0  0
   17.2006   -3.5461   18.1738 O   0  0  0  0  0  0  0  0  0  0  0  0
   18.6880   -2.1259   16.5757 C   0  0  0  0  0  0  0  0  0  0  0  0
   19.8029   -1.3200   16.3320 C   0  0  0  0  0  0  0  0  0  0  0  0
   20.1753   -1.0408   15.0147 C   0  0  0  0  0  0  0  0  0  0  0  0
   19.4456   -1.5804   13.9550 C   0  0  0  0  0  0  0  0  0  0  0  0
   19.9595   -1.1990   12.1767 Br  0  0  0  0  0  0  0  0  0  0  0  0
   18.3439   -2.4005   14.1967 C   0  0  0  0  0  0  0  0  0  0  0  0
   17.9640   -2.6803   15.5118 C   0  0  0  0  0  0  0  0  0  0  0  0
   18.6549   -0.0970   19.4542 C   0  0  0  0  0  0  0  0  0  0  0  0
   18.1538    0.4972   20.7615 C   0  0  0  0  0  0  0  0  0  0  0  0
   17.5674   -0.7102   21.4633 C   0  0  0  0  0  0  0  0  0  0  0  0
   16.8308   -1.4594   20.3567 C   0  0  0  0  0  0  0  0  0  0  0  0
  1  2  1  0
  2  3  2  0
  3  4  1  0
  3  5  1  0
  5  6  2  0
  6  7  1  0
  7  8  2  0
  8  9  1  0
  9 10  1  0
 10 11  2  0
 10 12  1  0
 12 13  1  0
 13 14  2  0
 13 15  2  0
 13 16  1  0
 16 17  2  0
 17 18  1  0
 18 19  2  0
 19 20  1  0
 19 21  1  0
 21 22  2  0
 12 23  1  0
 23 24  1  0
 24 25  1  0
 25 26  1  0
  8  2  1  0
 26 12  1  0
 22 16  1  0
M  END
>  <ref_mols>  (975) 
B1396a

>  <gnina_score>  (975) 
5.275

>  <smina_score_min>  (975) 
-3.411

>  <ref_pdb>  (975) 
B1396a

>  <inspiration_score>  (975) 
None

>  <inchikey>  (975) 
AWYJZVZDCLAYDM-UHFFFAOYSA-N

>  <tags>  (975) 
BulkDock Fragalysis export,openbind_d68ev3c_c2_elabs_scored,openbind_d68ev3c_c2_elabs_scored_4.5plus,openbind_d68ev3c_c2_elabs,openbind_d68ev3c_c2_elabs_scored_5plus,syndirella_product,openbind_d68ev3c_c2_elabs_scored_top80percent,syndirella_placed

>  <smiles>  (975) 
Cc1c(Br)cccc1NC(=O)C1(S(=O)(=O)c2ccc(Br)cc2)CCCC1

>  <subsites>  (975) 
None

>  <rmsd(smina/fragmenstein)>  (975) 
2.24

>  <alias>  (975) 
None

>  <energy_score>  (975) 
-51.286693

>  <HIPPO Pose ID>  (975) 
95014

>  <distance_score>  (975) 
0.888154

>  <HIPPO Compound ID>  (975) 
128870

>  <gnina_score_min>  (975) 
5.076

>  <name>  (975) 
P95014

>  <exports>  (975) 
['/opt/xchem-fragalysis-2/maxwin/BulkDock/OUTPUTS/openbind_d68ev3c_c2_elabs_1LOTQJ3.sdf', '/opt/xchem-fragalysis-2/maxwin/BulkDock/OUTPUTS/openbind_d68ev3c_c2_elabs_1LSYI5W.sdf']

$$$$
P95015
     RDKit          3D

 26 28  0  0  0  0  0  0  0  0999 V2000
   13.6019   -3.8066   17.3097 C   0  0  0  0  0  0  0  0  0  0  0  0
   13.3382   -2.4743   16.6528 C   0  0  0  0  0  0  0  0  0  0  0  0
   12.3072   -2.2930   15.7082 C   0  0  0  0  0  0  0  0  0  0  0  0
   11.3956   -3.5788   15.0487 Cl  0  0  0  0  0  0  0  0  0  0  0  0
   12.0004   -1.0392   15.1766 C   0  0  0  0  0  0  0  0  0  0  0  0
   12.7572    0.0603   15.5331 C   0  0  0  0  0  0  0  0  0  0  0  0
   13.8379   -0.1057   16.3932 C   0  0  0  0  0  0  0  0  0  0  0  0
   14.1448   -1.3572   16.9445 C   0  0  0  0  0  0  0  0  0  0  0  0
   15.2761   -1.4699   17.7598 N   0  0  0  0  0  0  0  0  0  0  0  0
   16.4544   -0.4694   18.0061 C   0  0  0  0  0  0  0  0  0  0  0  0
   16.6119    0.6275   17.6222 O   0  0  0  0  0  0  0  0  0  0  0  0
   17.4682   -1.0974   18.9836 C   0  0  0  0  0  0  0  0  0  0  0  0
   18.2043   -2.5313   18.2268 S   0  0  0  0  0  0  0  0  0  0  0  0
   17.1638   -3.5465   18.1602 O   0  0  0  0  0  0  0  0  0  0  0  0
   19.4528   -2.8332   18.9016 O   0  0  0  0  0  0  0  0  0  0  0  0
   18.6311   -2.1146   16.5494 C   0  0  0  0  0  0  0  0  0  0  0  0
   17.8965   -2.6578   15.4878 C   0  0  0  0  0  0  0  0  0  0  0  0
   18.2810   -2.3863   14.1722 C   0  0  0  0  0  0  0  0  0  0  0  0
   19.3981   -1.5876   13.9280 C   0  0  0  0  0  0  0  0  0  0  0  0
   19.9170   -1.2186   12.1486 Br  0  0  0  0  0  0  0  0  0  0  0  0
   20.1391   -1.0604   14.9858 C   0  0  0  0  0  0  0  0  0  0  0  0
   19.7618   -1.3308   16.3033 C   0  0  0  0  0  0  0  0  0  0  0  0
   16.8292   -1.4401   20.3395 C   0  0  0  0  0  0  0  0  0  0  0  0
   16.7359   -0.1064   21.0729 C   0  0  0  0  0  0  0  0  0  0  0  0
   17.8773    0.7490   20.5329 C   0  0  0  0  0  0  0  0  0  0  0  0
   18.5331   -0.0680   19.4193 C   0  0  0  0  0  0  0  0  0  0  0  0
  1  2  1  0
  2  3  2  0
  3  4  1  0
  3  5  1  0
  5  6  2  0
  6  7  1  0
  7  8  2  0
  8  9  1  0
  9 10  1  0
 10 11  2  0
 10 12  1  0
 12 13  1  0
 13 14  2  0
 13 15  2  0
 13 16  1  0
 16 17  2  0
 17 18  1  0
 18 19  2  0
 19 20  1  0
 19 21  1  0
 21 22  2  0
 12 23  1  0
 23 24  1  0
 24 25  1  0
 25 26  1  0
  8  2  1  0
 26 12  1  0
 22 16  1  0
M  END
>  <ref_mols>  (976) 
B1396a

>  <gnina_score>  (976) 
5.251

>  <smina_score_min>  (976) 
-4.015

>  <ref_pdb>  (976) 
B1396a

>  <inspiration_score>  (976) 
None

>  <inchikey>  (976) 
XBIISHXDDKDAFW-UHFFFAOYSA-N

>  <tags>  (976) 
BulkDock Fragalysis export,openbind_d68ev3c_c2_elabs_scored,openbind_d68ev3c_c2_elabs_scored_4.5plus,openbind_d68ev3c_c2_elabs,openbind_d68ev3c_c2_elabs_scored_5plus,syndirella_product,openbind_d68ev3c_c2_elabs_scored_top80percent,syndirella_placed

>  <smiles>  (976) 
Cc1c(Cl)cccc1NC(=O)C1(S(=O)(=O)c2ccc(Br)cc2)CCCC1

>  <subsites>  (976) 
None

>  <rmsd(smina/fragmenstein)>  (976) 
2.614

>  <alias>  (976) 
None

>  <energy_score>  (976) 
-54.660095

>  <HIPPO Pose ID>  (976) 
95015

>  <distance_score>  (976) 
0.8

>  <HIPPO Compound ID>  (976) 
128871

>  <gnina_score_min>  (976) 
5.014

>  <name>  (976) 
P95015

>  <exports>  (976) 
['/opt/xchem-fragalysis-2/maxwin/BulkDock/OUTPUTS/openbind_d68ev3c_c2_elabs_1LOTQJ3.sdf', '/opt/xchem-fragalysis-2/maxwin/BulkDock/OUTPUTS/openbind_d68ev3c_c2_elabs_1LSYI5W.sdf']

$$$$
P95017
     RDKit          3D

 26 28  0  0  0  0  0  0  0  0999 V2000
   13.7725   -4.1647   17.6384 C   0  0  0  0  0  0  0  0  0  0  0  0
   13.3056   -2.9836   16.8293 C   0  0  0  0  0  0  0  0  0  0  0  0
   12.1398   -3.1247   16.0510 C   0  0  0  0  0  0  0  0  0  0  0  0
   11.6495   -2.0719   15.2817 C   0  0  0  0  0  0  0  0  0  0  0  0
   12.3179   -0.8560   15.2916 C   0  0  0  0  0  0  0  0  0  0  0  0
   13.4756   -0.7022   16.0548 C   0  0  0  0  0  0  0  0  0  0  0  0
   14.0379    0.5116   16.0570 F   0  0  0  0  0  0  0  0  0  0  0  0
   13.9964   -1.7550   16.8212 C   0  0  0  0  0  0  0  0  0  0  0  0
   15.1616   -1.6248   17.5954 N   0  0  0  0  0  0  0  0  0  0  0  0
   16.2700   -0.5181   17.5857 C   0  0  0  0  0  0  0  0  0  0  0  0
   16.3341    0.4864   16.9852 O   0  0  0  0  0  0  0  0  0  0  0  0
   17.3426   -0.8729   18.6416 C   0  0  0  0  0  0  0  0  0  0  0  0
   18.1901   -2.3637   18.1218 S   0  0  0  0  0  0  0  0  0  0  0  0
   19.4058   -2.5148   18.9006 O   0  0  0  0  0  0  0  0  0  0  0  0
   17.2136   -3.4422   18.1238 O   0  0  0  0  0  0  0  0  0  0  0  0
   18.6880   -2.1047   16.4326 C   0  0  0  0  0  0  0  0  0  0  0  0
   17.9554   -2.6865   15.3915 C   0  0  0  0  0  0  0  0  0  0  0  0
   18.3725   -2.5020   14.0708 C   0  0  0  0  0  0  0  0  0  0  0  0
   19.5200   -1.7549   13.8033 C   0  0  0  0  0  0  0  0  0  0  0  0
   20.0814   -1.5046   12.0159 Br  0  0  0  0  0  0  0  0  0  0  0  0
   20.2614   -1.1948   14.8431 C   0  0  0  0  0  0  0  0  0  0  0  0
   19.8513   -1.3770   16.1649 C   0  0  0  0  0  0  0  0  0  0  0  0
   16.6987   -1.0470   20.0433 C   0  0  0  0  0  0  0  0  0  0  0  0
   17.4317   -0.0886   20.9755 C   0  0  0  0  0  0  0  0  0  0  0  0
   17.8615    1.0407   20.0621 C   0  0  0  0  0  0  0  0  0  0  0  0
   18.3501    0.2961   18.8289 C   0  0  0  0  0  0  0  0  0  0  0  0
  1  2  1  0
  2  3  2  0
  3  4  1  0
  4  5  2  0
  5  6  1  0
  6  7  1  0
  6  8  2  0
  8  9  1  0
  9 10  1  0
 10 11  2  0
 10 12  1  0
 12 13  1  0
 13 14  2  0
 13 15  2  0
 13 16  1  0
 16 17  2  0
 17 18  1  0
 18 19  2  0
 19 20  1  0
 19 21  1  0
 21 22  2  0
 12 23  1  0
 23 24  1  0
 24 25  1  0
 25 26  1  0
  8  2  1  0
 26 12  1  0
 22 16  1  0
M  END
>  <ref_mols>  (977) 
B1396a

>  <gnina_score>  (977) 
5.164

>  <smina_score_min>  (977) 
-3.879

>  <ref_pdb>  (977) 
B1396a

>  <inspiration_score>  (977) 
None

>  <inchikey>  (977) 
HCDCGTCGAIZBOV-UHFFFAOYSA-N

>  <tags>  (977) 
BulkDock Fragalysis export,openbind_d68ev3c_c2_elabs_scored,openbind_d68ev3c_c2_elabs_scored_4.5plus,openbind_d68ev3c_c2_elabs,openbind_d68ev3c_c2_elabs_scored_5plus,syndirella_product,openbind_d68ev3c_c2_elabs_scored_top80percent,syndirella_placed

>  <smiles>  (977) 
Cc1cccc(F)c1NC(=O)C1(S(=O)(=O)c2ccc(Br)cc2)CCCC1

>  <subsites>  (977) 
None

>  <rmsd(smina/fragmenstein)>  (977) 
2.106

>  <alias>  (977) 
None

>  <energy_score>  (977) 
-37.407344

>  <HIPPO Pose ID>  (977) 
95017

>  <distance_score>  (977) 
0.419323

>  <HIPPO Compound ID>  (977) 
128874

>  <gnina_score_min>  (977) 
5.046

>  <name>  (977) 
P95017

>  <exports>  (977) 
['/opt/xchem-fragalysis-2/maxwin/BulkDock/OUTPUTS/openbind_d68ev3c_c2_elabs_1LOTQJ3.sdf', '/opt/xchem-fragalysis-2/maxwin/BulkDock/OUTPUTS/openbind_d68ev3c_c2_elabs_1LSYI5W.sdf']

$$$$
P95019
     RDKit          3D

 26 28  0  0  0  0  0  0  0  0999 V2000
   13.6985   -4.1893   17.6318 C   0  0  0  0  0  0  0  0  0  0  0  0
   13.2802   -3.0005   16.8097 C   0  0  0  0  0  0  0  0  0  0  0  0
   12.1230   -3.0978   16.0176 C   0  0  0  0  0  0  0  0  0  0  0  0
   11.6869   -2.0238   15.2429 C   0  0  0  0  0  0  0  0  0  0  0  0
   12.4128   -0.8383   15.2549 C   0  0  0  0  0  0  0  0  0  0  0  0
   11.7686    0.7732   14.1094 I   0  0  0  0  0  0  0  0  0  0  0  0
   13.5692   -0.7220   16.0296 C   0  0  0  0  0  0  0  0  0  0  0  0
   14.0066   -1.7974   16.8096 C   0  0  0  0  0  0  0  0  0  0  0  0
   15.1504   -1.6741   17.6031 N   0  0  0  0  0  0  0  0  0  0  0  0
   16.2471   -0.5592   17.6368 C   0  0  0  0  0  0  0  0  0  0  0  0
   16.3128    0.4584   17.0589 O   0  0  0  0  0  0  0  0  0  0  0  0
   17.2954   -0.9322   18.7011 C   0  0  0  0  0  0  0  0  0  0  0  0
   18.2036   -2.3708   18.1403 S   0  0  0  0  0  0  0  0  0  0  0  0
   19.4468   -2.4752   18.8816 O   0  0  0  0  0  0  0  0  0  0  0  0
   17.2766   -3.4922   18.1474 O   0  0  0  0  0  0  0  0  0  0  0  0
   18.6550   -2.0838   16.4400 C   0  0  0  0  0  0  0  0  0  0  0  0
   17.8792   -2.6277   15.4095 C   0  0  0  0  0  0  0  0  0  0  0  0
   18.2683   -2.4365   14.0809 C   0  0  0  0  0  0  0  0  0  0  0  0
   19.4335   -1.7252   13.7939 C   0  0  0  0  0  0  0  0  0  0  0  0
   19.9558   -1.4653   11.9962 Br  0  0  0  0  0  0  0  0  0  0  0  0
   20.2206   -1.2079   14.8218 C   0  0  0  0  0  0  0  0  0  0  0  0
   19.8377   -1.3959   16.1510 C   0  0  0  0  0  0  0  0  0  0  0  0
   18.2266    0.2586   19.0107 C   0  0  0  0  0  0  0  0  0  0  0  0
   18.6841    0.0953   20.4591 C   0  0  0  0  0  0  0  0  0  0  0  0
   17.7363   -0.9075   21.1011 C   0  0  0  0  0  0  0  0  0  0  0  0
   16.6408   -1.1643   20.0752 C   0  0  0  0  0  0  0  0  0  0  0  0
  1  2  1  0
  2  3  2  0
  3  4  1  0
  4  5  2  0
  5  6  1  0
  5  7  1  0
  7  8  2  0
  8  9  1  0
  9 10  1  0
 10 11  2  0
 10 12  1  0
 12 13  1  0
 13 14  2  0
 13 15  2  0
 13 16  1  0
 16 17  2  0
 17 18  1  0
 18 19  2  0
 19 20  1  0
 19 21  1  0
 21 22  2  0
 12 23  1  0
 23 24  1  0
 24 25  1  0
 25 26  1  0
  8  2  1  0
 26 12  1  0
 22 16  1  0
M  END
>  <ref_mols>  (978) 
B1396a

>  <gnina_score>  (978) 
5.25

>  <smina_score_min>  (978) 
-3.985

>  <ref_pdb>  (978) 
B1396a

>  <inspiration_score>  (978) 
None

>  <inchikey>  (978) 
IOAYORMJVARTRU-UHFFFAOYSA-N

>  <tags>  (978) 
BulkDock Fragalysis export,openbind_d68ev3c_c2_elabs_scored,openbind_d68ev3c_c2_elabs_scored_4.5plus,openbind_d68ev3c_c2_elabs,openbind_d68ev3c_c2_elabs_scored_5plus,syndirella_product,openbind_d68ev3c_c2_elabs_scored_top80percent,syndirella_placed

>  <smiles>  (978) 
Cc1ccc(I)cc1NC(=O)C1(S(=O)(=O)c2ccc(Br)cc2)CCCC1

>  <subsites>  (978) 
None

>  <rmsd(smina/fragmenstein)>  (978) 
2.208

>  <alias>  (978) 
None

>  <energy_score>  (978) 
-39.035647

>  <HIPPO Pose ID>  (978) 
95019

>  <distance_score>  (978) 
0.434266

>  <HIPPO Compound ID>  (978) 
128876

>  <gnina_score_min>  (978) 
5.225

>  <name>  (978) 
P95019

>  <exports>  (978) 
['/opt/xchem-fragalysis-2/maxwin/BulkDock/OUTPUTS/openbind_d68ev3c_c2_elabs_1LOTQJ3.sdf', '/opt/xchem-fragalysis-2/maxwin/BulkDock/OUTPUTS/openbind_d68ev3c_c2_elabs_1LSYI5W.sdf']

$$$$
P95020
     RDKit          3D

 26 28  0  0  0  0  0  0  0  0999 V2000
   13.7308   -4.2006   17.5996 C   0  0  0  0  0  0  0  0  0  0  0  0
   13.2863   -3.0192   16.7801 C   0  0  0  0  0  0  0  0  0  0  0  0
   12.0992   -3.1191   16.0350 C   0  0  0  0  0  0  0  0  0  0  0  0
   11.6361   -2.0492   15.2714 C   0  0  0  0  0  0  0  0  0  0  0  0
   12.3631   -0.8655   15.2497 C   0  0  0  0  0  0  0  0  0  0  0  0
   11.7337    0.5928   14.2234 Br  0  0  0  0  0  0  0  0  0  0  0  0
   13.5508   -0.7468   15.9732 C   0  0  0  0  0  0  0  0  0  0  0  0
   14.0188   -1.8203   16.7374 C   0  0  0  0  0  0  0  0  0  0  0  0
   15.2111   -1.7146   17.4561 N   0  0  0  0  0  0  0  0  0  0  0  0
   16.2513   -0.5507   17.5297 C   0  0  0  0  0  0  0  0  0  0  0  0
   16.3017    0.4602   16.9392 O   0  0  0  0  0  0  0  0  0  0  0  0
   17.2988   -0.8805   18.6187 C   0  0  0  0  0  0  0  0  0  0  0  0
   18.2095   -2.3374   18.1306 S   0  0  0  0  0  0  0  0  0  0  0  0
   19.4270   -2.4263   18.9154 O   0  0  0  0  0  0  0  0  0  0  0  0
   17.2728   -3.4508   18.1472 O   0  0  0  0  0  0  0  0  0  0  0  0
   18.7091   -2.0878   16.4410 C   0  0  0  0  0  0  0  0  0  0  0  0
   18.0349   -2.7464   15.4063 C   0  0  0  0  0  0  0  0  0  0  0  0
   18.4576   -2.5651   14.0868 C   0  0  0  0  0  0  0  0  0  0  0  0
   19.5520   -1.7434   13.8152 C   0  0  0  0  0  0  0  0  0  0  0  0
   20.1213   -1.4986   12.0296 Br  0  0  0  0  0  0  0  0  0  0  0  0
   20.2358   -1.1056   14.8497 C   0  0  0  0  0  0  0  0  0  0  0  0
   19.8207   -1.2843   16.1703 C   0  0  0  0  0  0  0  0  0  0  0  0
   16.6605   -1.0541   20.0063 C   0  0  0  0  0  0  0  0  0  0  0  0
   16.4001    0.3678   20.4915 C   0  0  0  0  0  0  0  0  0  0  0  0
   17.4609    1.2377   19.8247 C   0  0  0  0  0  0  0  0  0  0  0  0
   18.2324    0.3199   18.8762 C   0  0  0  0  0  0  0  0  0  0  0  0
  1  2  1  0
  2  3  2  0
  3  4  1  0
  4  5  2  0
  5  6  1  0
  5  7  1  0
  7  8  2  0
  8  9  1  0
  9 10  1  0
 10 11  2  0
 10 12  1  0
 12 13  1  0
 13 14  2  0
 13 15  2  0
 13 16  1  0
 16 17  2  0
 17 18  1  0
 18 19  2  0
 19 20  1  0
 19 21  1  0
 21 22  2  0
 12 23  1  0
 23 24  1  0
 24 25  1  0
 25 26  1  0
  8  2  1  0
 26 12  1  0
 22 16  1  0
M  END
>  <ref_mols>  (979) 
B1396a

>  <gnina_score>  (979) 
5.209

>  <smina_score_min>  (979) 
-4.005

>  <ref_pdb>  (979) 
B1396a

>  <inspiration_score>  (979) 
None

>  <inchikey>  (979) 
FCVQSKXJTJWOJP-UHFFFAOYSA-N

>  <tags>  (979) 
BulkDock Fragalysis export,openbind_d68ev3c_c2_elabs_scored,openbind_d68ev3c_c2_elabs_scored_4.5plus,openbind_d68ev3c_c2_elabs,openbind_d68ev3c_c2_elabs_scored_5plus,syndirella_product,openbind_d68ev3c_c2_elabs_scored_top80percent,syndirella_placed

>  <smiles>  (979) 
Cc1ccc(Br)cc1NC(=O)C1(S(=O)(=O)c2ccc(Br)cc2)CCCC1

>  <subsites>  (979) 
None

>  <rmsd(smina/fragmenstein)>  (979) 
1.997

>  <alias>  (979) 
None

>  <energy_score>  (979) 
-20.789783

>  <HIPPO Pose ID>  (979) 
95020

>  <distance_score>  (979) 
0.397773

>  <HIPPO Compound ID>  (979) 
128877

>  <gnina_score_min>  (979) 
5.155

>  <name>  (979) 
P95020

>  <exports>  (979) 
['/opt/xchem-fragalysis-2/maxwin/BulkDock/OUTPUTS/openbind_d68ev3c_c2_elabs_1LOTQJ3.sdf', '/opt/xchem-fragalysis-2/maxwin/BulkDock/OUTPUTS/openbind_d68ev3c_c2_elabs_1LSYI5W.sdf']

$$$$
P95022
     RDKit          3D

 26 28  0  0  0  0  0  0  0  0999 V2000
   13.7549   -4.1763   17.6799 C   0  0  0  0  0  0  0  0  0  0  0  0
   13.2491   -3.0603   16.8063 C   0  0  0  0  0  0  0  0  0  0  0  0
   12.0773   -3.2674   16.0608 C   0  0  0  0  0  0  0  0  0  0  0  0
   11.5627   -2.2774   15.2281 C   0  0  0  0  0  0  0  0  0  0  0  0
   12.2222   -1.0618   15.1420 C   0  0  0  0  0  0  0  0  0  0  0  0
   11.7335   -0.0691   14.3421 O   0  0  0  0  0  0  0  0  0  0  0  0
   13.3916   -0.8288   15.8684 C   0  0  0  0  0  0  0  0  0  0  0  0
   13.9127   -1.8258   16.7030 C   0  0  0  0  0  0  0  0  0  0  0  0
   15.0717   -1.6081   17.4553 N   0  0  0  0  0  0  0  0  0  0  0  0
   16.1246   -0.4548   17.3858 C   0  0  0  0  0  0  0  0  0  0  0  0
   16.1366    0.5237   16.7413 O   0  0  0  0  0  0  0  0  0  0  0  0
   17.2213   -0.7185   18.4496 C   0  0  0  0  0  0  0  0  0  0  0  0
   18.1125   -2.2218   18.0377 S   0  0  0  0  0  0  0  0  0  0  0  0
   19.3100   -2.3015   18.8549 O   0  0  0  0  0  0  0  0  0  0  0  0
   17.1633   -3.3232   18.0746 O   0  0  0  0  0  0  0  0  0  0  0  0
   18.6482   -2.0385   16.3514 C   0  0  0  0  0  0  0  0  0  0  0  0
   19.8388   -1.3565   16.0821 C   0  0  0  0  0  0  0  0  0  0  0  0
   20.2766   -1.2293   14.7631 C   0  0  0  0  0  0  0  0  0  0  0  0
   19.5347   -1.7984   13.7287 C   0  0  0  0  0  0  0  0  0  0  0  0
   20.1321   -1.6207   11.9443 Br  0  0  0  0  0  0  0  0  0  0  0  0
   18.3600   -2.5011   13.9992 C   0  0  0  0  0  0  0  0  0  0  0  0
   17.9156   -2.6316   15.3174 C   0  0  0  0  0  0  0  0  0  0  0  0
   16.5878   -0.8148   19.8643 C   0  0  0  0  0  0  0  0  0  0  0  0
   17.2998    0.2228   20.7253 C   0  0  0  0  0  0  0  0  0  0  0  0
   17.6968    1.2986   19.7355 C   0  0  0  0  0  0  0  0  0  0  0  0
   18.1985    0.4858   18.5515 C   0  0  0  0  0  0  0  0  0  0  0  0
  1  2  1  0
  2  3  2  0
  3  4  1  0
  4  5  2  0
  5  6  1  0
  5  7  1  0
  7  8  2  0
  8  9  1  0
  9 10  1  0
 10 11  2  0
 10 12  1  0
 12 13  1  0
 13 14  2  0
 13 15  2  0
 13 16  1  0
 16 17  2  0
 17 18  1  0
 18 19  2  0
 19 20  1  0
 19 21  1  0
 21 22  2  0
 12 23  1  0
 23 24  1  0
 24 25  1  0
 25 26  1  0
  8  2  1  0
 26 12  1  0
 22 16  1  0
M  END
>  <ref_mols>  (980) 
B1396a

>  <gnina_score>  (980) 
5.103

>  <smina_score_min>  (980) 
-4.025

>  <ref_pdb>  (980) 
B1396a

>  <inspiration_score>  (980) 
None

>  <inchikey>  (980) 
FBXPOMPMNWYZER-UHFFFAOYSA-N

>  <tags>  (980) 
BulkDock Fragalysis export,openbind_d68ev3c_c2_elabs_scored,openbind_d68ev3c_c2_elabs_scored_4.5plus,openbind_d68ev3c_c2_elabs,openbind_d68ev3c_c2_elabs_scored_5plus,syndirella_product,openbind_d68ev3c_c2_elabs_scored_top80percent,syndirella_placed

>  <smiles>  (980) 
Cc1ccc(O)cc1NC(=O)C1(S(=O)(=O)c2ccc(Br)cc2)CCCC1

>  <subsites>  (980) 
None

>  <rmsd(smina/fragmenstein)>  (980) 
1.628

>  <alias>  (980) 
None

>  <energy_score>  (980) 
-46.617495

>  <HIPPO Pose ID>  (980) 
95022

>  <distance_score>  (980) 
0.421852

>  <HIPPO Compound ID>  (980) 
128880

>  <gnina_score_min>  (980) 
5.036

>  <name>  (980) 
P95022

>  <exports>  (980) 
['/opt/xchem-fragalysis-2/maxwin/BulkDock/OUTPUTS/openbind_d68ev3c_c2_elabs_1LOTQJ3.sdf', '/opt/xchem-fragalysis-2/maxwin/BulkDock/OUTPUTS/openbind_d68ev3c_c2_elabs_1LSYI5W.sdf']

$$$$
P95023
     RDKit          3D

 26 28  0  0  0  0  0  0  0  0999 V2000
   14.7629   -5.1461   17.6238 C   0  0  0  0  0  0  0  0  0  0  0  0
   13.7674   -4.1047   18.1004 C   0  0  0  0  0  0  0  0  0  0  0  0
   13.3937   -3.0833   17.0487 C   0  0  0  0  0  0  0  0  0  0  0  0
   12.2328   -3.2969   16.2851 C   0  0  0  0  0  0  0  0  0  0  0  0
   11.7953   -2.3558   15.3536 C   0  0  0  0  0  0  0  0  0  0  0  0
   12.5206   -1.1855   15.1686 C   0  0  0  0  0  0  0  0  0  0  0  0
   13.6948   -0.9702   15.8943 C   0  0  0  0  0  0  0  0  0  0  0  0
   14.1445   -1.9150   16.8226 C   0  0  0  0  0  0  0  0  0  0  0  0
   15.3333   -1.7087   17.5248 N   0  0  0  0  0  0  0  0  0  0  0  0
   16.3505   -0.5225   17.4717 C   0  0  0  0  0  0  0  0  0  0  0  0
   16.3817    0.4197   16.7756 O   0  0  0  0  0  0  0  0  0  0  0  0
   17.4129   -0.7398   18.5703 C   0  0  0  0  0  0  0  0  0  0  0  0
   18.3760   -2.2000   18.1360 S   0  0  0  0  0  0  0  0  0  0  0  0
   17.4945   -3.3515   18.2452 O   0  0  0  0  0  0  0  0  0  0  0  0
   19.6158   -2.1900   18.8911 O   0  0  0  0  0  0  0  0  0  0  0  0
   18.8182   -2.0377   16.4169 C   0  0  0  0  0  0  0  0  0  0  0  0
   19.9887   -1.3551   16.0724 C   0  0  0  0  0  0  0  0  0  0  0  0
   20.3513   -1.2380   14.7298 C   0  0  0  0  0  0  0  0  0  0  0  0
   19.5568   -1.8209   13.7441 C   0  0  0  0  0  0  0  0  0  0  0  0
   20.0511   -1.6566   11.9273 Br  0  0  0  0  0  0  0  0  0  0  0  0
   18.4058   -2.5300   14.0876 C   0  0  0  0  0  0  0  0  0  0  0  0
   18.0374   -2.6512   15.4303 C   0  0  0  0  0  0  0  0  0  0  0  0
   18.3282    0.5036   18.7275 C   0  0  0  0  0  0  0  0  0  0  0  0
   18.5760    0.6406   20.2225 C   0  0  0  0  0  0  0  0  0  0  0  0
   17.2328    0.2759   20.8148 C   0  0  0  0  0  0  0  0  0  0  0  0
   16.7690   -0.9100   19.9755 C   0  0  0  0  0  0  0  0  0  0  0  0
  1  2  1  0
  2  3  1  0
  3  4  2  0
  4  5  1  0
  5  6  2  0
  6  7  1  0
  7  8  2  0
  8  9  1  0
  9 10  1  0
 10 11  2  0
 10 12  1  0
 12 13  1  0
 13 14  2  0
 13 15  2  0
 13 16  1  0
 16 17  2  0
 17 18  1  0
 18 19  2  0
 19 20  1  0
 19 21  1  0
 21 22  2  0
 12 23  1  0
 23 24  1  0
 24 25  1  0
 25 26  1  0
  8  3  1  0
 26 12  1  0
 22 16  1  0
M  END
>  <ref_mols>  (981) 
B1396a

>  <gnina_score>  (981) 
5.098

>  <smina_score_min>  (981) 
-3.352

>  <ref_pdb>  (981) 
B1396a

>  <inspiration_score>  (981) 
None

>  <inchikey>  (981) 
VSFBPXMNJMATGZ-UHFFFAOYSA-N

>  <tags>  (981) 
BulkDock Fragalysis export,openbind_d68ev3c_c2_elabs_scored,openbind_d68ev3c_c2_elabs_scored_4.5plus,openbind_d68ev3c_c2_elabs,openbind_d68ev3c_c2_elabs_scored_5plus,syndirella_product,openbind_d68ev3c_c2_elabs_scored_top80percent,syndirella_placed

>  <smiles>  (981) 
CCc1ccccc1NC(=O)C1(S(=O)(=O)c2ccc(Br)cc2)CCCC1

>  <subsites>  (981) 
None

>  <rmsd(smina/fragmenstein)>  (981) 
1.926

>  <alias>  (981) 
None

>  <energy_score>  (981) 
-46.756087

>  <HIPPO Pose ID>  (981) 
95023

>  <distance_score>  (981) 
0.472676

>  <HIPPO Compound ID>  (981) 
128881

>  <gnina_score_min>  (981) 
5.147

>  <name>  (981) 
P95023

>  <exports>  (981) 
['/opt/xchem-fragalysis-2/maxwin/BulkDock/OUTPUTS/openbind_d68ev3c_c2_elabs_1LOTQJ3.sdf', '/opt/xchem-fragalysis-2/maxwin/BulkDock/OUTPUTS/openbind_d68ev3c_c2_elabs_1LSYI5W.sdf']

$$$$
P95024
     RDKit          3D

 26 28  0  0  0  0  0  0  0  0999 V2000
   11.8961    0.2699   14.3602 C   0  0  0  0  0  0  0  0  0  0  0  0
   12.3872   -0.8809   15.1883 C   0  0  0  0  0  0  0  0  0  0  0  0
   11.6474   -2.0614   15.2548 C   0  0  0  0  0  0  0  0  0  0  0  0
   12.0982   -3.1230   16.0382 C   0  0  0  0  0  0  0  0  0  0  0  0
   13.2880   -3.0285   16.7773 C   0  0  0  0  0  0  0  0  0  0  0  0
   13.7219   -4.2046   17.6089 C   0  0  0  0  0  0  0  0  0  0  0  0
   14.0312   -1.8395   16.7159 C   0  0  0  0  0  0  0  0  0  0  0  0
   15.2276   -1.7363   17.4296 N   0  0  0  0  0  0  0  0  0  0  0  0
   16.2228   -0.5403   17.5737 C   0  0  0  0  0  0  0  0  0  0  0  0
   16.2272    0.5102   17.0537 O   0  0  0  0  0  0  0  0  0  0  0  0
   17.2805   -0.8900   18.6482 C   0  0  0  0  0  0  0  0  0  0  0  0
   18.1977   -2.3379   18.1411 S   0  0  0  0  0  0  0  0  0  0  0  0
   19.4245   -2.4198   18.9129 O   0  0  0  0  0  0  0  0  0  0  0  0
   17.2750   -3.4623   18.1622 O   0  0  0  0  0  0  0  0  0  0  0  0
   18.6814   -2.0737   16.4492 C   0  0  0  0  0  0  0  0  0  0  0  0
   19.7900   -1.2666   16.1757 C   0  0  0  0  0  0  0  0  0  0  0  0
   20.1984   -1.0818   14.8538 C   0  0  0  0  0  0  0  0  0  0  0  0
   19.5102   -1.7164   13.8202 C   0  0  0  0  0  0  0  0  0  0  0  0
   20.0686   -1.4615   12.0326 Br  0  0  0  0  0  0  0  0  0  0  0  0
   18.4187   -2.5411   14.0942 C   0  0  0  0  0  0  0  0  0  0  0  0
   18.0034   -2.7291   15.4152 C   0  0  0  0  0  0  0  0  0  0  0  0
   18.2128    0.3091   18.9214 C   0  0  0  0  0  0  0  0  0  0  0  0
   17.4523    1.2052   19.8995 C   0  0  0  0  0  0  0  0  0  0  0  0
   16.3858    0.3263   20.5443 C   0  0  0  0  0  0  0  0  0  0  0  0
   16.6459   -1.0869   20.0349 C   0  0  0  0  0  0  0  0  0  0  0  0
   13.5739   -0.7757   15.9297 C   0  0  0  0  0  0  0  0  0  0  0  0
  1  2  1  0
  2  3  2  0
  3  4  1  0
  4  5  2  0
  5  6  1  0
  5  7  1  0
  7  8  1  0
  8  9  1  0
  9 10  2  0
  9 11  1  0
 11 12  1  0
 12 13  2  0
 12 14  2  0
 12 15  1  0
 15 16  2  0
 16 17  1  0
 17 18  2  0
 18 19  1  0
 18 20  1  0
 20 21  2  0
 11 22  1  0
 22 23  1  0
 23 24  1  0
 24 25  1  0
  7 26  2  0
 26  2  1  0
 25 11  1  0
 21 15  1  0
M  END
>  <ref_mols>  (982) 
B1396a

>  <gnina_score>  (982) 
5.154

>  <smina_score_min>  (982) 
-4.007

>  <ref_pdb>  (982) 
B1396a

>  <inspiration_score>  (982) 
None

>  <inchikey>  (982) 
BXAMISQJTVXLNJ-UHFFFAOYSA-N

>  <tags>  (982) 
BulkDock Fragalysis export,openbind_d68ev3c_c2_elabs_scored,openbind_d68ev3c_c2_elabs_scored_4.5plus,openbind_d68ev3c_c2_elabs,openbind_d68ev3c_c2_elabs_scored_5plus,syndirella_product,openbind_d68ev3c_c2_elabs_scored_top80percent,syndirella_placed

>  <smiles>  (982) 
Cc1ccc(C)c(NC(=O)C2(S(=O)(=O)c3ccc(Br)cc3)CCCC2)c1

>  <subsites>  (982) 
None

>  <rmsd(smina/fragmenstein)>  (982) 
2.022

>  <alias>  (982) 
None

>  <energy_score>  (982) 
-43.872573

>  <HIPPO Pose ID>  (982) 
95024

>  <distance_score>  (982) 
0.422713

>  <HIPPO Compound ID>  (982) 
128882

>  <gnina_score_min>  (982) 
5.084

>  <name>  (982) 
P95024

>  <exports>  (982) 
['/opt/xchem-fragalysis-2/maxwin/BulkDock/OUTPUTS/openbind_d68ev3c_c2_elabs_1LOTQJ3.sdf', '/opt/xchem-fragalysis-2/maxwin/BulkDock/OUTPUTS/openbind_d68ev3c_c2_elabs_1LSYI5W.sdf']

$$$$
P95025
     RDKit          3D

 26 28  0  0  0  0  0  0  0  0999 V2000
   13.7090   -4.0986   17.4716 C   0  0  0  0  0  0  0  0  0  0  0  0
   13.3457   -2.8024   16.7970 C   0  0  0  0  0  0  0  0  0  0  0  0
   12.0863   -2.6852   16.1751 C   0  0  0  0  0  0  0  0  0  0  0  0
   11.6498   -1.4580   15.6643 C   0  0  0  0  0  0  0  0  0  0  0  0
    9.9572   -1.1806   15.2035 S   0  0  0  0  0  0  0  0  0  0  0  0
   12.5195   -0.3741   15.6543 C   0  0  0  0  0  0  0  0  0  0  0  0
   13.7846   -0.4882   16.2273 C   0  0  0  0  0  0  0  0  0  0  0  0
   14.1861   -1.6771   16.8408 C   0  0  0  0  0  0  0  0  0  0  0  0
   15.3860   -1.7104   17.5510 N   0  0  0  0  0  0  0  0  0  0  0  0
   16.4943   -0.6179   17.7250 C   0  0  0  0  0  0  0  0  0  0  0  0
   16.5991    0.4419   17.2347 O   0  0  0  0  0  0  0  0  0  0  0  0
   17.5085   -1.0997   18.7800 C   0  0  0  0  0  0  0  0  0  0  0  0
   18.3574   -2.5370   18.1241 S   0  0  0  0  0  0  0  0  0  0  0  0
   17.3881   -3.6226   18.0958 O   0  0  0  0  0  0  0  0  0  0  0  0
   19.6064   -2.7121   18.8409 O   0  0  0  0  0  0  0  0  0  0  0  0
   18.7806   -2.1820   16.4293 C   0  0  0  0  0  0  0  0  0  0  0  0
   17.9957   -2.7030   15.3929 C   0  0  0  0  0  0  0  0  0  0  0  0
   18.3542   -2.4576   14.0651 C   0  0  0  0  0  0  0  0  0  0  0  0
   19.4977   -1.7107   13.7831 C   0  0  0  0  0  0  0  0  0  0  0  0
   19.9795   -1.3742   11.9868 Br  0  0  0  0  0  0  0  0  0  0  0  0
   20.2939   -1.2149   14.8148 C   0  0  0  0  0  0  0  0  0  0  0  0
   19.9427   -1.4603   16.1438 C   0  0  0  0  0  0  0  0  0  0  0  0
   18.5158    0.0214   19.1563 C   0  0  0  0  0  0  0  0  0  0  0  0
   18.7166   -0.0976   20.6601 C   0  0  0  0  0  0  0  0  0  0  0  0
   17.3270   -0.4358   21.1523 C   0  0  0  0  0  0  0  0  0  0  0  0
   16.8126   -1.4421   20.1288 C   0  0  0  0  0  0  0  0  0  0  0  0
  1  2  1  0
  2  3  2  0
  3  4  1  0
  4  5  1  0
  4  6  2  0
  6  7  1  0
  7  8  2  0
  8  9  1  0
  9 10  1  0
 10 11  2  0
 10 12  1  0
 12 13  1  0
 13 14  2  0
 13 15  2  0
 13 16  1  0
 16 17  2  0
 17 18  1  0
 18 19  2  0
 19 20  1  0
 19 21  1  0
 21 22  2  0
 12 23  1  0
 23 24  1  0
 24 25  1  0
 25 26  1  0
  8  2  1  0
 26 12  1  0
 22 16  1  0
M  END
>  <ref_mols>  (983) 
B1396a

>  <gnina_score>  (983) 
5.535

>  <smina_score_min>  (983) 
-3.534

>  <ref_pdb>  (983) 
B1396a

>  <inspiration_score>  (983) 
None

>  <inchikey>  (983) 
PBLZZBWYKGBIPW-UHFFFAOYSA-N

>  <tags>  (983) 
BulkDock Fragalysis export,openbind_d68ev3c_c2_elabs_scored,openbind_d68ev3c_c2_elabs_scored_4.5plus,openbind_d68ev3c_c2_elabs,openbind_d68ev3c_c2_elabs_scored_5plus,syndirella_product,openbind_d68ev3c_c2_elabs_scored_top80percent,syndirella_placed

>  <smiles>  (983) 
Cc1cc(S)ccc1NC(=O)C1(S(=O)(=O)c2ccc(Br)cc2)CCCC1

>  <subsites>  (983) 
None

>  <rmsd(smina/fragmenstein)>  (983) 
2.952

>  <alias>  (983) 
None

>  <energy_score>  (983) 
-23.949402

>  <HIPPO Pose ID>  (983) 
95025

>  <distance_score>  (983) 
0.564482

>  <HIPPO Compound ID>  (983) 
128883

>  <gnina_score_min>  (983) 
5.046

>  <name>  (983) 
P95025

>  <exports>  (983) 
['/opt/xchem-fragalysis-2/maxwin/BulkDock/OUTPUTS/openbind_d68ev3c_c2_elabs_1LOTQJ3.sdf', '/opt/xchem-fragalysis-2/maxwin/BulkDock/OUTPUTS/openbind_d68ev3c_c2_elabs_1LSYI5W.sdf']

$$$$
P95026
     RDKit          3D

 26 28  0  0  0  0  0  0  0  0999 V2000
   13.7816   -4.1142   17.5211 C   0  0  0  0  0  0  0  0  0  0  0  0
   13.4239   -2.8072   16.8656 C   0  0  0  0  0  0  0  0  0  0  0  0
   12.1726   -2.6807   16.2346 C   0  0  0  0  0  0  0  0  0  0  0  0
   11.7645   -1.4473   15.7255 C   0  0  0  0  0  0  0  0  0  0  0  0
    9.9849   -1.1531   15.1825 Br  0  0  0  0  0  0  0  0  0  0  0  0
   12.6259   -0.3614   15.7302 C   0  0  0  0  0  0  0  0  0  0  0  0
   13.8791   -0.4851   16.3196 C   0  0  0  0  0  0  0  0  0  0  0  0
   14.2683   -1.6836   16.9248 C   0  0  0  0  0  0  0  0  0  0  0  0
   15.4682   -1.7294   17.6322 N   0  0  0  0  0  0  0  0  0  0  0  0
   16.5777   -0.6408   17.8228 C   0  0  0  0  0  0  0  0  0  0  0  0
   16.6826    0.4270   17.3500 O   0  0  0  0  0  0  0  0  0  0  0  0
   17.6012   -1.1478   18.8538 C   0  0  0  0  0  0  0  0  0  0  0  0
   18.4299   -2.5754   18.1547 S   0  0  0  0  0  0  0  0  0  0  0  0
   19.6926   -2.7660   18.8426 O   0  0  0  0  0  0  0  0  0  0  0  0
   17.4551   -3.6562   18.1298 O   0  0  0  0  0  0  0  0  0  0  0  0
   18.8191   -2.1965   16.4566 C   0  0  0  0  0  0  0  0  0  0  0  0
   18.0215   -2.7145   15.4281 C   0  0  0  0  0  0  0  0  0  0  0  0
   18.3545   -2.4518   14.0968 C   0  0  0  0  0  0  0  0  0  0  0  0
   19.4853   -1.6904   13.8031 C   0  0  0  0  0  0  0  0  0  0  0  0
   19.9328   -1.3305   12.0025 Br  0  0  0  0  0  0  0  0  0  0  0  0
   20.2938   -1.1968   14.8263 C   0  0  0  0  0  0  0  0  0  0  0  0
   19.9682   -1.4594   16.1586 C   0  0  0  0  0  0  0  0  0  0  0  0
   18.6199   -0.0405   19.2396 C   0  0  0  0  0  0  0  0  0  0  0  0
   18.8374   -0.1899   20.7384 C   0  0  0  0  0  0  0  0  0  0  0  0
   17.4516   -0.5296   21.2401 C   0  0  0  0  0  0  0  0  0  0  0  0
   16.9206   -1.5140   20.2039 C   0  0  0  0  0  0  0  0  0  0  0  0
  1  2  1  0
  2  3  2  0
  3  4  1  0
  4  5  1  0
  4  6  2  0
  6  7  1  0
  7  8  2  0
  8  9  1  0
  9 10  1  0
 10 11  2  0
 10 12  1  0
 12 13  1  0
 13 14  2  0
 13 15  2  0
 13 16  1  0
 16 17  2  0
 17 18  1  0
 18 19  2  0
 19 20  1  0
 19 21  1  0
 21 22  2  0
 12 23  1  0
 23 24  1  0
 24 25  1  0
 25 26  1  0
  8  2  1  0
 26 12  1  0
 22 16  1  0
M  END
>  <ref_mols>  (984) 
B1396a

>  <gnina_score>  (984) 
5.492

>  <smina_score_min>  (984) 
-3.313

>  <ref_pdb>  (984) 
B1396a

>  <inspiration_score>  (984) 
None

>  <inchikey>  (984) 
QNGWBMPMFTVYGX-UHFFFAOYSA-N

>  <tags>  (984) 
BulkDock Fragalysis export,openbind_d68ev3c_c2_elabs_scored,openbind_d68ev3c_c2_elabs_scored_4.5plus,openbind_d68ev3c_c2_elabs,openbind_d68ev3c_c2_elabs_scored_5plus,syndirella_product,openbind_d68ev3c_c2_elabs_scored_top80percent,syndirella_placed

>  <smiles>  (984) 
Cc1cc(Br)ccc1NC(=O)C1(S(=O)(=O)c2ccc(Br)cc2)CCCC1

>  <subsites>  (984) 
None

>  <rmsd(smina/fragmenstein)>  (984) 
2.573

>  <alias>  (984) 
None

>  <energy_score>  (984) 
-11.543627

>  <HIPPO Pose ID>  (984) 
95026

>  <distance_score>  (984) 
0.616776

>  <HIPPO Compound ID>  (984) 
128884

>  <gnina_score_min>  (984) 
5.011

>  <name>  (984) 
P95026

>  <exports>  (984) 
['/opt/xchem-fragalysis-2/maxwin/BulkDock/OUTPUTS/openbind_d68ev3c_c2_elabs_1LOTQJ3.sdf', '/opt/xchem-fragalysis-2/maxwin/BulkDock/OUTPUTS/openbind_d68ev3c_c2_elabs_1LSYI5W.sdf']

$$$$
P95029
     RDKit          3D

 26 28  0  0  0  0  0  0  0  0999 V2000
   13.7726   -4.1048   17.5537 C   0  0  0  0  0  0  0  0  0  0  0  0
   13.2547   -2.9145   16.7823 C   0  0  0  0  0  0  0  0  0  0  0  0
   12.1022   -3.0975   15.9966 C   0  0  0  0  0  0  0  0  0  0  0  0
   11.5652   -2.0536   15.2565 C   0  0  0  0  0  0  0  0  0  0  0  0
   12.1515   -0.7981   15.3318 C   0  0  0  0  0  0  0  0  0  0  0  0
   13.2966   -0.5835   16.1179 C   0  0  0  0  0  0  0  0  0  0  0  0
   13.7452    1.2521   16.3344 Br  0  0  0  0  0  0  0  0  0  0  0  0
   13.8990   -1.6514   16.8117 C   0  0  0  0  0  0  0  0  0  0  0  0
   15.0942   -1.5858   17.5543 N   0  0  0  0  0  0  0  0  0  0  0  0
   16.2966   -0.5879   17.4584 C   0  0  0  0  0  0  0  0  0  0  0  0
   16.5049    0.2785   16.6971 O   0  0  0  0  0  0  0  0  0  0  0  0
   17.2892   -0.8883   18.5938 C   0  0  0  0  0  0  0  0  0  0  0  0
   18.2055   -2.3590   18.1364 S   0  0  0  0  0  0  0  0  0  0  0  0
   17.2750   -3.4765   18.1678 O   0  0  0  0  0  0  0  0  0  0  0  0
   19.4230   -2.4314   18.9234 O   0  0  0  0  0  0  0  0  0  0  0  0
   18.7130   -2.1497   16.4394 C   0  0  0  0  0  0  0  0  0  0  0  0
   19.9098   -1.4832   16.1583 C   0  0  0  0  0  0  0  0  0  0  0  0
   20.3178   -1.3254   14.8329 C   0  0  0  0  0  0  0  0  0  0  0  0
   19.5415   -1.8521   13.8018 C   0  0  0  0  0  0  0  0  0  0  0  0
   20.0973   -1.6327   12.0086 Br  0  0  0  0  0  0  0  0  0  0  0  0
   18.3631   -2.5443   14.0821 C   0  0  0  0  0  0  0  0  0  0  0  0
   17.9485   -2.7055   15.4070 C   0  0  0  0  0  0  0  0  0  0  0  0
   18.2122    0.3244   18.8374 C   0  0  0  0  0  0  0  0  0  0  0  0
   18.6497    0.2602   20.2985 C   0  0  0  0  0  0  0  0  0  0  0  0
   17.6858   -0.6888   20.9945 C   0  0  0  0  0  0  0  0  0  0  0  0
   16.6125   -1.0266   19.9680 C   0  0  0  0  0  0  0  0  0  0  0  0
  1  2  1  0
  2  3  2  0
  3  4  1  0
  4  5  2  0
  5  6  1  0
  6  7  1  0
  6  8  2  0
  8  9  1  0
  9 10  1  0
 10 11  2  0
 10 12  1  0
 12 13  1  0
 13 14  2  0
 13 15  2  0
 13 16  1  0
 16 17  2  0
 17 18  1  0
 18 19  2  0
 19 20  1  0
 19 21  1  0
 21 22  2  0
 12 23  1  0
 23 24  1  0
 24 25  1  0
 25 26  1  0
  8  2  1  0
 26 12  1  0
 22 16  1  0
M  END
>  <ref_mols>  (985) 
B1396a

>  <gnina_score>  (985) 
5.182

>  <smina_score_min>  (985) 
-3.834

>  <ref_pdb>  (985) 
B1396a

>  <inspiration_score>  (985) 
None

>  <inchikey>  (985) 
NNRSNDGTIVNIFT-UHFFFAOYSA-N

>  <tags>  (985) 
BulkDock Fragalysis export,openbind_d68ev3c_c2_elabs_scored,openbind_d68ev3c_c2_elabs_scored_4.5plus,openbind_d68ev3c_c2_elabs,openbind_d68ev3c_c2_elabs_scored_5plus,syndirella_product,openbind_d68ev3c_c2_elabs_scored_top80percent,syndirella_placed

>  <smiles>  (985) 
Cc1cccc(Br)c1NC(=O)C1(S(=O)(=O)c2ccc(Br)cc2)CCCC1

>  <subsites>  (985) 
None

>  <rmsd(smina/fragmenstein)>  (985) 
2.14

>  <alias>  (985) 
None

>  <energy_score>  (985) 
-25.941212

>  <HIPPO Pose ID>  (985) 
95029

>  <distance_score>  (985) 
0.366021

>  <HIPPO Compound ID>  (985) 
128887

>  <gnina_score_min>  (985) 
5.079

>  <name>  (985) 
P95029

>  <exports>  (985) 
['/opt/xchem-fragalysis-2/maxwin/BulkDock/OUTPUTS/openbind_d68ev3c_c2_elabs_1LOTQJ3.sdf', '/opt/xchem-fragalysis-2/maxwin/BulkDock/OUTPUTS/openbind_d68ev3c_c2_elabs_1LSYI5W.sdf']

$$$$
P95030
     RDKit          3D

 26 28  0  0  0  0  0  0  0  0999 V2000
   16.3166    0.4409   17.1510 O   0  0  0  0  0  0  0  0  0  0  0  0
   16.3041   -0.5930   17.7029 C   0  0  0  0  0  0  0  0  0  0  0  0
   15.2492   -1.7461   17.6683 N   0  0  0  0  0  0  0  0  0  0  0  0
   14.0912   -1.8916   16.9035 C   0  0  0  0  0  0  0  0  0  0  0  0
   13.6247   -0.8333   16.1165 C   0  0  0  0  0  0  0  0  0  0  0  0
   12.4487   -0.9605   15.3737 C   0  0  0  0  0  0  0  0  0  0  0  0
   11.7321   -2.1498   15.4063 C   0  0  0  0  0  0  0  0  0  0  0  0
   12.1950   -3.2110   16.1842 C   0  0  0  0  0  0  0  0  0  0  0  0
   13.3772   -3.1041   16.9419 C   0  0  0  0  0  0  0  0  0  0  0  0
   13.8699   -4.3199   17.6956 C   0  0  0  0  0  0  0  0  0  0  0  0
   13.8800   -4.1188   19.4932 S   0  0  0  0  0  0  0  0  0  0  0  0
   17.3957   -0.9531   18.7295 C   0  0  0  0  0  0  0  0  0  0  0  0
   18.3123   -2.3740   18.1327 S   0  0  0  0  0  0  0  0  0  0  0  0
   19.5788   -2.4592   18.8366 O   0  0  0  0  0  0  0  0  0  0  0  0
   17.4155   -3.5187   18.1472 O   0  0  0  0  0  0  0  0  0  0  0  0
   18.7134   -2.0649   16.4228 C   0  0  0  0  0  0  0  0  0  0  0  0
   17.9171   -2.6115   15.4094 C   0  0  0  0  0  0  0  0  0  0  0  0
   18.2719   -2.4133   14.0726 C   0  0  0  0  0  0  0  0  0  0  0  0
   19.4241   -1.6915   13.7601 C   0  0  0  0  0  0  0  0  0  0  0  0
   19.9006   -1.4224   11.9510 Br  0  0  0  0  0  0  0  0  0  0  0  0
   20.2315   -1.1704   14.7703 C   0  0  0  0  0  0  0  0  0  0  0  0
   19.8827   -1.3659   16.1077 C   0  0  0  0  0  0  0  0  0  0  0  0
   18.3153    0.2561   19.0059 C   0  0  0  0  0  0  0  0  0  0  0  0
   18.8382    0.0967   20.4315 C   0  0  0  0  0  0  0  0  0  0  0  0
   17.9254   -0.9107   21.1144 C   0  0  0  0  0  0  0  0  0  0  0  0
   16.8018   -1.2001   20.1276 C   0  0  0  0  0  0  0  0  0  0  0  0
  1  2  2  0
  2  3  1  0
  3  4  1  0
  4  5  2  0
  5  6  1  0
  6  7  2  0
  7  8  1  0
  8  9  2  0
  9 10  1  0
 10 11  1  0
  2 12  1  0
 12 13  1  0
 13 14  2  0
 13 15  2  0
 13 16  1  0
 16 17  2  0
 17 18  1  0
 18 19  2  0
 19 20  1  0
 19 21  1  0
 21 22  2  0
 12 23  1  0
 23 24  1  0
 24 25  1  0
 25 26  1  0
  9  4  1  0
 26 12  1  0
 22 16  1  0
M  END
>  <ref_mols>  (986) 
B1396a

>  <gnina_score>  (986) 
5.087

>  <smina_score_min>  (986) 
-3.41

>  <ref_pdb>  (986) 
B1396a

>  <inspiration_score>  (986) 
None

>  <inchikey>  (986) 
OZDNELWCIVAWDF-UHFFFAOYSA-N

>  <tags>  (986) 
BulkDock Fragalysis export,openbind_d68ev3c_c2_elabs_scored,openbind_d68ev3c_c2_elabs_scored_4.5plus,openbind_d68ev3c_c2_elabs,openbind_d68ev3c_c2_elabs_scored_5plus,syndirella_product,openbind_d68ev3c_c2_elabs_scored_top80percent,syndirella_placed

>  <smiles>  (986) 
O=C(Nc1ccccc1CS)C1(S(=O)(=O)c2ccc(Br)cc2)CCCC1

>  <subsites>  (986) 
None

>  <rmsd(smina/fragmenstein)>  (986) 
1.958

>  <alias>  (986) 
None

>  <energy_score>  (986) 
-38.120117

>  <HIPPO Pose ID>  (986) 
95030

>  <distance_score>  (986) 
0.448284

>  <HIPPO Compound ID>  (986) 
128888

>  <gnina_score_min>  (986) 
5.011

>  <name>  (986) 
P95030

>  <exports>  (986) 
['/opt/xchem-fragalysis-2/maxwin/BulkDock/OUTPUTS/openbind_d68ev3c_c2_elabs_1LOTQJ3.sdf', '/opt/xchem-fragalysis-2/maxwin/BulkDock/OUTPUTS/openbind_d68ev3c_c2_elabs_1LSYI5W.sdf']

$$$$
P95031
     RDKit          3D

 26 28  0  0  0  0  0  0  0  0999 V2000
   13.7433   -4.0270   17.4824 C   0  0  0  0  0  0  0  0  0  0  0  0
   13.4297   -2.7010   16.8415 C   0  0  0  0  0  0  0  0  0  0  0  0
   12.1711   -2.5148   16.2357 C   0  0  0  0  0  0  0  0  0  0  0  0
   11.8015   -1.2567   15.7546 C   0  0  0  0  0  0  0  0  0  0  0  0
    9.8480   -0.7992   15.2529 I   0  0  0  0  0  0  0  0  0  0  0  0
   12.7133   -0.2124   15.7451 C   0  0  0  0  0  0  0  0  0  0  0  0
   13.9699   -0.3959   16.3075 C   0  0  0  0  0  0  0  0  0  0  0  0
   14.3183   -1.6121   16.9002 C   0  0  0  0  0  0  0  0  0  0  0  0
   15.5223   -1.6969   17.5972 N   0  0  0  0  0  0  0  0  0  0  0  0
   16.6579   -0.6365   17.7970 C   0  0  0  0  0  0  0  0  0  0  0  0
   16.7834    0.4367   17.3411 O   0  0  0  0  0  0  0  0  0  0  0  0
   17.6741   -1.1721   18.8245 C   0  0  0  0  0  0  0  0  0  0  0  0
   18.4442   -2.6302   18.1397 S   0  0  0  0  0  0  0  0  0  0  0  0
   19.6885   -2.8819   18.8402 O   0  0  0  0  0  0  0  0  0  0  0  0
   17.4215   -3.6652   18.0991 O   0  0  0  0  0  0  0  0  0  0  0  0
   18.8680   -2.2500   16.4528 C   0  0  0  0  0  0  0  0  0  0  0  0
   19.9525   -1.4098   16.1886 C   0  0  0  0  0  0  0  0  0  0  0  0
   20.2953   -1.1258   14.8653 C   0  0  0  0  0  0  0  0  0  0  0  0
   19.5674   -1.6955   13.8206 C   0  0  0  0  0  0  0  0  0  0  0  0
   20.0406   -1.3067   12.0324 Br  0  0  0  0  0  0  0  0  0  0  0  0
   18.4990   -2.5526   14.0834 C   0  0  0  0  0  0  0  0  0  0  0  0
   18.1475   -2.8368   15.4051 C   0  0  0  0  0  0  0  0  0  0  0  0
   18.7313   -0.0896   19.1776 C   0  0  0  0  0  0  0  0  0  0  0  0
   18.2172    0.5536   20.4565 C   0  0  0  0  0  0  0  0  0  0  0  0
   17.6942   -0.6376   21.2319 C   0  0  0  0  0  0  0  0  0  0  0  0
   16.9754   -1.4736   20.1777 C   0  0  0  0  0  0  0  0  0  0  0  0
  1  2  1  0
  2  3  2  0
  3  4  1  0
  4  5  1  0
  4  6  2  0
  6  7  1  0
  7  8  2  0
  8  9  1  0
  9 10  1  0
 10 11  2  0
 10 12  1  0
 12 13  1  0
 13 14  2  0
 13 15  2  0
 13 16  1  0
 16 17  2  0
 17 18  1  0
 18 19  2  0
 19 20  1  0
 19 21  1  0
 21 22  2  0
 12 23  1  0
 23 24  1  0
 24 25  1  0
 25 26  1  0
  8  2  1  0
 26 12  1  0
 22 16  1  0
M  END
>  <ref_mols>  (987) 
B1396a

>  <gnina_score>  (987) 
5.547

>  <smina_score_min>  (987) 
-3.137

>  <ref_pdb>  (987) 
B1396a

>  <inspiration_score>  (987) 
None

>  <inchikey>  (987) 
OETLEFFKGPHTSN-UHFFFAOYSA-N

>  <tags>  (987) 
BulkDock Fragalysis export,openbind_d68ev3c_c2_elabs_scored,openbind_d68ev3c_c2_elabs_scored_4.5plus,openbind_d68ev3c_c2_elabs,openbind_d68ev3c_c2_elabs_scored_5plus,syndirella_product,openbind_d68ev3c_c2_elabs_scored_top80percent,syndirella_placed

>  <smiles>  (987) 
Cc1cc(I)ccc1NC(=O)C1(S(=O)(=O)c2ccc(Br)cc2)CCCC1

>  <subsites>  (987) 
None

>  <rmsd(smina/fragmenstein)>  (987) 
2.472

>  <alias>  (987) 
None

>  <energy_score>  (987) 
-33.742736

>  <HIPPO Pose ID>  (987) 
95031

>  <distance_score>  (987) 
0.67441

>  <HIPPO Compound ID>  (987) 
128889

>  <gnina_score_min>  (987) 
5.256

>  <name>  (987) 
P95031

>  <exports>  (987) 
['/opt/xchem-fragalysis-2/maxwin/BulkDock/OUTPUTS/openbind_d68ev3c_c2_elabs_1LOTQJ3.sdf', '/opt/xchem-fragalysis-2/maxwin/BulkDock/OUTPUTS/openbind_d68ev3c_c2_elabs_1LSYI5W.sdf']

$$$$
P95032
     RDKit          3D

 26 28  0  0  0  0  0  0  0  0999 V2000
   13.8910   -4.2530   17.7509 C   0  0  0  0  0  0  0  0  0  0  0  0
   13.4073   -3.0814   16.9429 C   0  0  0  0  0  0  0  0  0  0  0  0
   12.2176   -3.2136   16.2117 C   0  0  0  0  0  0  0  0  0  0  0  0
   11.7306   -2.1547   15.4580 C   0  0  0  0  0  0  0  0  0  0  0  0
   10.5764   -2.2986   14.7987 F   0  0  0  0  0  0  0  0  0  0  0  0
   12.4109   -0.9498   15.4036 C   0  0  0  0  0  0  0  0  0  0  0  0
   13.5989   -0.8026   16.1222 C   0  0  0  0  0  0  0  0  0  0  0  0
   14.0991   -1.8578   16.8964 C   0  0  0  0  0  0  0  0  0  0  0  0
   15.2680   -1.6904   17.6404 N   0  0  0  0  0  0  0  0  0  0  0  0
   16.3230   -0.5355   17.6274 C   0  0  0  0  0  0  0  0  0  0  0  0
   16.3267    0.4824   17.0463 O   0  0  0  0  0  0  0  0  0  0  0  0
   17.4347   -0.8655   18.6517 C   0  0  0  0  0  0  0  0  0  0  0  0
   18.2933   -2.3479   18.1251 S   0  0  0  0  0  0  0  0  0  0  0  0
   19.5268   -2.4745   18.8792 O   0  0  0  0  0  0  0  0  0  0  0  0
   17.3325   -3.4401   18.1551 O   0  0  0  0  0  0  0  0  0  0  0  0
   18.7491   -2.0914   16.4241 C   0  0  0  0  0  0  0  0  0  0  0  0
   19.8966   -1.3500   16.1277 C   0  0  0  0  0  0  0  0  0  0  0  0
   20.2746   -1.1681   14.7965 C   0  0  0  0  0  0  0  0  0  0  0  0
   19.5174   -1.7419   13.7758 C   0  0  0  0  0  0  0  0  0  0  0  0
   20.0350   -1.4912   11.9754 Br  0  0  0  0  0  0  0  0  0  0  0  0
   18.3861   -2.5028   14.0718 C   0  0  0  0  0  0  0  0  0  0  0  0
   18.0009   -2.6873   15.4022 C   0  0  0  0  0  0  0  0  0  0  0  0
   18.4247    0.3220   18.8029 C   0  0  0  0  0  0  0  0  0  0  0  0
   17.9470    1.0743   20.0357 C   0  0  0  0  0  0  0  0  0  0  0  0
   17.5580   -0.0499   20.9734 C   0  0  0  0  0  0  0  0  0  0  0  0
   16.8291   -1.0394   20.0705 C   0  0  0  0  0  0  0  0  0  0  0  0
  1  2  1  0
  2  3  2  0
  3  4  1  0
  4  5  1  0
  4  6  2  0
  6  7  1  0
  7  8  2  0
  8  9  1  0
  9 10  1  0
 10 11  2  0
 10 12  1  0
 12 13  1  0
 13 14  2  0
 13 15  2  0
 13 16  1  0
 16 17  2  0
 17 18  1  0
 18 19  2  0
 19 20  1  0
 19 21  1  0
 21 22  2  0
 12 23  1  0
 23 24  1  0
 24 25  1  0
 25 26  1  0
  8  2  1  0
 26 12  1  0
 22 16  1  0
M  END
>  <ref_mols>  (988) 
B1396a

>  <gnina_score>  (988) 
5.142

>  <smina_score_min>  (988) 
-3.677

>  <ref_pdb>  (988) 
B1396a

>  <inspiration_score>  (988) 
None

>  <inchikey>  (988) 
VVKDNSNFCIIZCV-UHFFFAOYSA-N

>  <tags>  (988) 
BulkDock Fragalysis export,openbind_d68ev3c_c2_elabs_scored,openbind_d68ev3c_c2_elabs_scored_4.5plus,openbind_d68ev3c_c2_elabs,openbind_d68ev3c_c2_elabs_scored_5plus,syndirella_product,openbind_d68ev3c_c2_elabs_scored_top80percent,syndirella_placed

>  <smiles>  (988) 
Cc1cc(F)ccc1NC(=O)C1(S(=O)(=O)c2ccc(Br)cc2)CCCC1

>  <subsites>  (988) 
None

>  <rmsd(smina/fragmenstein)>  (988) 
1.347

>  <alias>  (988) 
None

>  <energy_score>  (988) 
-14.262577

>  <HIPPO Pose ID>  (988) 
95032

>  <distance_score>  (988) 
0.435892

>  <HIPPO Compound ID>  (988) 
128890

>  <gnina_score_min>  (988) 
5.092

>  <name>  (988) 
P95032

>  <exports>  (988) 
['/opt/xchem-fragalysis-2/maxwin/BulkDock/OUTPUTS/openbind_d68ev3c_c2_elabs_1LOTQJ3.sdf', '/opt/xchem-fragalysis-2/maxwin/BulkDock/OUTPUTS/openbind_d68ev3c_c2_elabs_1LSYI5W.sdf']

$$$$
P95033
     RDKit          3D

 26 28  0  0  0  0  0  0  0  0999 V2000
   13.7450   -3.5940   17.2943 C   0  0  0  0  0  0  0  0  0  0  0  0
   13.5062   -2.1958   16.7770 C   0  0  0  0  0  0  0  0  0  0  0  0
   12.5094   -1.8878   15.8291 C   0  0  0  0  0  0  0  0  0  0  0  0
   11.4884   -3.2620   14.7093 I   0  0  0  0  0  0  0  0  0  0  0  0
   12.2195   -0.5712   15.4547 C   0  0  0  0  0  0  0  0  0  0  0  0
   12.9793    0.4667   15.9501 C   0  0  0  0  0  0  0  0  0  0  0  0
   14.0493    0.1809   16.7867 C   0  0  0  0  0  0  0  0  0  0  0  0
   14.3305   -1.1309   17.1914 C   0  0  0  0  0  0  0  0  0  0  0  0
   15.4759   -1.3479   17.9628 N   0  0  0  0  0  0  0  0  0  0  0  0
   16.6997   -0.4138   18.2496 C   0  0  0  0  0  0  0  0  0  0  0  0
   16.8909    0.7023   17.9446 O   0  0  0  0  0  0  0  0  0  0  0  0
   17.7150   -1.1568   19.1382 C   0  0  0  0  0  0  0  0  0  0  0  0
   18.3165   -2.5965   18.2682 S   0  0  0  0  0  0  0  0  0  0  0  0
   19.5673   -3.0189   18.8689 O   0  0  0  0  0  0  0  0  0  0  0  0
   17.2073   -3.5366   18.1951 O   0  0  0  0  0  0  0  0  0  0  0  0
   18.6972   -2.1262   16.5931 C   0  0  0  0  0  0  0  0  0  0  0  0
   19.8329   -1.3553   16.3333 C   0  0  0  0  0  0  0  0  0  0  0  0
   20.1731   -1.0541   15.0120 C   0  0  0  0  0  0  0  0  0  0  0  0
   19.3907   -1.5382   13.9631 C   0  0  0  0  0  0  0  0  0  0  0  0
   19.8614   -1.1281   12.1794 Br  0  0  0  0  0  0  0  0  0  0  0  0
   18.2669   -2.3228   14.2198 C   0  0  0  0  0  0  0  0  0  0  0  0
   17.9189   -2.6233   15.5391 C   0  0  0  0  0  0  0  0  0  0  0  0
   18.8865   -0.2179   19.5416 C   0  0  0  0  0  0  0  0  0  0  0  0
   18.4933    0.3302   20.9049 C   0  0  0  0  0  0  0  0  0  0  0  0
   17.8962   -0.8849   21.5839 C   0  0  0  0  0  0  0  0  0  0  0  0
   17.0583   -1.5430   20.4917 C   0  0  0  0  0  0  0  0  0  0  0  0
  1  2  1  0
  2  3  2  0
  3  4  1  0
  3  5  1  0
  5  6  2  0
  6  7  1  0
  7  8  2  0
  8  9  1  0
  9 10  1  0
 10 11  2  0
 10 12  1  0
 12 13  1  0
 13 14  2  0
 13 15  2  0
 13 16  1  0
 16 17  2  0
 17 18  1  0
 18 19  2  0
 19 20  1  0
 19 21  1  0
 21 22  2  0
 12 23  1  0
 23 24  1  0
 24 25  1  0
 25 26  1  0
  8  2  1  0
 26 12  1  0
 22 16  1  0
M  END
>  <ref_mols>  (989) 
B1396a

>  <gnina_score>  (989) 
5.33

>  <smina_score_min>  (989) 
-3.048

>  <ref_pdb>  (989) 
B1396a

>  <inspiration_score>  (989) 
None

>  <inchikey>  (989) 
XENANSYKDFQGAE-UHFFFAOYSA-N

>  <tags>  (989) 
BulkDock Fragalysis export,openbind_d68ev3c_c2_elabs_scored,openbind_d68ev3c_c2_elabs_scored_4.5plus,openbind_d68ev3c_c2_elabs,openbind_d68ev3c_c2_elabs_scored_5plus,syndirella_product,openbind_d68ev3c_c2_elabs_scored_top80percent,syndirella_placed

>  <smiles>  (989) 
Cc1c(I)cccc1NC(=O)C1(S(=O)(=O)c2ccc(Br)cc2)CCCC1

>  <subsites>  (989) 
None

>  <rmsd(smina/fragmenstein)>  (989) 
2.244

>  <alias>  (989) 
None

>  <energy_score>  (989) 
-33.359629

>  <HIPPO Pose ID>  (989) 
95033

>  <distance_score>  (989) 
1.065377

>  <HIPPO Compound ID>  (989) 
128891

>  <gnina_score_min>  (989) 
5.129

>  <name>  (989) 
P95033

>  <exports>  (989) 
['/opt/xchem-fragalysis-2/maxwin/BulkDock/OUTPUTS/openbind_d68ev3c_c2_elabs_1LOTQJ3.sdf', '/opt/xchem-fragalysis-2/maxwin/BulkDock/OUTPUTS/openbind_d68ev3c_c2_elabs_1LSYI5W.sdf']

$$$$
P95036
     RDKit          3D

 26 28  0  0  0  0  0  0  0  0999 V2000
   13.7488   -4.1905   17.6462 C   0  0  0  0  0  0  0  0  0  0  0  0
   13.3077   -3.0066   16.8287 C   0  0  0  0  0  0  0  0  0  0  0  0
   12.1419   -3.1182   16.0482 C   0  0  0  0  0  0  0  0  0  0  0  0
   11.6896   -2.0489   15.2788 C   0  0  0  0  0  0  0  0  0  0  0  0
   12.4053   -0.8623   15.2884 C   0  0  0  0  0  0  0  0  0  0  0  0
   11.9701    0.1723   14.5577 F   0  0  0  0  0  0  0  0  0  0  0  0
   13.5650   -0.7272   16.0447 C   0  0  0  0  0  0  0  0  0  0  0  0
   14.0246   -1.7960   16.8183 C   0  0  0  0  0  0  0  0  0  0  0  0
   15.1820   -1.6581   17.5891 N   0  0  0  0  0  0  0  0  0  0  0  0
   16.2578   -0.5224   17.6111 C   0  0  0  0  0  0  0  0  0  0  0  0
   16.2919    0.5016   17.0419 O   0  0  0  0  0  0  0  0  0  0  0  0
   17.3438   -0.8807   18.6537 C   0  0  0  0  0  0  0  0  0  0  0  0
   18.2013   -2.3617   18.1218 S   0  0  0  0  0  0  0  0  0  0  0  0
   17.2319   -3.4466   18.1224 O   0  0  0  0  0  0  0  0  0  0  0  0
   19.4218   -2.5065   18.8935 O   0  0  0  0  0  0  0  0  0  0  0  0
   18.6880   -2.0907   16.4314 C   0  0  0  0  0  0  0  0  0  0  0  0
   17.9590   -2.6799   15.3918 C   0  0  0  0  0  0  0  0  0  0  0  0
   18.3703   -2.4898   14.0701 C   0  0  0  0  0  0  0  0  0  0  0  0
   19.5085   -1.7295   13.8001 C   0  0  0  0  0  0  0  0  0  0  0  0
   20.0620   -1.4713   12.0115 Br  0  0  0  0  0  0  0  0  0  0  0  0
   20.2463   -1.1619   14.8383 C   0  0  0  0  0  0  0  0  0  0  0  0
   19.8422   -1.3496   16.1612 C   0  0  0  0  0  0  0  0  0  0  0  0
   18.3415    0.2951   18.8457 C   0  0  0  0  0  0  0  0  0  0  0  0
   17.8447    1.0317   20.0803 C   0  0  0  0  0  0  0  0  0  0  0  0
   17.4258   -0.1040   20.9910 C   0  0  0  0  0  0  0  0  0  0  0  0
   16.7067   -1.0713   20.0567 C   0  0  0  0  0  0  0  0  0  0  0  0
  1  2  1  0
  2  3  2  0
  3  4  1  0
  4  5  2  0
  5  6  1  0
  5  7  1  0
  7  8  2  0
  8  9  1  0
  9 10  1  0
 10 11  2  0
 10 12  1  0
 12 13  1  0
 13 14  2  0
 13 15  2  0
 13 16  1  0
 16 17  2  0
 17 18  1  0
 18 19  2  0
 19 20  1  0
 19 21  1  0
 21 22  2  0
 12 23  1  0
 23 24  1  0
 24 25  1  0
 25 26  1  0
  8  2  1  0
 26 12  1  0
 22 16  1  0
M  END
>  <ref_mols>  (990) 
B1396a

>  <gnina_score>  (990) 
5.148

>  <smina_score_min>  (990) 
-3.889

>  <ref_pdb>  (990) 
B1396a

>  <inspiration_score>  (990) 
None

>  <inchikey>  (990) 
MCKGRZSIFSGAOH-UHFFFAOYSA-N

>  <tags>  (990) 
BulkDock Fragalysis export,openbind_d68ev3c_c2_elabs_scored,openbind_d68ev3c_c2_elabs_scored_4.5plus,openbind_d68ev3c_c2_elabs,openbind_d68ev3c_c2_elabs_scored_5plus,syndirella_product,openbind_d68ev3c_c2_elabs_scored_top80percent,syndirella_placed

>  <smiles>  (990) 
Cc1ccc(F)cc1NC(=O)C1(S(=O)(=O)c2ccc(Br)cc2)CCCC1

>  <subsites>  (990) 
None

>  <rmsd(smina/fragmenstein)>  (990) 
1.54

>  <alias>  (990) 
None

>  <energy_score>  (990) 
-35.855474

>  <HIPPO Pose ID>  (990) 
95036

>  <distance_score>  (990) 
0.431102

>  <HIPPO Compound ID>  (990) 
128894

>  <gnina_score_min>  (990) 
5.112

>  <name>  (990) 
P95036

>  <exports>  (990) 
['/opt/xchem-fragalysis-2/maxwin/BulkDock/OUTPUTS/openbind_d68ev3c_c2_elabs_1LOTQJ3.sdf', '/opt/xchem-fragalysis-2/maxwin/BulkDock/OUTPUTS/openbind_d68ev3c_c2_elabs_1LSYI5W.sdf']

$$$$
P95038
     RDKit          3D

 26 28  0  0  0  0  0  0  0  0999 V2000
   14.1534   -5.0269   18.2262 N   0  0  0  0  0  0  0  0  0  0  0  0
   13.7474   -4.1383   17.6034 C   0  0  0  0  0  0  0  0  0  0  0  0
   13.3064   -3.0165   16.8302 C   0  0  0  0  0  0  0  0  0  0  0  0
   12.1203   -3.1300   16.0894 C   0  0  0  0  0  0  0  0  0  0  0  0
   11.6582   -2.0634   15.3207 C   0  0  0  0  0  0  0  0  0  0  0  0
   12.3840   -0.8775   15.2904 C   0  0  0  0  0  0  0  0  0  0  0  0
   13.5766   -0.7617   16.0127 C   0  0  0  0  0  0  0  0  0  0  0  0
   14.0531   -1.8283   16.7823 C   0  0  0  0  0  0  0  0  0  0  0  0
   15.2626   -1.7107   17.4810 N   0  0  0  0  0  0  0  0  0  0  0  0
   16.2984   -0.5393   17.5275 C   0  0  0  0  0  0  0  0  0  0  0  0
   16.3321    0.4679   16.9292 O   0  0  0  0  0  0  0  0  0  0  0  0
   17.3652   -0.8564   18.6038 C   0  0  0  0  0  0  0  0  0  0  0  0
   18.2766   -2.3167   18.1021 S   0  0  0  0  0  0  0  0  0  0  0  0
   17.3359   -3.4249   18.1094 O   0  0  0  0  0  0  0  0  0  0  0  0
   19.4970   -2.4117   18.8807 O   0  0  0  0  0  0  0  0  0  0  0  0
   18.7646   -2.0633   16.4091 C   0  0  0  0  0  0  0  0  0  0  0  0
   18.1213   -2.7699   15.3855 C   0  0  0  0  0  0  0  0  0  0  0  0
   18.5323   -2.5910   14.0624 C   0  0  0  0  0  0  0  0  0  0  0  0
   19.5841   -1.7208   13.7755 C   0  0  0  0  0  0  0  0  0  0  0  0
   20.1384   -1.4772   11.9850 Br  0  0  0  0  0  0  0  0  0  0  0  0
   20.2387   -1.0352   14.7986 C   0  0  0  0  0  0  0  0  0  0  0  0
   19.8364   -1.2134   16.1233 C   0  0  0  0  0  0  0  0  0  0  0  0
   16.6952   -1.0577   19.9902 C   0  0  0  0  0  0  0  0  0  0  0  0
   17.3520   -0.0577   20.9358 C   0  0  0  0  0  0  0  0  0  0  0  0
   17.7618    1.0823   20.0267 C   0  0  0  0  0  0  0  0  0  0  0  0
   18.3200    0.3502   18.8157 C   0  0  0  0  0  0  0  0  0  0  0  0
  1  2  3  0
  2  3  1  0
  3  4  2  0
  4  5  1  0
  5  6  2  0
  6  7  1  0
  7  8  2  0
  8  9  1  0
  9 10  1  0
 10 11  2  0
 10 12  1  0
 12 13  1  0
 13 14  2  0
 13 15  2  0
 13 16  1  0
 16 17  2  0
 17 18  1  0
 18 19  2  0
 19 20  1  0
 19 21  1  0
 21 22  2  0
 12 23  1  0
 23 24  1  0
 24 25  1  0
 25 26  1  0
  8  3  1  0
 26 12  1  0
 22 16  1  0
M  END
>  <ref_mols>  (991) 
B1396a

>  <gnina_score>  (991) 
5.192

>  <smina_score_min>  (991) 
-3.555

>  <ref_pdb>  (991) 
B1396a

>  <inspiration_score>  (991) 
None

>  <inchikey>  (991) 
SZPJOXUYXMIGRL-UHFFFAOYSA-N

>  <tags>  (991) 
BulkDock Fragalysis export,openbind_d68ev3c_c2_elabs_scored,openbind_d68ev3c_c2_elabs_scored_4.5plus,openbind_d68ev3c_c2_elabs,openbind_d68ev3c_c2_elabs_scored_5plus,syndirella_product,openbind_d68ev3c_c2_elabs_scored_top80percent,syndirella_placed

>  <smiles>  (991) 
N#Cc1ccccc1NC(=O)C1(S(=O)(=O)c2ccc(Br)cc2)CCCC1

>  <subsites>  (991) 
None

>  <rmsd(smina/fragmenstein)>  (991) 
1.597

>  <alias>  (991) 
None

>  <energy_score>  (991) 
-32.310801

>  <HIPPO Pose ID>  (991) 
95038

>  <distance_score>  (991) 
0.400837

>  <HIPPO Compound ID>  (991) 
128896

>  <gnina_score_min>  (991) 
5.022

>  <name>  (991) 
P95038

>  <exports>  (991) 
['/opt/xchem-fragalysis-2/maxwin/BulkDock/OUTPUTS/openbind_d68ev3c_c2_elabs_1LOTQJ3.sdf', '/opt/xchem-fragalysis-2/maxwin/BulkDock/OUTPUTS/openbind_d68ev3c_c2_elabs_1LSYI5W.sdf']

$$$$
P95040
     RDKit          3D

 26 28  0  0  0  0  0  0  0  0999 V2000
   13.8107   -4.0577   17.5671 C   0  0  0  0  0  0  0  0  0  0  0  0
   13.2713   -2.8882   16.7779 C   0  0  0  0  0  0  0  0  0  0  0  0
   12.1141   -3.1058   16.0081 C   0  0  0  0  0  0  0  0  0  0  0  0
   11.5592   -2.0897   15.2445 C   0  0  0  0  0  0  0  0  0  0  0  0
   12.1286   -0.8249   15.2833 C   0  0  0  0  0  0  0  0  0  0  0  0
   13.2785   -0.5733   16.0557 C   0  0  0  0  0  0  0  0  0  0  0  0
   13.6924    1.4884   16.2548 I   0  0  0  0  0  0  0  0  0  0  0  0
   13.9046   -1.6176   16.7672 C   0  0  0  0  0  0  0  0  0  0  0  0
   15.1125   -1.5301   17.4871 N   0  0  0  0  0  0  0  0  0  0  0  0
   16.3281   -0.5581   17.3179 C   0  0  0  0  0  0  0  0  0  0  0  0
   16.5371    0.2615   16.5069 O   0  0  0  0  0  0  0  0  0  0  0  0
   17.3337   -0.8023   18.4664 C   0  0  0  0  0  0  0  0  0  0  0  0
   18.1971   -2.3340   18.0931 S   0  0  0  0  0  0  0  0  0  0  0  0
   17.2215   -3.4115   18.1289 O   0  0  0  0  0  0  0  0  0  0  0  0
   19.3798   -2.4282   18.9298 O   0  0  0  0  0  0  0  0  0  0  0  0
   18.7619   -2.1800   16.4102 C   0  0  0  0  0  0  0  0  0  0  0  0
   18.0411   -2.7835   15.3735 C   0  0  0  0  0  0  0  0  0  0  0  0
   18.4861   -2.6427   14.0564 C   0  0  0  0  0  0  0  0  0  0  0  0
   19.6485   -1.9187   13.7894 C   0  0  0  0  0  0  0  0  0  0  0  0
   20.2457   -1.7262   12.0064 Br  0  0  0  0  0  0  0  0  0  0  0  0
   20.3792   -1.3405   14.8265 C   0  0  0  0  0  0  0  0  0  0  0  0
   19.9420   -1.4790   16.1446 C   0  0  0  0  0  0  0  0  0  0  0  0
   18.3402    0.3801   18.5892 C   0  0  0  0  0  0  0  0  0  0  0  0
   17.8783    1.1776   19.8002 C   0  0  0  0  0  0  0  0  0  0  0  0
   17.4275    0.0931   20.7552 C   0  0  0  0  0  0  0  0  0  0  0  0
   16.6477   -0.8570   19.8560 C   0  0  0  0  0  0  0  0  0  0  0  0
  1  2  1  0
  2  3  2  0
  3  4  1  0
  4  5  2  0
  5  6  1  0
  6  7  1  0
  6  8  2  0
  8  9  1  0
  9 10  1  0
 10 11  2  0
 10 12  1  0
 12 13  1  0
 13 14  2  0
 13 15  2  0
 13 16  1  0
 16 17  2  0
 17 18  1  0
 18 19  2  0
 19 20  1  0
 19 21  1  0
 21 22  2  0
 12 23  1  0
 23 24  1  0
 24 25  1  0
 25 26  1  0
  8  2  1  0
 26 12  1  0
 22 16  1  0
M  END
>  <ref_mols>  (992) 
B1396a

>  <gnina_score>  (992) 
5.251

>  <smina_score_min>  (992) 
-3.721

>  <ref_pdb>  (992) 
B1396a

>  <inspiration_score>  (992) 
None

>  <inchikey>  (992) 
WVGWQVYQHUXJMV-UHFFFAOYSA-N

>  <tags>  (992) 
BulkDock Fragalysis export,openbind_d68ev3c_c2_elabs_scored,openbind_d68ev3c_c2_elabs_scored_4.5plus,openbind_d68ev3c_c2_elabs,openbind_d68ev3c_c2_elabs_scored_5plus,syndirella_product,openbind_d68ev3c_c2_elabs_scored_top80percent,syndirella_placed

>  <smiles>  (992) 
Cc1cccc(I)c1NC(=O)C1(S(=O)(=O)c2ccc(Br)cc2)CCCC1

>  <subsites>  (992) 
None

>  <rmsd(smina/fragmenstein)>  (992) 
2.046

>  <alias>  (992) 
None

>  <energy_score>  (992) 
-18.961875

>  <HIPPO Pose ID>  (992) 
95040

>  <distance_score>  (992) 
0.367902

>  <HIPPO Compound ID>  (992) 
128898

>  <gnina_score_min>  (992) 
5.1

>  <name>  (992) 
P95040

>  <exports>  (992) 
['/opt/xchem-fragalysis-2/maxwin/BulkDock/OUTPUTS/openbind_d68ev3c_c2_elabs_1LOTQJ3.sdf', '/opt/xchem-fragalysis-2/maxwin/BulkDock/OUTPUTS/openbind_d68ev3c_c2_elabs_1LSYI5W.sdf']

$$$$
P95088
     RDKit          3D

 26 28  0  0  0  0  0  0  0  0999 V2000
   13.8359   -4.0298   17.6067 C   0  0  0  0  0  0  0  0  0  0  0  0
   13.2887   -2.8718   16.8067 C   0  0  0  0  0  0  0  0  0  0  0  0
   12.1479   -3.1159   16.0189 C   0  0  0  0  0  0  0  0  0  0  0  0
   11.5868   -2.1167   15.2377 C   0  0  0  0  0  0  0  0  0  0  0  0
   12.1328   -0.8421   15.2744 C   0  0  0  0  0  0  0  0  0  0  0  0
   13.2633   -0.5632   16.0658 C   0  0  0  0  0  0  0  0  0  0  0  0
   13.6362    1.5086   16.2519 I   0  0  0  0  0  0  0  0  0  0  0  0
   13.8971   -1.5891   16.7988 C   0  0  0  0  0  0  0  0  0  0  0  0
   15.0789   -1.4500   17.5563 N   0  0  0  0  0  0  0  0  0  0  0  0
   16.3138   -0.5075   17.3504 C   0  0  0  0  0  0  0  0  0  0  0  0
   16.4956    0.3450   16.5664 O   0  0  0  0  0  0  0  0  0  0  0  0
   17.3564   -0.7666   18.4769 C   0  0  0  0  0  0  0  0  0  0  0  0
   18.1724   -2.3319   18.0727 S   0  0  0  0  0  0  0  0  0  0  0  0
   19.3647   -2.4651   18.8909 O   0  0  0  0  0  0  0  0  0  0  0  0
   17.1695   -3.3838   18.1166 O   0  0  0  0  0  0  0  0  0  0  0  0
   18.7144   -2.1861   16.3831 C   0  0  0  0  0  0  0  0  0  0  0  0
   17.9275   -2.7072   15.3510 C   0  0  0  0  0  0  0  0  0  0  0  0
   18.3582   -2.5755   14.0302 C   0  0  0  0  0  0  0  0  0  0  0  0
   19.5721   -1.9479   13.7484 C   0  0  0  0  0  0  0  0  0  0  0  0
   20.3660   -1.4563   14.7840 C   0  0  0  0  0  0  0  0  0  0  0  0
   19.9449   -1.5835   16.1069 C   0  0  0  0  0  0  0  0  0  0  0  0
   18.4235    0.3761   18.4754 C   0  0  0  0  0  0  0  0  0  0  0  0
   17.9718    1.5764   19.3033 C   0  0  0  0  0  0  0  0  0  0  0  0
   17.8145    1.2119   20.7780 C   0  0  0  0  0  0  0  0  0  0  0  0
   17.5203   -0.2699   20.9989 C   0  0  0  0  0  0  0  0  0  0  0  0
   16.6702   -0.8496   19.8715 C   0  0  0  0  0  0  0  0  0  0  0  0
  1  2  1  0
  2  3  2  0
  3  4  1  0
  4  5  2  0
  5  6  1  0
  6  7  1  0
  6  8  2  0
  8  9  1  0
  9 10  1  0
 10 11  2  0
 10 12  1  0
 12 13  1  0
 13 14  2  0
 13 15  2  0
 13 16  1  0
 16 17  2  0
 17 18  1  0
 18 19  2  0
 19 20  1  0
 20 21  2  0
 12 22  1  0
 22 23  1  0
 23 24  1  0
 24 25  1  0
 25 26  1  0
  8  2  1  0
 26 12  1  0
 21 16  1  0
M  END
>  <ref_mols>  (993) 
B1396a

>  <gnina_score>  (993) 
5.1

>  <smina_score_min>  (993) 
-3.781

>  <ref_pdb>  (993) 
B1396a

>  <inspiration_score>  (993) 
None

>  <inchikey>  (993) 
LXCGKXIVDJQGDB-UHFFFAOYSA-N

>  <tags>  (993) 
BulkDock Fragalysis export,openbind_d68ev3c_c2_elabs_scored,openbind_d68ev3c_c2_elabs_scored_4.5plus,openbind_d68ev3c_c2_elabs,openbind_d68ev3c_c2_elabs_scored_5plus,syndirella_product,openbind_d68ev3c_c2_elabs_scored_top80percent,syndirella_placed

>  <smiles>  (993) 
Cc1cccc(I)c1NC(=O)C1(S(=O)(=O)c2ccccc2)CCCCC1

>  <subsites>  (993) 
None

>  <rmsd(smina/fragmenstein)>  (993) 
1.695

>  <alias>  (993) 
None

>  <energy_score>  (993) 
-25.51161

>  <HIPPO Pose ID>  (993) 
95088

>  <distance_score>  (993) 
0.406112

>  <HIPPO Compound ID>  (993) 
128946

>  <gnina_score_min>  (993) 
5.016

>  <name>  (993) 
P95088

>  <exports>  (993) 
['/opt/xchem-fragalysis-2/maxwin/BulkDock/OUTPUTS/openbind_d68ev3c_c2_elabs_1LOTQJ3.sdf', '/opt/xchem-fragalysis-2/maxwin/BulkDock/OUTPUTS/openbind_d68ev3c_c2_elabs_1LSYI5W.sdf']

$$$$
P95090
     RDKit          3D

 26 28  0  0  0  0  0  0  0  0999 V2000
   13.7633   -4.0874   17.5745 C   0  0  0  0  0  0  0  0  0  0  0  0
   13.3663   -2.8656   16.7948 C   0  0  0  0  0  0  0  0  0  0  0  0
   12.2048   -2.8953   16.0142 C   0  0  0  0  0  0  0  0  0  0  0  0
   11.4817   -4.0150   15.9512 F   0  0  0  0  0  0  0  0  0  0  0  0
   11.7647   -1.7958   15.2868 C   0  0  0  0  0  0  0  0  0  0  0  0
   12.5044   -0.6234   15.3245 C   0  0  0  0  0  0  0  0  0  0  0  0
   13.6810   -0.5709   16.0772 C   0  0  0  0  0  0  0  0  0  0  0  0
   14.1191   -1.6828   16.8082 C   0  0  0  0  0  0  0  0  0  0  0  0
   15.3083   -1.6243   17.5359 N   0  0  0  0  0  0  0  0  0  0  0  0
   16.3710   -0.4825   17.6543 C   0  0  0  0  0  0  0  0  0  0  0  0
   16.4440    0.5472   17.0981 O   0  0  0  0  0  0  0  0  0  0  0  0
   17.4188   -0.8641   18.7423 C   0  0  0  0  0  0  0  0  0  0  0  0
   18.2785   -2.3476   18.1662 S   0  0  0  0  0  0  0  0  0  0  0  0
   19.5267   -2.5044   18.8878 O   0  0  0  0  0  0  0  0  0  0  0  0
   17.3143   -3.4384   18.1891 O   0  0  0  0  0  0  0  0  0  0  0  0
   18.7154   -2.0861   16.4579 C   0  0  0  0  0  0  0  0  0  0  0  0
   19.9029   -1.4174   16.1480 C   0  0  0  0  0  0  0  0  0  0  0  0
   20.2690   -1.2463   14.8131 C   0  0  0  0  0  0  0  0  0  0  0  0
   19.4655   -1.7613   13.7964 C   0  0  0  0  0  0  0  0  0  0  0  0
   18.2977   -2.4570   14.1090 C   0  0  0  0  0  0  0  0  0  0  0  0
   17.9229   -2.6323   15.4419 C   0  0  0  0  0  0  0  0  0  0  0  0
   16.6908   -1.1294   20.0869 C   0  0  0  0  0  0  0  0  0  0  0  0
   17.6158   -1.2007   21.3005 C   0  0  0  0  0  0  0  0  0  0  0  0
   18.4734    0.0476   21.4305 C   0  0  0  0  0  0  0  0  0  0  0  0
   19.2795    0.3002   20.1666 C   0  0  0  0  0  0  0  0  0  0  0  0
   18.3936    0.3371   18.9221 C   0  0  0  0  0  0  0  0  0  0  0  0
  1  2  1  0
  2  3  2  0
  3  4  1  0
  3  5  1  0
  5  6  2  0
  6  7  1  0
  7  8  2  0
  8  9  1  0
  9 10  1  0
 10 11  2  0
 10 12  1  0
 12 13  1  0
 13 14  2  0
 13 15  2  0
 13 16  1  0
 16 17  2  0
 17 18  1  0
 18 19  2  0
 19 20  1  0
 20 21  2  0
 12 22  1  0
 22 23  1  0
 23 24  1  0
 24 25  1  0
 25 26  1  0
  8  2  1  0
 26 12  1  0
 21 16  1  0
M  END
>  <ref_mols>  (994) 
B1396a

>  <gnina_score>  (994) 
5.013

>  <smina_score_min>  (994) 
-3.816

>  <ref_pdb>  (994) 
B1396a

>  <inspiration_score>  (994) 
None

>  <inchikey>  (994) 
JWZBQSYROBMACI-UHFFFAOYSA-N

>  <tags>  (994) 
BulkDock Fragalysis export,openbind_d68ev3c_c2_elabs_scored,openbind_d68ev3c_c2_elabs_scored_4.5plus,openbind_d68ev3c_c2_elabs,openbind_d68ev3c_c2_elabs_scored_5plus,syndirella_product,openbind_d68ev3c_c2_elabs_scored_top80percent,syndirella_placed

>  <smiles>  (994) 
Cc1c(F)cccc1NC(=O)C1(S(=O)(=O)c2ccccc2)CCCCC1

>  <subsites>  (994) 
None

>  <rmsd(smina/fragmenstein)>  (994) 
2.168

>  <alias>  (994) 
None

>  <energy_score>  (994) 
-65.116335

>  <HIPPO Pose ID>  (994) 
95090

>  <distance_score>  (994) 
0.507024

>  <HIPPO Compound ID>  (994) 
128949

>  <gnina_score_min>  (994) 
5.097

>  <name>  (994) 
P95090

>  <exports>  (994) 
['/opt/xchem-fragalysis-2/maxwin/BulkDock/OUTPUTS/openbind_d68ev3c_c2_elabs_1LOTQJ3.sdf', '/opt/xchem-fragalysis-2/maxwin/BulkDock/OUTPUTS/openbind_d68ev3c_c2_elabs_1LSYI5W.sdf']

$$$$
P95095
     RDKit          3D

 26 28  0  0  0  0  0  0  0  0999 V2000
   13.7409   -4.1933   17.6015 C   0  0  0  0  0  0  0  0  0  0  0  0
   13.2916   -3.0072   16.7917 C   0  0  0  0  0  0  0  0  0  0  0  0
   12.1073   -3.1058   16.0413 C   0  0  0  0  0  0  0  0  0  0  0  0
   11.6422   -2.0325   15.2821 C   0  0  0  0  0  0  0  0  0  0  0  0
   12.3647   -0.8451   15.2703 C   0  0  0  0  0  0  0  0  0  0  0  0
   11.6791    0.7666   14.1502 I   0  0  0  0  0  0  0  0  0  0  0  0
   13.5502   -0.7295   15.9988 C   0  0  0  0  0  0  0  0  0  0  0  0
   14.0207   -1.8067   16.7570 C   0  0  0  0  0  0  0  0  0  0  0  0
   15.2179   -1.7001   17.4677 N   0  0  0  0  0  0  0  0  0  0  0  0
   16.2566   -0.5324   17.5375 C   0  0  0  0  0  0  0  0  0  0  0  0
   16.3002    0.4808   16.9494 O   0  0  0  0  0  0  0  0  0  0  0  0
   17.3138   -0.8563   18.6300 C   0  0  0  0  0  0  0  0  0  0  0  0
   18.2067   -2.3489   18.1216 S   0  0  0  0  0  0  0  0  0  0  0  0
   17.2580   -3.4525   18.1301 O   0  0  0  0  0  0  0  0  0  0  0  0
   19.4239   -2.4643   18.9043 O   0  0  0  0  0  0  0  0  0  0  0  0
   18.7008   -2.1000   16.4299 C   0  0  0  0  0  0  0  0  0  0  0  0
   19.8675   -1.3825   16.1537 C   0  0  0  0  0  0  0  0  0  0  0  0
   20.2707   -1.2105   14.8297 C   0  0  0  0  0  0  0  0  0  0  0  0
   19.5239   -1.7699   13.7929 C   0  0  0  0  0  0  0  0  0  0  0  0
   18.3751   -2.5096   14.0739 C   0  0  0  0  0  0  0  0  0  0  0  0
   17.9627   -2.6856   15.3952 C   0  0  0  0  0  0  0  0  0  0  0  0
   18.3249    0.3270   18.7532 C   0  0  0  0  0  0  0  0  0  0  0  0
   17.8219    1.4143   19.6998 C   0  0  0  0  0  0  0  0  0  0  0  0
   17.6673    0.8901   21.1260 C   0  0  0  0  0  0  0  0  0  0  0  0
   17.4014   -0.6123   21.1881 C   0  0  0  0  0  0  0  0  0  0  0  0
   16.5909   -1.0938   19.9883 C   0  0  0  0  0  0  0  0  0  0  0  0
  1  2  1  0
  2  3  2  0
  3  4  1  0
  4  5  2  0
  5  6  1  0
  5  7  1  0
  7  8  2  0
  8  9  1  0
  9 10  1  0
 10 11  2  0
 10 12  1  0
 12 13  1  0
 13 14  2  0
 13 15  2  0
 13 16  1  0
 16 17  2  0
 17 18  1  0
 18 19  2  0
 19 20  1  0
 20 21  2  0
 12 22  1  0
 22 23  1  0
 23 24  1  0
 24 25  1  0
 25 26  1  0
  8  2  1  0
 26 12  1  0
 21 16  1  0
M  END
>  <ref_mols>  (995) 
B1396a

>  <gnina_score>  (995) 
5.14

>  <smina_score_min>  (995) 
-3.979

>  <ref_pdb>  (995) 
B1396a

>  <inspiration_score>  (995) 
None

>  <inchikey>  (995) 
NQKHGIRYMYQJJD-UHFFFAOYSA-N

>  <tags>  (995) 
BulkDock Fragalysis export,openbind_d68ev3c_c2_elabs_scored,openbind_d68ev3c_c2_elabs_scored_4.5plus,openbind_d68ev3c_c2_elabs,openbind_d68ev3c_c2_elabs_scored_5plus,syndirella_product,openbind_d68ev3c_c2_elabs_scored_top80percent,syndirella_placed

>  <smiles>  (995) 
Cc1ccc(I)cc1NC(=O)C1(S(=O)(=O)c2ccccc2)CCCCC1

>  <subsites>  (995) 
None

>  <rmsd(smina/fragmenstein)>  (995) 
2.007

>  <alias>  (995) 
None

>  <energy_score>  (995) 
-48.096048

>  <HIPPO Pose ID>  (995) 
95095

>  <distance_score>  (995) 
0.415383

>  <HIPPO Compound ID>  (995) 
128954

>  <gnina_score_min>  (995) 
5.085

>  <name>  (995) 
P95095

>  <exports>  (995) 
['/opt/xchem-fragalysis-2/maxwin/BulkDock/OUTPUTS/openbind_d68ev3c_c2_elabs_1LOTQJ3.sdf', '/opt/xchem-fragalysis-2/maxwin/BulkDock/OUTPUTS/openbind_d68ev3c_c2_elabs_1LSYI5W.sdf']

$$$$
P95106
     RDKit          3D

 26 28  0  0  0  0  0  0  0  0999 V2000
   13.8172   -4.1095   17.5580 C   0  0  0  0  0  0  0  0  0  0  0  0
   13.2861   -2.9249   16.7856 C   0  0  0  0  0  0  0  0  0  0  0  0
   12.1206   -3.1204   16.0233 C   0  0  0  0  0  0  0  0  0  0  0  0
   11.5641   -2.0854   15.2885 C   0  0  0  0  0  0  0  0  0  0  0  0
   12.1466   -0.8270   15.3452 C   0  0  0  0  0  0  0  0  0  0  0  0
   13.3121   -0.5895   16.1016 C   0  0  0  0  0  0  0  0  0  0  0  0
   13.7236    1.1482   16.2174 S   0  0  0  0  0  0  0  0  0  0  0  0
   13.9273   -1.6572   16.7957 C   0  0  0  0  0  0  0  0  0  0  0  0
   15.1348   -1.5886   17.5250 N   0  0  0  0  0  0  0  0  0  0  0  0
   16.2929   -0.5364   17.4767 C   0  0  0  0  0  0  0  0  0  0  0  0
   16.4518    0.3863   16.7698 O   0  0  0  0  0  0  0  0  0  0  0  0
   17.3204   -0.8329   18.6128 C   0  0  0  0  0  0  0  0  0  0  0  0
   18.1901   -2.3441   18.1325 S   0  0  0  0  0  0  0  0  0  0  0  0
   17.2242   -3.4317   18.1689 O   0  0  0  0  0  0  0  0  0  0  0  0
   19.4127   -2.4711   18.9027 O   0  0  0  0  0  0  0  0  0  0  0  0
   18.6834   -2.1449   16.4311 C   0  0  0  0  0  0  0  0  0  0  0  0
   19.9038   -1.5291   16.1383 C   0  0  0  0  0  0  0  0  0  0  0  0
   20.2998   -1.3820   14.8094 C   0  0  0  0  0  0  0  0  0  0  0  0
   19.4920   -1.8686   13.7825 C   0  0  0  0  0  0  0  0  0  0  0  0
   18.2904   -2.5125   14.0791 C   0  0  0  0  0  0  0  0  0  0  0  0
   17.8856   -2.6646   15.4062 C   0  0  0  0  0  0  0  0  0  0  0  0
   16.6006   -1.0084   19.9757 C   0  0  0  0  0  0  0  0  0  0  0  0
   17.5240   -0.9696   21.1927 C   0  0  0  0  0  0  0  0  0  0  0  0
   18.3694    0.2923   21.2248 C   0  0  0  0  0  0  0  0  0  0  0  0
   19.1754    0.4469   19.9460 C   0  0  0  0  0  0  0  0  0  0  0  0
   18.2872    0.3864   18.7051 C   0  0  0  0  0  0  0  0  0  0  0  0
  1  2  1  0
  2  3  2  0
  3  4  1  0
  4  5  2  0
  5  6  1  0
  6  7  1  0
  6  8  2  0
  8  9  1  0
  9 10  1  0
 10 11  2  0
 10 12  1  0
 12 13  1  0
 13 14  2  0
 13 15  2  0
 13 16  1  0
 16 17  2  0
 17 18  1  0
 18 19  2  0
 19 20  1  0
 20 21  2  0
 12 22  1  0
 22 23  1  0
 23 24  1  0
 24 25  1  0
 25 26  1  0
  8  2  1  0
 26 12  1  0
 21 16  1  0
M  END
>  <ref_mols>  (996) 
B1396a

>  <gnina_score>  (996) 
5.097

>  <smina_score_min>  (996) 
-3.808

>  <ref_pdb>  (996) 
B1396a

>  <inspiration_score>  (996) 
None

>  <inchikey>  (996) 
MSYAVMZIMDHGDW-UHFFFAOYSA-N

>  <tags>  (996) 
BulkDock Fragalysis export,openbind_d68ev3c_c2_elabs_scored,openbind_d68ev3c_c2_elabs_scored_4.5plus,openbind_d68ev3c_c2_elabs,openbind_d68ev3c_c2_elabs_scored_5plus,syndirella_product,openbind_d68ev3c_c2_elabs_scored_top80percent,syndirella_placed

>  <smiles>  (996) 
Cc1cccc(S)c1NC(=O)C1(S(=O)(=O)c2ccccc2)CCCCC1

>  <subsites>  (996) 
None

>  <rmsd(smina/fragmenstein)>  (996) 
1.976

>  <alias>  (996) 
None

>  <energy_score>  (996) 
-51.446782

>  <HIPPO Pose ID>  (996) 
95106

>  <distance_score>  (996) 
0.39901

>  <HIPPO Compound ID>  (996) 
128966

>  <gnina_score_min>  (996) 
5.04

>  <name>  (996) 
P95106

>  <exports>  (996) 
['/opt/xchem-fragalysis-2/maxwin/BulkDock/OUTPUTS/openbind_d68ev3c_c2_elabs_1LOTQJ3.sdf', '/opt/xchem-fragalysis-2/maxwin/BulkDock/OUTPUTS/openbind_d68ev3c_c2_elabs_1LSYI5W.sdf']

$$$$
P95108
     RDKit          3D

 26 28  0  0  0  0  0  0  0  0999 V2000
   13.7476   -4.1938   17.6154 C   0  0  0  0  0  0  0  0  0  0  0  0
   13.3005   -3.0197   16.7867 C   0  0  0  0  0  0  0  0  0  0  0  0
   12.1069   -3.1240   16.0525 C   0  0  0  0  0  0  0  0  0  0  0  0
   11.6452   -2.0627   15.2758 C   0  0  0  0  0  0  0  0  0  0  0  0
   12.3799   -0.8846   15.2279 C   0  0  0  0  0  0  0  0  0  0  0  0
   11.8094    0.4305   14.2752 Cl  0  0  0  0  0  0  0  0  0  0  0  0
   13.5737   -0.7631   15.9397 C   0  0  0  0  0  0  0  0  0  0  0  0
   14.0396   -1.8258   16.7204 C   0  0  0  0  0  0  0  0  0  0  0  0
   15.2427   -1.7170   17.4224 N   0  0  0  0  0  0  0  0  0  0  0  0
   16.2409   -0.5198   17.5460 C   0  0  0  0  0  0  0  0  0  0  0  0
   16.2415    0.5256   17.0157 O   0  0  0  0  0  0  0  0  0  0  0  0
   17.3062   -0.8523   18.6296 C   0  0  0  0  0  0  0  0  0  0  0  0
   18.2052   -2.3415   18.1187 S   0  0  0  0  0  0  0  0  0  0  0  0
   17.2664   -3.4534   18.1348 O   0  0  0  0  0  0  0  0  0  0  0  0
   19.4266   -2.4484   18.8965 O   0  0  0  0  0  0  0  0  0  0  0  0
   18.6925   -2.0911   16.4256 C   0  0  0  0  0  0  0  0  0  0  0  0
   17.9606   -2.6884   15.3935 C   0  0  0  0  0  0  0  0  0  0  0  0
   18.3699   -2.5116   14.0713 C   0  0  0  0  0  0  0  0  0  0  0  0
   19.5099   -1.7596   13.7870 C   0  0  0  0  0  0  0  0  0  0  0  0
   20.2513   -1.1889   14.8213 C   0  0  0  0  0  0  0  0  0  0  0  0
   19.8510   -1.3614   16.1460 C   0  0  0  0  0  0  0  0  0  0  0  0
   18.3140    0.3340   18.7564 C   0  0  0  0  0  0  0  0  0  0  0  0
   17.8159    1.4121   19.7164 C   0  0  0  0  0  0  0  0  0  0  0  0
   17.6703    0.8753   21.1387 C   0  0  0  0  0  0  0  0  0  0  0  0
   17.4006   -0.6267   21.1893 C   0  0  0  0  0  0  0  0  0  0  0  0
   16.5859   -1.0976   19.9882 C   0  0  0  0  0  0  0  0  0  0  0  0
  1  2  1  0
  2  3  2  0
  3  4  1  0
  4  5  2  0
  5  6  1  0
  5  7  1  0
  7  8  2  0
  8  9  1  0
  9 10  1  0
 10 11  2  0
 10 12  1  0
 12 13  1  0
 13 14  2  0
 13 15  2  0
 13 16  1  0
 16 17  2  0
 17 18  1  0
 18 19  2  0
 19 20  1  0
 20 21  2  0
 12 22  1  0
 22 23  1  0
 23 24  1  0
 24 25  1  0
 25 26  1  0
  8  2  1  0
 26 12  1  0
 21 16  1  0
M  END
>  <ref_mols>  (997) 
B1396a

>  <gnina_score>  (997) 
5.096

>  <smina_score_min>  (997) 
-3.949

>  <ref_pdb>  (997) 
B1396a

>  <inspiration_score>  (997) 
None

>  <inchikey>  (997) 
PUNGRBJSLWSEKQ-UHFFFAOYSA-N

>  <tags>  (997) 
BulkDock Fragalysis export,openbind_d68ev3c_c2_elabs_scored,openbind_d68ev3c_c2_elabs_scored_4.5plus,openbind_d68ev3c_c2_elabs,openbind_d68ev3c_c2_elabs_scored_5plus,syndirella_product,openbind_d68ev3c_c2_elabs_scored_top80percent,syndirella_placed

>  <smiles>  (997) 
Cc1ccc(Cl)cc1NC(=O)C1(S(=O)(=O)c2ccccc2)CCCCC1

>  <subsites>  (997) 
None

>  <rmsd(smina/fragmenstein)>  (997) 
1.967

>  <alias>  (997) 
None

>  <energy_score>  (997) 
-44.938161

>  <HIPPO Pose ID>  (997) 
95108

>  <distance_score>  (997) 
0.429369

>  <HIPPO Compound ID>  (997) 
128968

>  <gnina_score_min>  (997) 
5.018

>  <name>  (997) 
P95108

>  <exports>  (997) 
['/opt/xchem-fragalysis-2/maxwin/BulkDock/OUTPUTS/openbind_d68ev3c_c2_elabs_1LOTQJ3.sdf', '/opt/xchem-fragalysis-2/maxwin/BulkDock/OUTPUTS/openbind_d68ev3c_c2_elabs_1LSYI5W.sdf']

$$$$
P95111
     RDKit          3D

 26 27  0  0  0  0  0  0  0  0999 V2000
   13.6303   -4.1552   17.5699 C   0  0  0  0  0  0  0  0  0  0  0  0
   13.2190   -2.9700   16.7377 C   0  0  0  0  0  0  0  0  0  0  0  0
   12.0468   -3.0531   15.9680 C   0  0  0  0  0  0  0  0  0  0  0  0
   11.6175   -1.9777   15.1889 C   0  0  0  0  0  0  0  0  0  0  0  0
   12.3655   -0.8010   15.1620 C   0  0  0  0  0  0  0  0  0  0  0  0
   11.9176    0.3189   14.3829 C   0  0  0  0  0  0  0  0  0  0  0  0
   11.5433    1.2337   13.7733 N   0  0  0  0  0  0  0  0  0  0  0  0
   13.5492   -0.7144   15.9067 C   0  0  0  0  0  0  0  0  0  0  0  0
   13.9767   -1.7886   16.6964 C   0  0  0  0  0  0  0  0  0  0  0  0
   15.1536   -1.6949   17.4411 N   0  0  0  0  0  0  0  0  0  0  0  0
   16.2704   -0.6030   17.4388 C   0  0  0  0  0  0  0  0  0  0  0  0
   16.4077    0.3396   16.7579 O   0  0  0  0  0  0  0  0  0  0  0  0
   17.2432   -0.9168   18.5895 C   0  0  2  0  0  0  0  0  0  0  0  0
   18.0473    0.3487   19.0075 C   0  0  0  0  0  0  0  0  0  0  0  0
   17.0883    1.4332   19.5423 C   0  0  0  0  0  0  0  0  0  0  0  0
   19.0940    0.1072   20.1021 C   0  0  0  0  0  0  0  0  0  0  0  0
   18.1977   -2.3438   18.0878 S   0  0  0  0  0  0  0  0  0  0  0  0
   19.4028   -2.4618   18.8832 O   0  0  0  0  0  0  0  0  0  0  0  0
   17.2668   -3.4637   18.0771 O   0  0  0  0  0  0  0  0  0  0  0  0
   18.7197   -2.0773   16.4099 C   0  0  0  0  0  0  0  0  0  0  0  0
   19.7797   -1.2037   16.1542 C   0  0  0  0  0  0  0  0  0  0  0  0
   20.2123   -1.0156   14.8404 C   0  0  0  0  0  0  0  0  0  0  0  0
   19.5984   -1.7131   13.7997 C   0  0  0  0  0  0  0  0  0  0  0  0
   20.1951   -1.4562   12.0247 Br  0  0  0  0  0  0  0  0  0  0  0  0
   18.5564   -2.6041   14.0577 C   0  0  0  0  0  0  0  0  0  0  0  0
   18.1153   -2.7933   15.3694 C   0  0  0  0  0  0  0  0  0  0  0  0
  1  2  1  0
  2  3  2  0
  3  4  1  0
  4  5  2  0
  5  6  1  0
  6  7  3  0
  5  8  1  0
  8  9  2  0
  9 10  1  0
 10 11  1  0
 11 12  2  0
 11 13  1  0
 13 14  1  6
 14 15  1  0
 14 16  1  0
 13 17  1  0
 17 18  2  0
 17 19  2  0
 17 20  1  0
 20 21  2  0
 21 22  1  0
 22 23  2  0
 23 24  1  0
 23 25  1  0
 25 26  2  0
  9  2  1  0
 26 20  1  0
M  END
>  <ref_mols>  (998) 
B1396a

>  <gnina_score>  (998) 
5.181

>  <smina_score_min>  (998) 
-3.667

>  <ref_pdb>  (998) 
B1396a

>  <inspiration_score>  (998) 
None

>  <inchikey>  (998) 
VVOFDZIFWGRLSI-SFHVURJKSA-N

>  <tags>  (998) 
BulkDock Fragalysis export,openbind_d68ev3c_c2_elabs_scored,openbind_d68ev3c_c2_elabs_scored_4.5plus,openbind_d68ev3c_c2_elabs,openbind_d68ev3c_c2_elabs_scored_5plus,syndirella_product,openbind_d68ev3c_c2_elabs_scored_top80percent,syndirella_placed

>  <smiles>  (998) 
Cc1ccc(C#N)cc1NC(=O)[C@H](C(C)C)S(=O)(=O)c1ccc(Br)cc1

>  <subsites>  (998) 
None

>  <rmsd(smina/fragmenstein)>  (998) 
2.11

>  <alias>  (998) 
None

>  <energy_score>  (998) 
-33.462482

>  <HIPPO Pose ID>  (998) 
95111

>  <distance_score>  (998) 
0.377382

>  <HIPPO Compound ID>  (998) 
128974

>  <gnina_score_min>  (998) 
5.122

>  <name>  (998) 
P95111

>  <exports>  (998) 
['/opt/xchem-fragalysis-2/maxwin/BulkDock/OUTPUTS/openbind_d68ev3c_c2_elabs_1LOTQJ3.sdf', '/opt/xchem-fragalysis-2/maxwin/BulkDock/OUTPUTS/openbind_d68ev3c_c2_elabs_1LSYI5W.sdf']

$$$$
P95113
     RDKit          3D

 26 28  0  0  0  0  0  0  0  0999 V2000
   17.9455    0.1250   20.5210 C   0  0  0  0  0  0  0  0  0  0  0  0
   17.5981    0.1617   19.0236 C   0  0  0  0  0  0  0  0  0  0  0  0
   16.5353    1.2556   18.8299 C   0  0  0  0  0  0  0  0  0  0  0  0
   17.1275   -1.2291   18.5260 C   0  0  1  0  0  0  0  0  0  0  0  0
   16.2945   -1.1406   17.2572 C   0  0  0  0  0  0  0  0  0  0  0  0
   16.7212   -0.6722   16.2649 O   0  0  0  0  0  0  0  0  0  0  0  0
   14.9301   -1.7479   17.5519 N   0  0  0  0  0  0  0  0  0  0  0  0
   14.9175   -3.3052   17.2568 C   0  0  0  0  0  0  0  0  0  0  0  0
   13.5854   -3.9862   17.4808 C   0  0  0  0  0  0  0  0  0  0  0  0
   12.9260   -2.9696   16.6798 C   0  0  0  0  0  0  0  0  0  0  0  0
   11.7897   -3.0573   15.8964 C   0  0  0  0  0  0  0  0  0  0  0  0
   11.3942   -1.9390   15.1673 C   0  0  0  0  0  0  0  0  0  0  0  0
   12.1576   -0.7705   15.2199 C   0  0  0  0  0  0  0  0  0  0  0  0
   11.6548    0.6101   14.3242 Cl  0  0  0  0  0  0  0  0  0  0  0  0
   13.3228   -0.7137   15.9871 C   0  0  0  0  0  0  0  0  0  0  0  0
   13.7184   -1.8364   16.7161 C   0  0  0  0  0  0  0  0  0  0  0  0
   18.4733   -2.3876   18.2164 S   0  0  0  0  0  0  0  0  0  0  0  0
   17.9282   -3.7275   18.3689 O   0  0  0  0  0  0  0  0  0  0  0  0
   19.6336   -2.0180   19.0059 O   0  0  0  0  0  0  0  0  0  0  0  0
   18.9905   -2.2543   16.5142 C   0  0  0  0  0  0  0  0  0  0  0  0
   18.6207   -3.2429   15.5918 C   0  0  0  0  0  0  0  0  0  0  0  0
   19.0222   -3.1259   14.2592 C   0  0  0  0  0  0  0  0  0  0  0  0
   19.7963   -2.0345   13.8637 C   0  0  0  0  0  0  0  0  0  0  0  0
   20.3408   -1.8771   12.0603 Br  0  0  0  0  0  0  0  0  0  0  0  0
   20.1912   -1.0678   14.7897 C   0  0  0  0  0  0  0  0  0  0  0  0
   19.7985   -1.1815   16.1247 C   0  0  0  0  0  0  0  0  0  0  0  0
  1  2  1  0
  2  3  1  0
  4  2  1  6
  4  5  1  0
  5  6  2  0
  5  7  1  0
  7  8  1  0
  8  9  1  0
  9 10  1  0
 10 11  2  0
 11 12  1  0
 12 13  2  0
 13 14  1  0
 13 15  1  0
 15 16  2  0
  4 17  1  0
 17 18  2  0
 17 19  2  0
 17 20  1  0
 20 21  2  0
 21 22  1  0
 22 23  2  0
 23 24  1  0
 23 25  1  0
 25 26  2  0
 16  7  1  0
 26 20  1  0
 16 10  1  0
M  END
>  <ref_mols>  (999) 
B1396a

>  <gnina_score>  (999) 
5.33

>  <smina_score_min>  (999) 
-3.675

>  <ref_pdb>  (999) 
B1396a

>  <inspiration_score>  (999) 
None

>  <inchikey>  (999) 
LHNWKVVXVCAJSC-SFHVURJKSA-N

>  <tags>  (999) 
BulkDock Fragalysis export,openbind_d68ev3c_c2_elabs_scored,openbind_d68ev3c_c2_elabs_scored_4.5plus,openbind_d68ev3c_c2_elabs,openbind_d68ev3c_c2_elabs_scored_5plus,syndirella_product,openbind_d68ev3c_c2_elabs_scored_top80percent,syndirella_placed

>  <smiles>  (999) 
CC(C)[C@@H](C(=O)N1CCc2ccc(Cl)cc21)S(=O)(=O)c1ccc(Br)cc1

>  <subsites>  (999) 
None

>  <rmsd(smina/fragmenstein)>  (999) 
1.09

>  <alias>  (999) 
None

>  <energy_score>  (999) 
-10.343219

>  <HIPPO Pose ID>  (999) 
95113

>  <distance_score>  (999) 
0.339183

>  <HIPPO Compound ID>  (999) 
128976

>  <gnina_score_min>  (999) 
5.203

>  <name>  (999) 
P95113

>  <exports>  (999) 
['/opt/xchem-fragalysis-2/maxwin/BulkDock/OUTPUTS/openbind_d68ev3c_c2_elabs_1LOTQJ3.sdf', '/opt/xchem-fragalysis-2/maxwin/BulkDock/OUTPUTS/openbind_d68ev3c_c2_elabs_1LSYI5W.sdf']

$$$$
P95121
     RDKit          3D

 26 27  0  0  0  0  0  0  0  0999 V2000
   12.1917   -3.1771   13.4573 C   0  0  0  0  0  0  0  0  0  0  0  0
   11.5014   -3.4310   15.1063 S   0  0  0  0  0  0  0  0  0  0  0  0
   12.3917   -2.1476   15.9422 C   0  0  0  0  0  0  0  0  0  0  0  0
   12.0529   -0.8457   15.5493 C   0  0  0  0  0  0  0  0  0  0  0  0
   12.8297    0.2252   15.9459 C   0  0  0  0  0  0  0  0  0  0  0  0
   13.9517   -0.0044   16.7321 C   0  0  0  0  0  0  0  0  0  0  0  0
   14.2699   -1.2916   17.1823 C   0  0  0  0  0  0  0  0  0  0  0  0
   15.4219   -1.4663   17.9526 N   0  0  0  0  0  0  0  0  0  0  0  0
   16.6351   -0.5117   18.1934 C   0  0  0  0  0  0  0  0  0  0  0  0
   16.8129    0.5932   17.8440 O   0  0  0  0  0  0  0  0  0  0  0  0
   17.6414   -1.1824   19.1135 C   0  0  1  0  0  0  0  0  0  0  0  0
   17.0442   -1.5065   20.5087 C   0  0  0  0  0  0  0  0  0  0  0  0
   16.4036   -0.2619   21.1416 C   0  0  0  0  0  0  0  0  0  0  0  0
   18.0960   -2.0545   21.4811 C   0  0  0  0  0  0  0  0  0  0  0  0
   18.3526   -2.5805   18.2931 S   0  0  0  0  0  0  0  0  0  0  0  0
   19.6516   -2.8366   18.8846 O   0  0  0  0  0  0  0  0  0  0  0  0
   17.3304   -3.6148   18.2707 O   0  0  0  0  0  0  0  0  0  0  0  0
   18.6879   -2.1467   16.5995 C   0  0  0  0  0  0  0  0  0  0  0  0
   19.5095   -1.0527   16.3156 C   0  0  0  0  0  0  0  0  0  0  0  0
   19.8270   -0.7592   14.9868 C   0  0  0  0  0  0  0  0  0  0  0  0
   19.3360   -1.5647   13.9589 C   0  0  0  0  0  0  0  0  0  0  0  0
   19.7741   -1.1645   12.1642 Br  0  0  0  0  0  0  0  0  0  0  0  0
   18.5287   -2.6656   14.2436 C   0  0  0  0  0  0  0  0  0  0  0  0
   18.1989   -2.9597   15.5689 C   0  0  0  0  0  0  0  0  0  0  0  0
   13.4514   -2.3870   16.8421 C   0  0  0  0  0  0  0  0  0  0  0  0
   13.7446   -3.7650   17.3866 C   0  0  0  0  0  0  0  0  0  0  0  0
  1  2  1  0
  2  3  1  0
  3  4  2  0
  4  5  1  0
  5  6  2  0
  6  7  1  0
  7  8  1  0
  8  9  1  0
  9 10  2  0
  9 11  1  0
 11 12  1  1
 12 13  1  0
 12 14  1  0
 11 15  1  0
 15 16  2  0
 15 17  2  0
 15 18  1  0
 18 19  2  0
 19 20  1  0
 20 21  2  0
 21 22  1  0
 21 23  1  0
 23 24  2  0
  7 25  2  0
 25 26  1  0
 25  3  1  0
 24 18  1  0
M  END
>  <ref_mols>  (1000) 
B1396a

>  <gnina_score>  (1000) 
5.134

>  <smina_score_min>  (1000) 
-3.081

>  <ref_pdb>  (1000) 
B1396a

>  <inspiration_score>  (1000) 
None

>  <inchikey>  (1000) 
MJNINVWINWJQQK-GOSISDBHSA-N

>  <tags>  (1000) 
BulkDock Fragalysis export,openbind_d68ev3c_c2_elabs_scored,openbind_d68ev3c_c2_elabs_scored_4.5plus,openbind_d68ev3c_c2_elabs,openbind_d68ev3c_c2_elabs_scored_5plus,syndirella_product,openbind_d68ev3c_c2_elabs_scored_top80percent,syndirella_placed

>  <smiles>  (1000) 
CSc1cccc(NC(=O)[C@@H](C(C)C)S(=O)(=O)c2ccc(Br)cc2)c1C

>  <subsites>  (1000) 
None

>  <rmsd(smina/fragmenstein)>  (1000) 
1.469

>  <alias>  (1000) 
None

>  <energy_score>  (1000) 
-50.698944

>  <HIPPO Pose ID>  (1000) 
95121

>  <distance_score>  (1000) 
0.906451

>  <HIPPO Compound ID>  (1000) 
128985

>  <gnina_score_min>  (1000) 
5.257

>  <name>  (1000) 
P95121

>  <exports>  (1000) 
['/opt/xchem-fragalysis-2/maxwin/BulkDock/OUTPUTS/openbind_d68ev3c_c2_elabs_1LOTQJ3.sdf', '/opt/xchem-fragalysis-2/maxwin/BulkDock/OUTPUTS/openbind_d68ev3c_c2_elabs_1LSYI5W.sdf']

$$$$
P95122
     RDKit          3D

 26 27  0  0  0  0  0  0  0  0999 V2000
   13.1708    0.6671   13.1091 C   0  0  0  0  0  0  0  0  0  0  0  0
   11.8267    0.5343   14.3179 S   0  0  0  0  0  0  0  0  0  0  0  0
   12.4201   -0.8496   15.2699 C   0  0  0  0  0  0  0  0  0  0  0  0
   11.6740   -2.0255   15.2999 C   0  0  0  0  0  0  0  0  0  0  0  0
   12.1118   -3.1073   16.0643 C   0  0  0  0  0  0  0  0  0  0  0  0
   13.2913   -3.0298   16.8218 C   0  0  0  0  0  0  0  0  0  0  0  0
   13.7146   -4.2212   17.6365 C   0  0  0  0  0  0  0  0  0  0  0  0
   14.0406   -1.8435   16.7883 C   0  0  0  0  0  0  0  0  0  0  0  0
   15.2203   -1.7456   17.5272 N   0  0  0  0  0  0  0  0  0  0  0  0
   16.3297   -0.6459   17.5249 C   0  0  0  0  0  0  0  0  0  0  0  0
   16.4572    0.3013   16.8480 O   0  0  0  0  0  0  0  0  0  0  0  0
   17.3161   -0.9667   18.6593 C   0  0  2  0  0  0  0  0  0  0  0  0
   18.1185    0.2974   19.0837 C   0  0  0  0  0  0  0  0  0  0  0  0
   17.1599    1.3741   19.6347 C   0  0  0  0  0  0  0  0  0  0  0  0
   19.1719    0.0473   20.1701 C   0  0  0  0  0  0  0  0  0  0  0  0
   18.2721   -2.3788   18.1212 S   0  0  0  0  0  0  0  0  0  0  0  0
   19.4965   -2.4919   18.8873 O   0  0  0  0  0  0  0  0  0  0  0  0
   17.3530   -3.5083   18.1187 O   0  0  0  0  0  0  0  0  0  0  0  0
   18.7544   -2.0906   16.4341 C   0  0  0  0  0  0  0  0  0  0  0  0
   18.1261   -2.7934   15.3987 C   0  0  0  0  0  0  0  0  0  0  0  0
   18.5372   -2.5875   14.0798 C   0  0  0  0  0  0  0  0  0  0  0  0
   19.5733   -1.6935   13.8093 C   0  0  0  0  0  0  0  0  0  0  0  0
   20.1280   -1.4128   12.0242 Br  0  0  0  0  0  0  0  0  0  0  0  0
   20.2110   -1.0090   14.8444 C   0  0  0  0  0  0  0  0  0  0  0  0
   19.8082   -1.2133   16.1652 C   0  0  0  0  0  0  0  0  0  0  0  0
   13.6023   -0.7646   16.0130 C   0  0  0  0  0  0  0  0  0  0  0  0
  1  2  1  0
  2  3  1  0
  3  4  2  0
  4  5  1  0
  5  6  2  0
  6  7  1  0
  6  8  1  0
  8  9  1  0
  9 10  1  0
 10 11  2  0
 10 12  1  0
 12 13  1  6
 13 14  1  0
 13 15  1  0
 12 16  1  0
 16 17  2  0
 16 18  2  0
 16 19  1  0
 19 20  2  0
 20 21  1  0
 21 22  2  0
 22 23  1  0
 22 24  1  0
 24 25  2  0
  8 26  2  0
 26  3  1  0
 25 19  1  0
M  END
>  <ref_mols>  (1001) 
B1396a

>  <gnina_score>  (1001) 
5.218

>  <smina_score_min>  (1001) 
-3.627

>  <ref_pdb>  (1001) 
B1396a

>  <inspiration_score>  (1001) 
None

>  <inchikey>  (1001) 
YEPMBVDEJMVAHC-SFHVURJKSA-N

>  <tags>  (1001) 
BulkDock Fragalysis export,openbind_d68ev3c_c2_elabs_scored,openbind_d68ev3c_c2_elabs_scored_4.5plus,openbind_d68ev3c_c2_elabs,openbind_d68ev3c_c2_elabs_scored_5plus,syndirella_product,openbind_d68ev3c_c2_elabs_scored_top80percent,syndirella_placed

>  <smiles>  (1001) 
CSc1ccc(C)c(NC(=O)[C@H](C(C)C)S(=O)(=O)c2ccc(Br)cc2)c1

>  <subsites>  (1001) 
None

>  <rmsd(smina/fragmenstein)>  (1001) 
2.125

>  <alias>  (1001) 
None

>  <energy_score>  (1001) 
-46.05015

>  <HIPPO Pose ID>  (1001) 
95122

>  <distance_score>  (1001) 
0.370633

>  <HIPPO Compound ID>  (1001) 
128986

>  <gnina_score_min>  (1001) 
5.211

>  <name>  (1001) 
P95122

>  <exports>  (1001) 
['/opt/xchem-fragalysis-2/maxwin/BulkDock/OUTPUTS/openbind_d68ev3c_c2_elabs_1LOTQJ3.sdf', '/opt/xchem-fragalysis-2/maxwin/BulkDock/OUTPUTS/openbind_d68ev3c_c2_elabs_1LSYI5W.sdf']

$$$$
P95124
     RDKit          3D

 26 27  0  0  0  0  0  0  0  0999 V2000
   13.9330   -4.0877   17.5872 C   0  0  0  0  0  0  0  0  0  0  0  0
   13.4656   -2.8044   16.9430 C   0  0  0  0  0  0  0  0  0  0  0  0
   12.2362   -2.8294   16.2645 C   0  0  0  0  0  0  0  0  0  0  0  0
   11.7340   -1.6685   15.6990 C   0  0  0  0  0  0  0  0  0  0  0  0
   10.1523   -1.6194   15.0554 Cl  0  0  0  0  0  0  0  0  0  0  0  0
   12.4580   -0.4895   15.7533 C   0  0  0  0  0  0  0  0  0  0  0  0
   13.6875   -0.4245   16.4310 C   0  0  0  0  0  0  0  0  0  0  0  0
   14.2952    0.9474   16.5260 C   0  0  0  0  0  0  0  0  0  0  0  0
   14.2125   -1.5965   17.0159 C   0  0  0  0  0  0  0  0  0  0  0  0
   15.4242   -1.6511   17.7240 N   0  0  0  0  0  0  0  0  0  0  0  0
   16.6653   -0.6986   17.6883 C   0  0  0  0  0  0  0  0  0  0  0  0
   16.8916    0.2277   17.0073 O   0  0  0  0  0  0  0  0  0  0  0  0
   17.6289   -1.1381   18.7921 C   0  0  2  0  0  0  0  0  0  0  0  0
   18.5185    0.0431   19.2736 C   0  0  0  0  0  0  0  0  0  0  0  0
   19.5186   -0.3341   20.3746 C   0  0  0  0  0  0  0  0  0  0  0  0
   17.6386    1.1764   19.8412 C   0  0  0  0  0  0  0  0  0  0  0  0
   18.4751   -2.5696   18.1493 S   0  0  0  0  0  0  0  0  0  0  0  0
   17.4892   -3.6409   18.1405 O   0  0  0  0  0  0  0  0  0  0  0  0
   19.7214   -2.7773   18.8563 O   0  0  0  0  0  0  0  0  0  0  0  0
   18.9015   -2.2333   16.4552 C   0  0  0  0  0  0  0  0  0  0  0  0
   19.9676   -1.3745   16.1759 C   0  0  0  0  0  0  0  0  0  0  0  0
   20.3124   -1.1178   14.8478 C   0  0  0  0  0  0  0  0  0  0  0  0
   19.6053   -1.7331   13.8146 C   0  0  0  0  0  0  0  0  0  0  0  0
   20.0810   -1.3811   12.0194 Br  0  0  0  0  0  0  0  0  0  0  0  0
   18.5567   -2.6098   14.0938 C   0  0  0  0  0  0  0  0  0  0  0  0
   18.2026   -2.8670   15.4203 C   0  0  0  0  0  0  0  0  0  0  0  0
  1  2  1  0
  2  3  2  0
  3  4  1  0
  4  5  1  0
  4  6  2  0
  6  7  1  0
  7  8  1  0
  7  9  2  0
  9 10  1  0
 10 11  1  0
 11 12  2  0
 11 13  1  0
 13 14  1  6
 14 15  1  0
 14 16  1  0
 13 17  1  0
 17 18  2  0
 17 19  2  0
 17 20  1  0
 20 21  2  0
 21 22  1  0
 22 23  2  0
 23 24  1  0
 23 25  1  0
 25 26  2  0
  9  2  1  0
 26 20  1  0
M  END
>  <ref_mols>  (1002) 
B1396a

>  <gnina_score>  (1002) 
5.49

>  <smina_score_min>  (1002) 
-3.172

>  <ref_pdb>  (1002) 
B1396a

>  <inspiration_score>  (1002) 
None

>  <inchikey>  (1002) 
ANUPFSVWBARYGO-SFHVURJKSA-N

>  <tags>  (1002) 
BulkDock Fragalysis export,openbind_d68ev3c_c2_elabs_scored,openbind_d68ev3c_c2_elabs_scored_4.5plus,openbind_d68ev3c_c2_elabs,openbind_d68ev3c_c2_elabs_scored_5plus,syndirella_product,openbind_d68ev3c_c2_elabs_scored_top80percent,syndirella_placed

>  <smiles>  (1002) 
Cc1cc(Cl)cc(C)c1NC(=O)[C@H](C(C)C)S(=O)(=O)c1ccc(Br)cc1

>  <subsites>  (1002) 
None

>  <rmsd(smina/fragmenstein)>  (1002) 
2.022

>  <alias>  (1002) 
None

>  <energy_score>  (1002) 
-48.788692

>  <HIPPO Pose ID>  (1002) 
95124

>  <distance_score>  (1002) 
0.541368

>  <HIPPO Compound ID>  (1002) 
128987

>  <gnina_score_min>  (1002) 
5.453

>  <name>  (1002) 
P95124

>  <exports>  (1002) 
['/opt/xchem-fragalysis-2/maxwin/BulkDock/OUTPUTS/openbind_d68ev3c_c2_elabs_1LOTQJ3.sdf', '/opt/xchem-fragalysis-2/maxwin/BulkDock/OUTPUTS/openbind_d68ev3c_c2_elabs_1LSYI5W.sdf']

$$$$
P95128
     RDKit          3D

 26 27  0  0  0  0  0  0  0  0999 V2000
   15.3436   -5.1044   20.1027 C   0  0  0  0  0  0  0  0  0  0  0  0
   14.2048   -3.7880   19.6106 S   0  0  0  0  0  0  0  0  0  0  0  0
   13.9776   -4.2261   17.8535 C   0  0  0  0  0  0  0  0  0  0  0  0
   13.4337   -3.0862   17.0117 C   0  0  0  0  0  0  0  0  0  0  0  0
   12.2459   -3.2817   16.2833 C   0  0  0  0  0  0  0  0  0  0  0  0
   11.7595   -2.3047   15.4129 C   0  0  0  0  0  0  0  0  0  0  0  0
   12.4615   -1.1163   15.2500 C   0  0  0  0  0  0  0  0  0  0  0  0
   13.6485   -0.9051   15.9539 C   0  0  0  0  0  0  0  0  0  0  0  0
   14.1319   -1.8752   16.8365 C   0  0  0  0  0  0  0  0  0  0  0  0
   15.2932   -1.6507   17.5718 N   0  0  0  0  0  0  0  0  0  0  0  0
   16.3947   -0.5573   17.4163 C   0  0  0  0  0  0  0  0  0  0  0  0
   16.4519    0.3641   16.6966 O   0  0  0  0  0  0  0  0  0  0  0  0
   17.4532   -0.8104   18.5064 C   0  0  2  0  0  0  0  0  0  0  0  0
   18.2834    0.4754   18.7914 C   0  0  0  0  0  0  0  0  0  0  0  0
   17.3680    1.5824   19.3552 C   0  0  0  0  0  0  0  0  0  0  0  0
   19.4235    0.2907   19.8001 C   0  0  0  0  0  0  0  0  0  0  0  0
   18.3773   -2.2611   18.0041 S   0  0  0  0  0  0  0  0  0  0  0  0
   17.4579   -3.3886   18.0389 O   0  0  0  0  0  0  0  0  0  0  0  0
   19.6064   -2.3687   18.7644 O   0  0  0  0  0  0  0  0  0  0  0  0
   18.8394   -2.0243   16.3057 C   0  0  0  0  0  0  0  0  0  0  0  0
   18.1413   -2.6962   15.2946 C   0  0  0  0  0  0  0  0  0  0  0  0
   18.5335   -2.5338   13.9646 C   0  0  0  0  0  0  0  0  0  0  0  0
   19.6205   -1.7145   13.6596 C   0  0  0  0  0  0  0  0  0  0  0  0
   20.1507   -1.4921   11.8588 Br  0  0  0  0  0  0  0  0  0  0  0  0
   20.3263   -1.0617   14.6706 C   0  0  0  0  0  0  0  0  0  0  0  0
   19.9423   -1.2230   16.0023 C   0  0  0  0  0  0  0  0  0  0  0  0
  1  2  1  0
  2  3  1  0
  3  4  1  0
  4  5  2  0
  5  6  1  0
  6  7  2  0
  7  8  1  0
  8  9  2  0
  9 10  1  0
 10 11  1  0
 11 12  2  0
 11 13  1  0
 13 14  1  6
 14 15  1  0
 14 16  1  0
 13 17  1  0
 17 18  2  0
 17 19  2  0
 17 20  1  0
 20 21  2  0
 21 22  1  0
 22 23  2  0
 23 24  1  0
 23 25  1  0
 25 26  2  0
  9  4  1  0
 26 20  1  0
M  END
>  <ref_mols>  (1003) 
B1396a

>  <gnina_score>  (1003) 
5.099

>  <smina_score_min>  (1003) 
-3.054

>  <ref_pdb>  (1003) 
B1396a

>  <inspiration_score>  (1003) 
None

>  <inchikey>  (1003) 
XMCLHVWBCPSMNW-SFHVURJKSA-N

>  <tags>  (1003) 
BulkDock Fragalysis export,openbind_d68ev3c_c2_elabs_scored,openbind_d68ev3c_c2_elabs_scored_4.5plus,openbind_d68ev3c_c2_elabs,openbind_d68ev3c_c2_elabs_scored_5plus,syndirella_product,openbind_d68ev3c_c2_elabs_scored_top80percent,syndirella_placed

>  <smiles>  (1003) 
CSCc1ccccc1NC(=O)[C@H](C(C)C)S(=O)(=O)c1ccc(Br)cc1

>  <subsites>  (1003) 
None

>  <rmsd(smina/fragmenstein)>  (1003) 
1.88

>  <alias>  (1003) 
None

>  <energy_score>  (1003) 
-21.487746

>  <HIPPO Pose ID>  (1003) 
95128

>  <distance_score>  (1003) 
0.436241

>  <HIPPO Compound ID>  (1003) 
128990

>  <gnina_score_min>  (1003) 
5.116

>  <name>  (1003) 
P95128

>  <exports>  (1003) 
['/opt/xchem-fragalysis-2/maxwin/BulkDock/OUTPUTS/openbind_d68ev3c_c2_elabs_1LOTQJ3.sdf', '/opt/xchem-fragalysis-2/maxwin/BulkDock/OUTPUTS/openbind_d68ev3c_c2_elabs_1LSYI5W.sdf']

$$$$
P95130
     RDKit          3D

 26 27  0  0  0  0  0  0  0  0999 V2000
   17.7542   -1.2012   21.1529 C   0  0  0  0  0  0  0  0  0  0  0  0
   16.7009   -1.0566   20.0476 C   0  0  0  0  0  0  0  0  0  0  0  0
   15.8120    0.1507   20.3833 C   0  0  0  0  0  0  0  0  0  0  0  0
   17.3402   -0.9140   18.6396 C   0  0  2  0  0  0  0  0  0  0  0  0
   16.3057   -0.5872   17.5631 C   0  0  0  0  0  0  0  0  0  0  0  0
   16.3219    0.4582   17.0343 O   0  0  0  0  0  0  0  0  0  0  0  0
   15.2929   -1.7686   17.4370 N   0  0  0  0  0  0  0  0  0  0  0  0
   14.0842   -1.8605   16.7299 C   0  0  0  0  0  0  0  0  0  0  0  0
   13.6341   -0.7926   15.9456 C   0  0  0  0  0  0  0  0  0  0  0  0
   12.4342   -0.8973   15.2352 C   0  0  0  0  0  0  0  0  0  0  0  0
   11.8329    0.5542   14.1832 Br  0  0  0  0  0  0  0  0  0  0  0  0
   11.6760   -2.0631   15.2847 C   0  0  0  0  0  0  0  0  0  0  0  0
   12.1179   -3.1304   16.0649 C   0  0  0  0  0  0  0  0  0  0  0  0
   13.3098   -3.0320   16.7974 C   0  0  0  0  0  0  0  0  0  0  0  0
   13.7320   -4.1512   17.5854 C   0  0  0  0  0  0  0  0  0  0  0  0
   14.1307   -5.0309   18.2248 N   0  0  0  0  0  0  0  0  0  0  0  0
   18.2968   -2.3267   18.1428 S   0  0  0  0  0  0  0  0  0  0  0  0
   17.4141   -3.4775   18.2235 O   0  0  0  0  0  0  0  0  0  0  0  0
   19.5582   -2.3100   18.8580 O   0  0  0  0  0  0  0  0  0  0  0  0
   18.7196   -2.1054   16.4296 C   0  0  0  0  0  0  0  0  0  0  0  0
   18.3774   -3.0897   15.4951 C   0  0  0  0  0  0  0  0  0  0  0  0
   18.7582   -2.9305   14.1606 C   0  0  0  0  0  0  0  0  0  0  0  0
   19.4692   -1.7942   13.7733 C   0  0  0  0  0  0  0  0  0  0  0  0
   19.9849   -1.5813   11.9675 Br  0  0  0  0  0  0  0  0  0  0  0  0
   19.8166   -0.8192   14.7088 C   0  0  0  0  0  0  0  0  0  0  0  0
   19.4488   -0.9761   16.0462 C   0  0  0  0  0  0  0  0  0  0  0  0
  1  2  1  0
  2  3  1  0
  4  2  1  1
  4  5  1  0
  5  6  2  0
  5  7  1  0
  7  8  1  0
  8  9  2  0
  9 10  1  0
 10 11  1  0
 10 12  2  0
 12 13  1  0
 13 14  2  0
 14 15  1  0
 15 16  3  0
  4 17  1  0
 17 18  2  0
 17 19  2  0
 17 20  1  0
 20 21  2  0
 21 22  1  0
 22 23  2  0
 23 24  1  0
 23 25  1  0
 25 26  2  0
 14  8  1  0
 26 20  1  0
M  END
>  <ref_mols>  (1004) 
B1396a

>  <gnina_score>  (1004) 
5.384

>  <smina_score_min>  (1004) 
-3.623

>  <ref_pdb>  (1004) 
B1396a

>  <inspiration_score>  (1004) 
None

>  <inchikey>  (1004) 
CNQXOEWYDYALFR-QGZVFWFLSA-N

>  <tags>  (1004) 
BulkDock Fragalysis export,openbind_d68ev3c_c2_elabs_scored,openbind_d68ev3c_c2_elabs_scored_4.5plus,openbind_d68ev3c_c2_elabs,openbind_d68ev3c_c2_elabs_scored_5plus,syndirella_product,openbind_d68ev3c_c2_elabs_scored_top80percent,syndirella_placed

>  <smiles>  (1004) 
CC(C)[C@H](C(=O)Nc1cc(Br)ccc1C#N)S(=O)(=O)c1ccc(Br)cc1

>  <subsites>  (1004) 
None

>  <rmsd(smina/fragmenstein)>  (1004) 
1.636

>  <alias>  (1004) 
None

>  <energy_score>  (1004) 
-37.726602

>  <HIPPO Pose ID>  (1004) 
95130

>  <distance_score>  (1004) 
0.396658

>  <HIPPO Compound ID>  (1004) 
128991

>  <gnina_score_min>  (1004) 
5.253

>  <name>  (1004) 
P95130

>  <exports>  (1004) 
['/opt/xchem-fragalysis-2/maxwin/BulkDock/OUTPUTS/openbind_d68ev3c_c2_elabs_1LOTQJ3.sdf', '/opt/xchem-fragalysis-2/maxwin/BulkDock/OUTPUTS/openbind_d68ev3c_c2_elabs_1LSYI5W.sdf']

$$$$
P95133
     RDKit          3D

 26 27  0  0  0  0  0  0  0  0999 V2000
   19.4818    0.0316   20.0922 C   0  0  0  0  0  0  0  0  0  0  0  0
   18.3614    0.3282   19.0885 C   0  0  0  0  0  0  0  0  0  0  0  0
   17.4680    1.4124   19.7275 C   0  0  0  0  0  0  0  0  0  0  0  0
   17.4998   -0.9056   18.6910 C   0  0  1  0  0  0  0  0  0  0  0  0
   16.4681   -0.5400   17.6089 C   0  0  0  0  0  0  0  0  0  0  0  0
   16.5773    0.4293   16.9606 O   0  0  0  0  0  0  0  0  0  0  0  0
   15.3178   -1.5964   17.6636 N   0  0  0  0  0  0  0  0  0  0  0  0
   14.1561   -1.7170   16.8887 C   0  0  0  0  0  0  0  0  0  0  0  0
   13.7409   -0.6469   16.0834 C   0  0  0  0  0  0  0  0  0  0  0  0
   12.5811   -0.7379   15.3058 C   0  0  0  0  0  0  0  0  0  0  0  0
   11.8324   -1.9069   15.3153 C   0  0  0  0  0  0  0  0  0  0  0  0
   12.2505   -2.9686   16.1097 C   0  0  0  0  0  0  0  0  0  0  0  0
   11.5236   -4.0872   16.0985 F   0  0  0  0  0  0  0  0  0  0  0  0
   13.3923   -2.8915   16.9055 C   0  0  0  0  0  0  0  0  0  0  0  0
   13.7712   -4.0261   17.6874 C   0  0  0  0  0  0  0  0  0  0  0  0
   14.1540   -4.9068   18.3361 N   0  0  0  0  0  0  0  0  0  0  0  0
   18.3753   -2.3459   18.1014 S   0  0  0  0  0  0  0  0  0  0  0  0
   19.6117   -2.5281   18.8326 O   0  0  0  0  0  0  0  0  0  0  0  0
   17.3985   -3.4239   18.0999 O   0  0  0  0  0  0  0  0  0  0  0  0
   18.8230   -2.0565   16.4059 C   0  0  0  0  0  0  0  0  0  0  0  0
   18.1911   -2.7807   15.3867 C   0  0  0  0  0  0  0  0  0  0  0  0
   18.5744   -2.5784   14.0592 C   0  0  0  0  0  0  0  0  0  0  0  0
   19.5859   -1.6646   13.7635 C   0  0  0  0  0  0  0  0  0  0  0  0
   20.1039   -1.3878   11.9669 Br  0  0  0  0  0  0  0  0  0  0  0  0
   20.2277   -0.9593   14.7820 C   0  0  0  0  0  0  0  0  0  0  0  0
   19.8539   -1.1616   16.1117 C   0  0  0  0  0  0  0  0  0  0  0  0
  1  2  1  0
  2  3  1  0
  4  2  1  6
  4  5  1  0
  5  6  2  0
  5  7  1  0
  7  8  1  0
  8  9  2  0
  9 10  1  0
 10 11  2  0
 11 12  1  0
 12 13  1  0
 12 14  2  0
 14 15  1  0
 15 16  3  0
  4 17  1  0
 17 18  2  0
 17 19  2  0
 17 20  1  0
 20 21  2  0
 21 22  1  0
 22 23  2  0
 23 24  1  0
 23 25  1  0
 25 26  2  0
 14  8  1  0
 26 20  1  0
M  END
>  <ref_mols>  (1005) 
B1396a

>  <gnina_score>  (1005) 
5.412

>  <smina_score_min>  (1005) 
-3.062

>  <ref_pdb>  (1005) 
B1396a

>  <inspiration_score>  (1005) 
None

>  <inchikey>  (1005) 
KEQHALMEACYREY-KRWDZBQOSA-N

>  <tags>  (1005) 
BulkDock Fragalysis export,openbind_d68ev3c_c2_elabs_scored,openbind_d68ev3c_c2_elabs_scored_4.5plus,openbind_d68ev3c_c2_elabs,openbind_d68ev3c_c2_elabs_scored_5plus,syndirella_product,openbind_d68ev3c_c2_elabs_scored_top80percent,syndirella_placed

>  <smiles>  (1005) 
CC(C)[C@@H](C(=O)Nc1cccc(F)c1C#N)S(=O)(=O)c1ccc(Br)cc1

>  <subsites>  (1005) 
None

>  <rmsd(smina/fragmenstein)>  (1005) 
2.204

>  <alias>  (1005) 
None

>  <energy_score>  (1005) 
-8.475524

>  <HIPPO Pose ID>  (1005) 
95133

>  <distance_score>  (1005) 
0.476846

>  <HIPPO Compound ID>  (1005) 
128992

>  <gnina_score_min>  (1005) 
5.247

>  <name>  (1005) 
P95133

>  <exports>  (1005) 
['/opt/xchem-fragalysis-2/maxwin/BulkDock/OUTPUTS/openbind_d68ev3c_c2_elabs_1LOTQJ3.sdf', '/opt/xchem-fragalysis-2/maxwin/BulkDock/OUTPUTS/openbind_d68ev3c_c2_elabs_1LSYI5W.sdf']

$$$$
P95136
     RDKit          3D

 26 27  0  0  0  0  0  0  0  0999 V2000
   14.4060    1.0431   16.5258 C   0  0  0  0  0  0  0  0  0  0  0  0
   13.7293   -0.2956   16.4204 C   0  0  0  0  0  0  0  0  0  0  0  0
   12.4756   -0.2794   15.7862 C   0  0  0  0  0  0  0  0  0  0  0  0
   11.6844   -1.4145   15.7333 C   0  0  0  0  0  0  0  0  0  0  0  0
    9.9010   -1.2035   15.1687 Br  0  0  0  0  0  0  0  0  0  0  0  0
   12.1536   -2.6211   16.2310 C   0  0  0  0  0  0  0  0  0  0  0  0
   13.4028   -2.6746   16.8758 C   0  0  0  0  0  0  0  0  0  0  0  0
   13.8185   -3.9913   17.4898 C   0  0  0  0  0  0  0  0  0  0  0  0
   14.2066   -1.5042   16.9699 C   0  0  0  0  0  0  0  0  0  0  0  0
   15.4107   -1.6220   17.6854 N   0  0  0  0  0  0  0  0  0  0  0  0
   16.6888   -0.7182   17.6794 C   0  0  0  0  0  0  0  0  0  0  0  0
   16.9564    0.2132   17.0206 O   0  0  0  0  0  0  0  0  0  0  0  0
   17.6153   -1.2038   18.7934 C   0  0  2  0  0  0  0  0  0  0  0  0
   18.5098   -0.0531   19.3359 C   0  0  0  0  0  0  0  0  0  0  0  0
   19.4487   -0.4784   20.4736 C   0  0  0  0  0  0  0  0  0  0  0  0
   17.6347    1.0914   19.8884 C   0  0  0  0  0  0  0  0  0  0  0  0
   18.4570   -2.6264   18.1301 S   0  0  0  0  0  0  0  0  0  0  0  0
   17.4652   -3.6918   18.1010 O   0  0  0  0  0  0  0  0  0  0  0  0
   19.7010   -2.8494   18.8367 O   0  0  0  0  0  0  0  0  0  0  0  0
   18.8923   -2.2682   16.4425 C   0  0  0  0  0  0  0  0  0  0  0  0
   18.1994   -2.8898   15.3965 C   0  0  0  0  0  0  0  0  0  0  0  0
   18.5592   -2.6156   14.0751 C   0  0  0  0  0  0  0  0  0  0  0  0
   19.6075   -1.7336   13.8120 C   0  0  0  0  0  0  0  0  0  0  0  0
   20.0915   -1.3587   12.0236 Br  0  0  0  0  0  0  0  0  0  0  0  0
   20.3084   -1.1296   14.8561 C   0  0  0  0  0  0  0  0  0  0  0  0
   19.9579   -1.4036   16.1792 C   0  0  0  0  0  0  0  0  0  0  0  0
  1  2  1  0
  2  3  2  0
  3  4  1  0
  4  5  1  0
  4  6  2  0
  6  7  1  0
  7  8  1  0
  7  9  2  0
  9 10  1  0
 10 11  1  0
 11 12  2  0
 11 13  1  0
 13 14  1  6
 14 15  1  0
 14 16  1  0
 13 17  1  0
 17 18  2  0
 17 19  2  0
 17 20  1  0
 20 21  2  0
 21 22  1  0
 22 23  2  0
 23 24  1  0
 23 25  1  0
 25 26  2  0
  9  2  1  0
 26 20  1  0
M  END
>  <ref_mols>  (1006) 
B1396a

>  <gnina_score>  (1006) 
5.544

>  <smina_score_min>  (1006) 
-3.31

>  <ref_pdb>  (1006) 
B1396a

>  <inspiration_score>  (1006) 
None

>  <inchikey>  (1006) 
VSIVHBXYCDBRFY-SFHVURJKSA-N

>  <tags>  (1006) 
BulkDock Fragalysis export,openbind_d68ev3c_c2_elabs_scored,openbind_d68ev3c_c2_elabs_scored_4.5plus,openbind_d68ev3c_c2_elabs,openbind_d68ev3c_c2_elabs_scored_5plus,syndirella_product,openbind_d68ev3c_c2_elabs_scored_top80percent,syndirella_placed

>  <smiles>  (1006) 
Cc1cc(Br)cc(C)c1NC(=O)[C@H](C(C)C)S(=O)(=O)c1ccc(Br)cc1

>  <subsites>  (1006) 
None

>  <rmsd(smina/fragmenstein)>  (1006) 
2.687

>  <alias>  (1006) 
None

>  <energy_score>  (1006) 
-63.574841

>  <HIPPO Pose ID>  (1006) 
95136

>  <distance_score>  (1006) 
0.594679

>  <HIPPO Compound ID>  (1006) 
128996

>  <gnina_score_min>  (1006) 
5.115

>  <name>  (1006) 
P95136

>  <exports>  (1006) 
['/opt/xchem-fragalysis-2/maxwin/BulkDock/OUTPUTS/openbind_d68ev3c_c2_elabs_1LOTQJ3.sdf', '/opt/xchem-fragalysis-2/maxwin/BulkDock/OUTPUTS/openbind_d68ev3c_c2_elabs_1LSYI5W.sdf']

$$$$
P95157
     RDKit          3D

 26 27  0  0  0  0  0  0  0  0999 V2000
   14.4805    1.4122   14.6202 C   0  0  0  0  0  0  0  0  0  0  0  0
   13.7760    1.1230   16.2662 S   0  0  0  0  0  0  0  0  0  0  0  0
   13.3287   -0.6039   16.0792 C   0  0  0  0  0  0  0  0  0  0  0  0
   12.1598   -0.8176   15.3207 C   0  0  0  0  0  0  0  0  0  0  0  0
   11.5581   -2.0671   15.2566 C   0  0  0  0  0  0  0  0  0  0  0  0
   12.0952   -3.1151   15.9884 C   0  0  0  0  0  0  0  0  0  0  0  0
   13.2592   -2.9413   16.7568 C   0  0  0  0  0  0  0  0  0  0  0  0
   13.7685   -4.1309   17.5353 C   0  0  0  0  0  0  0  0  0  0  0  0
   13.9185   -1.6846   16.7733 C   0  0  0  0  0  0  0  0  0  0  0  0
   15.1130   -1.6320   17.5211 N   0  0  0  0  0  0  0  0  0  0  0  0
   16.3199   -0.6405   17.4384 C   0  0  0  0  0  0  0  0  0  0  0  0
   16.5356    0.2321   16.6857 O   0  0  0  0  0  0  0  0  0  0  0  0
   17.2864   -0.9136   18.5878 C   0  0  1  0  0  0  0  0  0  0  0  0
   16.6269   -0.9309   19.9912 C   0  0  0  0  0  0  0  0  0  0  0  0
   15.7709    0.3246   20.2175 C   0  0  0  0  0  0  0  0  0  0  0  0
   17.6636   -1.0138   21.1192 C   0  0  0  0  0  0  0  0  0  0  0  0
   18.2056   -2.3832   18.1902 S   0  0  0  0  0  0  0  0  0  0  0  0
   17.2822   -3.5029   18.2700 O   0  0  0  0  0  0  0  0  0  0  0  0
   19.4325   -2.3910   18.9646 O   0  0  0  0  0  0  0  0  0  0  0  0
   18.7219   -2.2260   16.4928 C   0  0  0  0  0  0  0  0  0  0  0  0
   18.3555   -3.1965   15.5548 C   0  0  0  0  0  0  0  0  0  0  0  0
   18.7942   -3.0712   14.2338 C   0  0  0  0  0  0  0  0  0  0  0  0
   19.5829   -1.9809   13.8628 C   0  0  0  0  0  0  0  0  0  0  0  0
   20.1712   -1.8149   12.0743 Br  0  0  0  0  0  0  0  0  0  0  0  0
   19.9547   -1.0199   14.8025 C   0  0  0  0  0  0  0  0  0  0  0  0
   19.5325   -1.1458   16.1268 C   0  0  0  0  0  0  0  0  0  0  0  0
  1  2  1  0
  2  3  1  0
  3  4  2  0
  4  5  1  0
  5  6  2  0
  6  7  1  0
  7  8  1  0
  7  9  2  0
  9 10  1  0
 10 11  1  0
 11 12  2  0
 11 13  1  0
 13 14  1  1
 14 15  1  0
 14 16  1  0
 13 17  1  0
 17 18  2  0
 17 19  2  0
 17 20  1  0
 20 21  2  0
 21 22  1  0
 22 23  2  0
 23 24  1  0
 23 25  1  0
 25 26  2  0
  9  3  1  0
 26 20  1  0
M  END
>  <ref_mols>  (1007) 
B1396a

>  <gnina_score>  (1007) 
5.083

>  <smina_score_min>  (1007) 
-3.433

>  <ref_pdb>  (1007) 
B1396a

>  <inspiration_score>  (1007) 
None

>  <inchikey>  (1007) 
PCSSKCNUSBDOEA-GOSISDBHSA-N

>  <tags>  (1007) 
BulkDock Fragalysis export,openbind_d68ev3c_c2_elabs_scored,openbind_d68ev3c_c2_elabs_scored_4.5plus,openbind_d68ev3c_c2_elabs,openbind_d68ev3c_c2_elabs_scored_5plus,syndirella_product,openbind_d68ev3c_c2_elabs_scored_top80percent,syndirella_placed

>  <smiles>  (1007) 
CSc1cccc(C)c1NC(=O)[C@@H](C(C)C)S(=O)(=O)c1ccc(Br)cc1

>  <subsites>  (1007) 
None

>  <rmsd(smina/fragmenstein)>  (1007) 
2.002

>  <alias>  (1007) 
None

>  <energy_score>  (1007) 
-56.212515

>  <HIPPO Pose ID>  (1007) 
95157

>  <distance_score>  (1007) 
0.303638

>  <HIPPO Compound ID>  (1007) 
129019

>  <gnina_score_min>  (1007) 
5.065

>  <name>  (1007) 
P95157

>  <exports>  (1007) 
['/opt/xchem-fragalysis-2/maxwin/BulkDock/OUTPUTS/openbind_d68ev3c_c2_elabs_1LOTQJ3.sdf', '/opt/xchem-fragalysis-2/maxwin/BulkDock/OUTPUTS/openbind_d68ev3c_c2_elabs_1LSYI5W.sdf']

$$$$
P95158
     RDKit          3D

 26 27  0  0  0  0  0  0  0  0999 V2000
   14.7899   -5.0562   17.5796 C   0  0  0  0  0  0  0  0  0  0  0  0
   13.7981   -4.0216   18.0748 C   0  0  0  0  0  0  0  0  0  0  0  0
   13.5462   -2.8632   17.1328 C   0  0  0  0  0  0  0  0  0  0  0  0
   12.3313   -2.8162   16.4263 C   0  0  0  0  0  0  0  0  0  0  0  0
   11.9693   -1.6613   15.7315 C   0  0  0  0  0  0  0  0  0  0  0  0
   10.2160   -1.4194   15.1023 Br  0  0  0  0  0  0  0  0  0  0  0  0
   12.8487   -0.5972   15.6117 C   0  0  0  0  0  0  0  0  0  0  0  0
   14.0816   -0.6590   16.2482 C   0  0  0  0  0  0  0  0  0  0  0  0
   14.4238   -1.7644   17.0330 C   0  0  0  0  0  0  0  0  0  0  0  0
   15.6173   -1.7456   17.7503 N   0  0  0  0  0  0  0  0  0  0  0  0
   16.7233   -0.6424   17.8534 C   0  0  0  0  0  0  0  0  0  0  0  0
   16.8302    0.3792   17.2905 O   0  0  0  0  0  0  0  0  0  0  0  0
   17.7296   -1.1068   18.8963 C   0  0  2  0  0  0  0  0  0  0  0  0
   18.5012    0.0695   19.5441 C   0  0  0  0  0  0  0  0  0  0  0  0
   19.0169   -0.2854   20.9450 C   0  0  0  0  0  0  0  0  0  0  0  0
   19.6298    0.6779   18.7148 C   0  0  0  0  0  0  0  0  0  0  0  0
   18.6606   -2.4546   18.2243 S   0  0  0  0  0  0  0  0  0  0  0  0
   17.7776   -3.6108   18.2916 O   0  0  0  0  0  0  0  0  0  0  0  0
   19.9523   -2.5206   18.8773 O   0  0  0  0  0  0  0  0  0  0  0  0
   18.9615   -2.1517   16.4916 C   0  0  0  0  0  0  0  0  0  0  0  0
   18.0724   -2.6481   15.5292 C   0  0  0  0  0  0  0  0  0  0  0  0
   18.3302   -2.4381   14.1716 C   0  0  0  0  0  0  0  0  0  0  0  0
   19.4837   -1.7594   13.7823 C   0  0  0  0  0  0  0  0  0  0  0  0
   19.8290   -1.4698   11.9473 Br  0  0  0  0  0  0  0  0  0  0  0  0
   20.3900   -1.3010   14.7361 C   0  0  0  0  0  0  0  0  0  0  0  0
   20.1372   -1.5109   16.0936 C   0  0  0  0  0  0  0  0  0  0  0  0
  1  2  1  0
  2  3  1  0
  3  4  2  0
  4  5  1  0
  5  6  1  0
  5  7  2  0
  7  8  1  0
  8  9  2  0
  9 10  1  0
 10 11  1  0
 11 12  2  0
 11 13  1  0
 13 14  1  6
 14 15  1  0
 14 16  1  0
 13 17  1  0
 17 18  2  0
 17 19  2  0
 17 20  1  0
 20 21  2  0
 21 22  1  0
 22 23  2  0
 23 24  1  0
 23 25  1  0
 25 26  2  0
  9  3  1  0
 26 20  1  0
M  END
>  <ref_mols>  (1008) 
B1396a

>  <gnina_score>  (1008) 
5.522

>  <smina_score_min>  (1008) 
-2.816

>  <ref_pdb>  (1008) 
B1396a

>  <inspiration_score>  (1008) 
None

>  <inchikey>  (1008) 
CVIOCCVKFKRVCF-SFHVURJKSA-N

>  <tags>  (1008) 
BulkDock Fragalysis export,openbind_d68ev3c_c2_elabs_scored,openbind_d68ev3c_c2_elabs_scored_4.5plus,openbind_d68ev3c_c2_elabs,openbind_d68ev3c_c2_elabs_scored_5plus,syndirella_product,openbind_d68ev3c_c2_elabs_scored_top80percent,syndirella_placed

>  <smiles>  (1008) 
CCc1cc(Br)ccc1NC(=O)[C@H](C(C)C)S(=O)(=O)c1ccc(Br)cc1

>  <subsites>  (1008) 
None

>  <rmsd(smina/fragmenstein)>  (1008) 
2.885

>  <alias>  (1008) 
None

>  <energy_score>  (1008) 
-40.387898

>  <HIPPO Pose ID>  (1008) 
95158

>  <distance_score>  (1008) 
0.686666

>  <HIPPO Compound ID>  (1008) 
129020

>  <gnina_score_min>  (1008) 
5.206

>  <name>  (1008) 
P95158

>  <exports>  (1008) 
['/opt/xchem-fragalysis-2/maxwin/BulkDock/OUTPUTS/openbind_d68ev3c_c2_elabs_1LOTQJ3.sdf', '/opt/xchem-fragalysis-2/maxwin/BulkDock/OUTPUTS/openbind_d68ev3c_c2_elabs_1LSYI5W.sdf']

$$$$
P95165
     RDKit          3D

 26 27  0  0  0  0  0  0  0  0999 V2000
   10.7758   -2.2509   14.6525 C   0  0  0  0  0  0  0  0  0  0  0  0
   11.9128   -2.0274   15.5871 C   0  0  0  0  0  0  0  0  0  0  0  0
   12.4574   -3.0872   16.3032 C   0  0  0  0  0  0  0  0  0  0  0  0
   13.5976   -2.9100   17.1003 C   0  0  0  0  0  0  0  0  0  0  0  0
   14.1337   -4.1280   17.8093 C   0  0  0  0  0  0  0  0  0  0  0  0
   14.2214   -1.6379   17.1646 C   0  0  0  0  0  0  0  0  0  0  0  0
   15.4300   -1.5638   17.8792 N   0  0  0  0  0  0  0  0  0  0  0  0
   16.6437   -0.5974   17.7186 C   0  0  0  0  0  0  0  0  0  0  0  0
   16.7871    0.3309   17.0188 O   0  0  0  0  0  0  0  0  0  0  0  0
   17.7251   -0.9556   18.7244 C   0  0  1  0  0  0  0  0  0  0  0  0
   17.2968   -0.8085   20.2070 C   0  0  0  0  0  0  0  0  0  0  0  0
   18.4245   -0.1534   21.0214 C   0  0  0  0  0  0  0  0  0  0  0  0
   16.8562   -2.0805   20.9372 C   0  0  0  0  0  0  0  0  0  0  0  0
   18.4988   -2.4660   18.2457 S   0  0  0  0  0  0  0  0  0  0  0  0
   19.7503   -2.5809   18.9684 O   0  0  0  0  0  0  0  0  0  0  0  0
   17.4999   -3.5182   18.3310 O   0  0  0  0  0  0  0  0  0  0  0  0
   18.9343   -2.2831   16.5273 C   0  0  0  0  0  0  0  0  0  0  0  0
   19.7799   -1.2363   16.1443 C   0  0  0  0  0  0  0  0  0  0  0  0
   20.1184   -1.0816   14.7989 C   0  0  0  0  0  0  0  0  0  0  0  0
   19.6301   -1.9826   13.8535 C   0  0  0  0  0  0  0  0  0  0  0  0
   20.0993   -1.7757   12.0341 Br  0  0  0  0  0  0  0  0  0  0  0  0
   18.8083   -3.0423   14.2395 C   0  0  0  0  0  0  0  0  0  0  0  0
   18.4507   -3.1938   15.5819 C   0  0  0  0  0  0  0  0  0  0  0  0
   13.6033   -0.5546   16.5118 C   0  0  0  0  0  0  0  0  0  0  0  0
   14.0159    1.2798   16.8053 Br  0  0  0  0  0  0  0  0  0  0  0  0
   12.4782   -0.7619   15.7056 C   0  0  0  0  0  0  0  0  0  0  0  0
  1  2  1  0
  2  3  2  0
  3  4  1  0
  4  5  1  0
  4  6  2  0
  6  7  1  0
  7  8  1  0
  8  9  2  0
  8 10  1  0
 10 11  1  1
 11 12  1  0
 11 13  1  0
 10 14  1  0
 14 15  2  0
 14 16  2  0
 14 17  1  0
 17 18  2  0
 18 19  1  0
 19 20  2  0
 20 21  1  0
 20 22  1  0
 22 23  2  0
  6 24  1  0
 24 25  1  0
 24 26  2  0
 26  2  1  0
 23 17  1  0
M  END
>  <ref_mols>  (1009) 
B1396a

>  <gnina_score>  (1009) 
5.343

>  <smina_score_min>  (1009) 
-3.46

>  <ref_pdb>  (1009) 
B1396a

>  <inspiration_score>  (1009) 
None

>  <inchikey>  (1009) 
ISFSEUDQXGUQFC-GOSISDBHSA-N

>  <tags>  (1009) 
BulkDock Fragalysis export,openbind_d68ev3c_c2_elabs_scored,openbind_d68ev3c_c2_elabs_scored_4.5plus,openbind_d68ev3c_c2_elabs,openbind_d68ev3c_c2_elabs_scored_5plus,syndirella_product,openbind_d68ev3c_c2_elabs_scored_top80percent,syndirella_placed

>  <smiles>  (1009) 
Cc1cc(C)c(NC(=O)[C@@H](C(C)C)S(=O)(=O)c2ccc(Br)cc2)c(Br)c1

>  <subsites>  (1009) 
None

>  <rmsd(smina/fragmenstein)>  (1009) 
2.133

>  <alias>  (1009) 
None

>  <energy_score>  (1009) 
-33.306701

>  <HIPPO Pose ID>  (1009) 
95165

>  <distance_score>  (1009) 
0.525694

>  <HIPPO Compound ID>  (1009) 
129024

>  <gnina_score_min>  (1009) 
5.134

>  <name>  (1009) 
P95165

>  <exports>  (1009) 
['/opt/xchem-fragalysis-2/maxwin/BulkDock/OUTPUTS/openbind_d68ev3c_c2_elabs_1LOTQJ3.sdf', '/opt/xchem-fragalysis-2/maxwin/BulkDock/OUTPUTS/openbind_d68ev3c_c2_elabs_1LSYI5W.sdf']

$$$$
P95167
     RDKit          3D

 26 27  0  0  0  0  0  0  0  0999 V2000
   17.5085    1.1784   19.8470 C   0  0  0  0  0  0  0  0  0  0  0  0
   18.4392    0.0828   19.2856 C   0  0  0  0  0  0  0  0  0  0  0  0
   19.4294   -0.2686   20.4046 C   0  0  0  0  0  0  0  0  0  0  0  0
   17.6032   -1.1259   18.7763 C   0  0  1  0  0  0  0  0  0  0  0  0
   16.6349   -0.7104   17.6656 C   0  0  0  0  0  0  0  0  0  0  0  0
   16.8150    0.2393   17.0053 O   0  0  0  0  0  0  0  0  0  0  0  0
   15.4641   -1.7401   17.6557 N   0  0  0  0  0  0  0  0  0  0  0  0
   14.2835   -1.7542   16.9276 C   0  0  0  0  0  0  0  0  0  0  0  0
   13.9003   -0.6338   16.1865 C   0  0  0  0  0  0  0  0  0  0  0  0
   12.6562   -0.5982   15.5657 C   0  0  0  0  0  0  0  0  0  0  0  0
   11.8173   -1.6994   15.6568 C   0  0  0  0  0  0  0  0  0  0  0  0
   10.2186   -1.5652   15.0635 Cl  0  0  0  0  0  0  0  0  0  0  0  0
   12.2282   -2.8595   16.3119 C   0  0  0  0  0  0  0  0  0  0  0  0
   13.4520   -2.8874   16.9996 C   0  0  0  0  0  0  0  0  0  0  0  0
   13.8334   -4.1385   17.7563 C   0  0  0  0  0  0  0  0  0  0  0  0
   14.4783   -3.8129   18.9855 O   0  0  0  0  0  0  0  0  0  0  0  0
   18.5214   -2.5188   18.1336 S   0  0  0  0  0  0  0  0  0  0  0  0
   17.6069   -3.6512   18.1291 O   0  0  0  0  0  0  0  0  0  0  0  0
   19.7861   -2.6548   18.8267 O   0  0  0  0  0  0  0  0  0  0  0  0
   18.9180   -2.1717   16.4335 C   0  0  0  0  0  0  0  0  0  0  0  0
   18.2529   -2.8571   15.4088 C   0  0  0  0  0  0  0  0  0  0  0  0
   18.5934   -2.6039   14.0784 C   0  0  0  0  0  0  0  0  0  0  0  0
   19.5950   -1.6784   13.7852 C   0  0  0  0  0  0  0  0  0  0  0  0
   20.0543   -1.3325   11.9845 Br  0  0  0  0  0  0  0  0  0  0  0  0
   20.2683   -1.0098   14.8082 C   0  0  0  0  0  0  0  0  0  0  0  0
   19.9372   -1.2626   16.1405 C   0  0  0  0  0  0  0  0  0  0  0  0
  1  2  1  0
  2  3  1  0
  4  2  1  6
  4  5  1  0
  5  6  2  0
  5  7  1  0
  7  8  1  0
  8  9  2  0
  9 10  1  0
 10 11  2  0
 11 12  1  0
 11 13  1  0
 13 14  2  0
 14 15  1  0
 15 16  1  0
  4 17  1  0
 17 18  2  0
 17 19  2  0
 17 20  1  0
 20 21  2  0
 21 22  1  0
 22 23  2  0
 23 24  1  0
 23 25  1  0
 25 26  2  0
 14  8  1  0
 26 20  1  0
M  END
>  <ref_mols>  (1010) 
B1396a

>  <gnina_score>  (1010) 
5.271

>  <smina_score_min>  (1010) 
-3.163

>  <ref_pdb>  (1010) 
B1396a

>  <inspiration_score>  (1010) 
None

>  <inchikey>  (1010) 
GIMZCYKGUIKSMH-KRWDZBQOSA-N

>  <tags>  (1010) 
BulkDock Fragalysis export,openbind_d68ev3c_c2_elabs_scored,openbind_d68ev3c_c2_elabs_scored_4.5plus,openbind_d68ev3c_c2_elabs,openbind_d68ev3c_c2_elabs_scored_5plus,syndirella_product,openbind_d68ev3c_c2_elabs_scored_top80percent,syndirella_placed

>  <smiles>  (1010) 
CC(C)[C@@H](C(=O)Nc1ccc(Cl)cc1CO)S(=O)(=O)c1ccc(Br)cc1

>  <subsites>  (1010) 
None

>  <rmsd(smina/fragmenstein)>  (1010) 
2.132

>  <alias>  (1010) 
None

>  <energy_score>  (1010) 
-53.742417

>  <HIPPO Pose ID>  (1010) 
95167

>  <distance_score>  (1010) 
0.531808

>  <HIPPO Compound ID>  (1010) 
129026

>  <gnina_score_min>  (1010) 
5.066

>  <name>  (1010) 
P95167

>  <exports>  (1010) 
['/opt/xchem-fragalysis-2/maxwin/BulkDock/OUTPUTS/openbind_d68ev3c_c2_elabs_1LOTQJ3.sdf', '/opt/xchem-fragalysis-2/maxwin/BulkDock/OUTPUTS/openbind_d68ev3c_c2_elabs_1LSYI5W.sdf']

$$$$
P95169
     RDKit          3D

 26 27  0  0  0  0  0  0  0  0999 V2000
   13.9602   -4.2025   17.6361 C   0  0  0  0  0  0  0  0  0  0  0  0
   13.4010   -3.0184   16.8843 C   0  0  0  0  0  0  0  0  0  0  0  0
   12.2066   -3.2138   16.1768 C   0  0  0  0  0  0  0  0  0  0  0  0
   11.6353   -2.1746   15.4700 C   0  0  0  0  0  0  0  0  0  0  0  0
   10.4774   -2.3745   14.8326 F   0  0  0  0  0  0  0  0  0  0  0  0
   12.2115   -0.9184   15.4737 C   0  0  0  0  0  0  0  0  0  0  0  0
   13.4030   -0.6804   16.1827 C   0  0  0  0  0  0  0  0  0  0  0  0
   13.8198    1.0575   16.2747 S   0  0  0  0  0  0  0  0  0  0  0  0
   14.0375   -1.7468   16.8670 C   0  0  0  0  0  0  0  0  0  0  0  0
   15.2536   -1.6741   17.5766 N   0  0  0  0  0  0  0  0  0  0  0  0
   16.4093   -0.6255   17.5041 C   0  0  0  0  0  0  0  0  0  0  0  0
   16.5586    0.2915   16.7893 O   0  0  0  0  0  0  0  0  0  0  0  0
   17.4154   -0.9012   18.6196 C   0  0  1  0  0  0  0  0  0  0  0  0
   16.7842   -0.9245   20.0361 C   0  0  0  0  0  0  0  0  0  0  0  0
   15.9388    0.3335   20.2868 C   0  0  0  0  0  0  0  0  0  0  0  0
   17.8421   -1.0210   21.1426 C   0  0  0  0  0  0  0  0  0  0  0  0
   18.3173   -2.3744   18.1972 S   0  0  0  0  0  0  0  0  0  0  0  0
   17.3838   -3.4845   18.2960 O   0  0  0  0  0  0  0  0  0  0  0  0
   19.5615   -2.3909   18.9415 O   0  0  0  0  0  0  0  0  0  0  0  0
   18.7877   -2.2132   16.4877 C   0  0  0  0  0  0  0  0  0  0  0  0
   18.4045   -3.1873   15.5600 C   0  0  0  0  0  0  0  0  0  0  0  0
   18.8065   -3.0590   14.2278 C   0  0  0  0  0  0  0  0  0  0  0  0
   19.5753   -1.9619   13.8357 C   0  0  0  0  0  0  0  0  0  0  0  0
   20.1156   -1.7924   12.0325 Br  0  0  0  0  0  0  0  0  0  0  0  0
   19.9628   -0.9967   14.7648 C   0  0  0  0  0  0  0  0  0  0  0  0
   19.5774   -1.1253   16.1000 C   0  0  0  0  0  0  0  0  0  0  0  0
  1  2  1  0
  2  3  2  0
  3  4  1  0
  4  5  1  0
  4  6  2  0
  6  7  1  0
  7  8  1  0
  7  9  2  0
  9 10  1  0
 10 11  1  0
 11 12  2  0
 11 13  1  0
 13 14  1  1
 14 15  1  0
 14 16  1  0
 13 17  1  0
 17 18  2  0
 17 19  2  0
 17 20  1  0
 20 21  2  0
 21 22  1  0
 22 23  2  0
 23 24  1  0
 23 25  1  0
 25 26  2  0
  9  2  1  0
 26 20  1  0
M  END
>  <ref_mols>  (1011) 
B1396a

>  <gnina_score>  (1011) 
5.366

>  <smina_score_min>  (1011) 
-3.618

>  <ref_pdb>  (1011) 
B1396a

>  <inspiration_score>  (1011) 
None

>  <inchikey>  (1011) 
ILJOQXWRJNDNKM-QGZVFWFLSA-N

>  <tags>  (1011) 
BulkDock Fragalysis export,openbind_d68ev3c_c2_elabs_scored,openbind_d68ev3c_c2_elabs_scored_4.5plus,openbind_d68ev3c_c2_elabs,openbind_d68ev3c_c2_elabs_scored_5plus,syndirella_product,openbind_d68ev3c_c2_elabs_scored_top80percent,syndirella_placed

>  <smiles>  (1011) 
Cc1cc(F)cc(S)c1NC(=O)[C@@H](C(C)C)S(=O)(=O)c1ccc(Br)cc1

>  <subsites>  (1011) 
None

>  <rmsd(smina/fragmenstein)>  (1011) 
1.729

>  <alias>  (1011) 
None

>  <energy_score>  (1011) 
-46.103903

>  <HIPPO Pose ID>  (1011) 
95169

>  <distance_score>  (1011) 
0.334123

>  <HIPPO Compound ID>  (1011) 
129027

>  <gnina_score_min>  (1011) 
5.292

>  <name>  (1011) 
P95169

>  <exports>  (1011) 
['/opt/xchem-fragalysis-2/maxwin/BulkDock/OUTPUTS/openbind_d68ev3c_c2_elabs_1LOTQJ3.sdf', '/opt/xchem-fragalysis-2/maxwin/BulkDock/OUTPUTS/openbind_d68ev3c_c2_elabs_1LSYI5W.sdf']

$$$$
P95171
     RDKit          3D

 26 27  0  0  0  0  0  0  0  0999 V2000
   13.8022   -4.1276   17.4727 C   0  0  0  0  0  0  0  0  0  0  0  0
   13.4266   -2.8654   16.7415 C   0  0  0  0  0  0  0  0  0  0  0  0
   12.1472   -2.7724   16.1618 C   0  0  0  0  0  0  0  0  0  0  0  0
   11.7006   -1.5686   15.6014 C   0  0  0  0  0  0  0  0  0  0  0  0
   10.3090   -1.3538   15.3404 C   0  0  0  0  0  0  0  0  0  0  0  0
    9.1720   -1.1222   15.3564 N   0  0  0  0  0  0  0  0  0  0  0  0
   12.5722   -0.4885   15.5033 C   0  0  0  0  0  0  0  0  0  0  0  0
   13.8536   -0.5805   16.0437 C   0  0  0  0  0  0  0  0  0  0  0  0
   14.2691   -1.7403   16.7046 C   0  0  0  0  0  0  0  0  0  0  0  0
   15.4859   -1.7452   17.3868 N   0  0  0  0  0  0  0  0  0  0  0  0
   16.5081   -0.5944   17.6431 C   0  0  0  0  0  0  0  0  0  0  0  0
   16.5196    0.5115   17.2542 O   0  0  0  0  0  0  0  0  0  0  0  0
   17.5696   -1.0371   18.6412 C   0  0  1  0  0  0  0  0  0  0  0  0
   17.1299   -1.0388   20.1259 C   0  0  0  0  0  0  0  0  0  0  0  0
   15.9326   -1.9219   20.4823 C   0  0  0  0  0  0  0  0  0  0  0  0
   16.8484    0.3931   20.6027 C   0  0  0  0  0  0  0  0  0  0  0  0
   18.3888   -2.5165   18.1267 S   0  0  0  0  0  0  0  0  0  0  0  0
   17.4082   -3.5893   18.1445 O   0  0  0  0  0  0  0  0  0  0  0  0
   19.6228   -2.6331   18.8788 O   0  0  0  0  0  0  0  0  0  0  0  0
   18.8606   -2.2564   16.4303 C   0  0  0  0  0  0  0  0  0  0  0  0
   18.4048   -3.1312   15.4379 C   0  0  0  0  0  0  0  0  0  0  0  0
   18.7888   -2.9233   14.1109 C   0  0  0  0  0  0  0  0  0  0  0  0
   19.6169   -1.8475   13.7889 C   0  0  0  0  0  0  0  0  0  0  0  0
   20.1340   -1.5668   11.9927 Br  0  0  0  0  0  0  0  0  0  0  0  0
   20.0788   -0.9832   14.7818 C   0  0  0  0  0  0  0  0  0  0  0  0
   19.7077   -1.1906   16.1113 C   0  0  0  0  0  0  0  0  0  0  0  0
  1  2  1  0
  2  3  2  0
  3  4  1  0
  4  5  1  0
  5  6  3  0
  4  7  2  0
  7  8  1  0
  8  9  2  0
  9 10  1  0
 10 11  1  0
 11 12  2  0
 11 13  1  0
 13 14  1  1
 14 15  1  0
 14 16  1  0
 13 17  1  0
 17 18  2  0
 17 19  2  0
 17 20  1  0
 20 21  2  0
 21 22  1  0
 22 23  2  0
 23 24  1  0
 23 25  1  0
 25 26  2  0
  9  2  1  0
 26 20  1  0
M  END
>  <ref_mols>  (1012) 
B1396a

>  <gnina_score>  (1012) 
5.189

>  <smina_score_min>  (1012) 
-3.341

>  <ref_pdb>  (1012) 
B1396a

>  <inspiration_score>  (1012) 
None

>  <inchikey>  (1012) 
PMBWIVRIKZTMLY-GOSISDBHSA-N

>  <tags>  (1012) 
BulkDock Fragalysis export,openbind_d68ev3c_c2_elabs_scored,openbind_d68ev3c_c2_elabs_scored_4.5plus,openbind_d68ev3c_c2_elabs,openbind_d68ev3c_c2_elabs_scored_5plus,syndirella_product,openbind_d68ev3c_c2_elabs_scored_top80percent,syndirella_placed

>  <smiles>  (1012) 
Cc1cc(C#N)ccc1NC(=O)[C@@H](C(C)C)S(=O)(=O)c1ccc(Br)cc1

>  <subsites>  (1012) 
None

>  <rmsd(smina/fragmenstein)>  (1012) 
1.762

>  <alias>  (1012) 
None

>  <energy_score>  (1012) 
-49.831529

>  <HIPPO Pose ID>  (1012) 
95171

>  <distance_score>  (1012) 
0.526768

>  <HIPPO Compound ID>  (1012) 
129028

>  <gnina_score_min>  (1012) 
5.05

>  <name>  (1012) 
P95171

>  <exports>  (1012) 
['/opt/xchem-fragalysis-2/maxwin/BulkDock/OUTPUTS/openbind_d68ev3c_c2_elabs_1LOTQJ3.sdf', '/opt/xchem-fragalysis-2/maxwin/BulkDock/OUTPUTS/openbind_d68ev3c_c2_elabs_1LSYI5W.sdf']

$$$$
P95172
     RDKit          3D

 26 28  0  0  0  0  0  0  0  0999 V2000
   13.9681   -4.1466   17.7124 C   0  0  0  0  0  0  0  0  0  0  0  0
   13.4064   -2.9842   16.9317 C   0  0  0  0  0  0  0  0  0  0  0  0
   12.2411   -3.2200   16.1871 C   0  0  0  0  0  0  0  0  0  0  0  0
   11.6697   -2.2088   15.4409 C   0  0  0  0  0  0  0  0  0  0  0  0
   10.5446   -2.4523   14.7614 F   0  0  0  0  0  0  0  0  0  0  0  0
   12.2150   -0.9392   15.4404 C   0  0  0  0  0  0  0  0  0  0  0  0
   13.3739   -0.6601   16.1870 C   0  0  0  0  0  0  0  0  0  0  0  0
   13.7471    1.0889   16.2639 S   0  0  0  0  0  0  0  0  0  0  0  0
   14.0104   -1.6975   16.9148 C   0  0  0  0  0  0  0  0  0  0  0  0
   15.1883   -1.5556   17.6804 N   0  0  0  0  0  0  0  0  0  0  0  0
   16.3665   -0.5314   17.5527 C   0  0  0  0  0  0  0  0  0  0  0  0
   16.4955    0.3929   16.8427 O   0  0  0  0  0  0  0  0  0  0  0  0
   17.4242   -0.8473   18.6315 C   0  0  0  0  0  0  0  0  0  0  0  0
   18.2702   -2.3541   18.1309 S   0  0  0  0  0  0  0  0  0  0  0  0
   19.5066   -2.4699   18.8825 O   0  0  0  0  0  0  0  0  0  0  0  0
   17.2992   -3.4355   18.1956 O   0  0  0  0  0  0  0  0  0  0  0  0
   18.7190   -2.1529   16.4191 C   0  0  0  0  0  0  0  0  0  0  0  0
   19.9398   -1.5554   16.0932 C   0  0  0  0  0  0  0  0  0  0  0  0
   20.2967   -1.4029   14.7538 C   0  0  0  0  0  0  0  0  0  0  0  0
   19.4490   -1.8656   13.7485 C   0  0  0  0  0  0  0  0  0  0  0  0
   18.2464   -2.4916   14.0772 C   0  0  0  0  0  0  0  0  0  0  0  0
   17.8809   -2.6495   15.4150 C   0  0  0  0  0  0  0  0  0  0  0  0
   16.8119   -1.0031   20.0520 C   0  0  0  0  0  0  0  0  0  0  0  0
   17.4185    0.0959   20.9196 C   0  0  0  0  0  0  0  0  0  0  0  0
   18.7556    0.3844   20.2750 C   0  0  0  0  0  0  0  0  0  0  0  0
   18.4270    0.3270   18.7909 C   0  0  0  0  0  0  0  0  0  0  0  0
  1  2  1  0
  2  3  2  0
  3  4  1  0
  4  5  1  0
  4  6  2  0
  6  7  1  0
  7  8  1  0
  7  9  2  0
  9 10  1  0
 10 11  1  0
 11 12  2  0
 11 13  1  0
 13 14  1  0
 14 15  2  0
 14 16  2  0
 14 17  1  0
 17 18  2  0
 18 19  1  0
 19 20  2  0
 20 21  1  0
 21 22  2  0
 13 23  1  0
 23 24  1  0
 24 25  1  0
 25 26  1  0
  9  2  1  0
 26 13  1  0
 22 17  1  0
M  END
>  <ref_mols>  (1013) 
B1396a

>  <gnina_score>  (1013) 
5.189

>  <smina_score_min>  (1013) 
-3.815

>  <ref_pdb>  (1013) 
B1396a

>  <inspiration_score>  (1013) 
None

>  <inchikey>  (1013) 
FBYYFMGCSAVBCT-UHFFFAOYSA-N

>  <tags>  (1013) 
BulkDock Fragalysis export,openbind_d68ev3c_c2_elabs_scored,openbind_d68ev3c_c2_elabs_scored_4.5plus,openbind_d68ev3c_c2_elabs,openbind_d68ev3c_c2_elabs_scored_5plus,syndirella_product,openbind_d68ev3c_c2_elabs_scored_top80percent,syndirella_placed

>  <smiles>  (1013) 
Cc1cc(F)cc(S)c1NC(=O)C1(S(=O)(=O)c2ccccc2)CCCC1

>  <subsites>  (1013) 
None

>  <rmsd(smina/fragmenstein)>  (1013) 
1.478

>  <alias>  (1013) 
None

>  <energy_score>  (1013) 
-36.863635

>  <HIPPO Pose ID>  (1013) 
95172

>  <distance_score>  (1013) 
0.421148

>  <HIPPO Compound ID>  (1013) 
129029

>  <gnina_score_min>  (1013) 
5.103

>  <name>  (1013) 
P95172

>  <exports>  (1013) 
['/opt/xchem-fragalysis-2/maxwin/BulkDock/OUTPUTS/openbind_d68ev3c_c2_elabs_1LOTQJ3.sdf', '/opt/xchem-fragalysis-2/maxwin/BulkDock/OUTPUTS/openbind_d68ev3c_c2_elabs_1LSYI5W.sdf']

$$$$
P95182
     RDKit          3D

 26 27  0  0  0  0  0  0  0  0999 V2000
   16.0847   -1.9672   20.6341 C   0  0  0  0  0  0  0  0  0  0  0  0
   17.2667   -1.0710   20.2594 C   0  0  0  0  0  0  0  0  0  0  0  0
   16.9989    0.3470   20.7835 C   0  0  0  0  0  0  0  0  0  0  0  0
   17.6513   -1.0291   18.7600 C   0  0  2  0  0  0  0  0  0  0  0  0
   16.5455   -0.5766   17.8156 C   0  0  0  0  0  0  0  0  0  0  0  0
   16.5244    0.5413   17.4629 O   0  0  0  0  0  0  0  0  0  0  0  0
   15.5368   -1.7387   17.5531 N   0  0  0  0  0  0  0  0  0  0  0  0
   14.2949   -1.7354   16.9066 C   0  0  0  0  0  0  0  0  0  0  0  0
   13.8422   -0.5582   16.3018 C   0  0  0  0  0  0  0  0  0  0  0  0
   12.5816   -0.5013   15.7113 C   0  0  0  0  0  0  0  0  0  0  0  0
   11.7728   -1.6288   15.7062 C   0  0  0  0  0  0  0  0  0  0  0  0
   10.1692   -1.4806   15.1271 Cl  0  0  0  0  0  0  0  0  0  0  0  0
   12.2255   -2.8300   16.2462 C   0  0  0  0  0  0  0  0  0  0  0  0
   13.4800   -2.8814   16.8707 C   0  0  0  0  0  0  0  0  0  0  0  0
   13.8934   -4.1122   17.4754 C   0  0  0  0  0  0  0  0  0  0  0  0
   14.2641   -5.1025   17.9485 N   0  0  0  0  0  0  0  0  0  0  0  0
   18.4638   -2.4877   18.1817 S   0  0  0  0  0  0  0  0  0  0  0  0
   17.4865   -3.5611   18.2102 O   0  0  0  0  0  0  0  0  0  0  0  0
   19.7249   -2.6095   18.8853 O   0  0  0  0  0  0  0  0  0  0  0  0
   18.8725   -2.2044   16.4726 C   0  0  0  0  0  0  0  0  0  0  0  0
   19.6525   -1.0981   16.1244 C   0  0  0  0  0  0  0  0  0  0  0  0
   19.9808   -0.8852   14.7841 C   0  0  0  0  0  0  0  0  0  0  0  0
   19.5435   -1.7827   13.8095 C   0  0  0  0  0  0  0  0  0  0  0  0
   20.0039   -1.4927   11.9995 Br  0  0  0  0  0  0  0  0  0  0  0  0
   18.7819   -2.8977   14.1600 C   0  0  0  0  0  0  0  0  0  0  0  0
   18.4404   -3.1117   15.4974 C   0  0  0  0  0  0  0  0  0  0  0  0
  1  2  1  0
  2  3  1  0
  4  2  1  1
  4  5  1  0
  5  6  2  0
  5  7  1  0
  7  8  1  0
  8  9  2  0
  9 10  1  0
 10 11  2  0
 11 12  1  0
 11 13  1  0
 13 14  2  0
 14 15  1  0
 15 16  3  0
  4 17  1  0
 17 18  2  0
 17 19  2  0
 17 20  1  0
 20 21  2  0
 21 22  1  0
 22 23  2  0
 23 24  1  0
 23 25  1  0
 25 26  2  0
 14  8  1  0
 26 20  1  0
M  END
>  <ref_mols>  (1014) 
B1396a

>  <gnina_score>  (1014) 
5.609

>  <smina_score_min>  (1014) 
-2.978

>  <ref_pdb>  (1014) 
B1396a

>  <inspiration_score>  (1014) 
None

>  <inchikey>  (1014) 
DLNCKTHMYLHJPN-QGZVFWFLSA-N

>  <tags>  (1014) 
BulkDock Fragalysis export,openbind_d68ev3c_c2_elabs_scored,openbind_d68ev3c_c2_elabs_scored_4.5plus,openbind_d68ev3c_c2_elabs,openbind_d68ev3c_c2_elabs_scored_5plus,syndirella_product,openbind_d68ev3c_c2_elabs_scored_top80percent,syndirella_placed

>  <smiles>  (1014) 
CC(C)[C@H](C(=O)Nc1ccc(Cl)cc1C#N)S(=O)(=O)c1ccc(Br)cc1

>  <subsites>  (1014) 
None

>  <rmsd(smina/fragmenstein)>  (1014) 
1.481

>  <alias>  (1014) 
None

>  <energy_score>  (1014) 
-41.131055

>  <HIPPO Pose ID>  (1014) 
95182

>  <distance_score>  (1014) 
0.574248

>  <HIPPO Compound ID>  (1014) 
129041

>  <gnina_score_min>  (1014) 
5.332

>  <name>  (1014) 
P95182

>  <exports>  (1014) 
['/opt/xchem-fragalysis-2/maxwin/BulkDock/OUTPUTS/openbind_d68ev3c_c2_elabs_1LOTQJ3.sdf', '/opt/xchem-fragalysis-2/maxwin/BulkDock/OUTPUTS/openbind_d68ev3c_c2_elabs_1LSYI5W.sdf']

$$$$
P95185
     RDKit          3D

 26 27  0  0  0  0  0  0  0  0999 V2000
   13.8683   -4.0593   17.4817 C   0  0  0  0  0  0  0  0  0  0  0  0
   13.5101   -2.7484   16.8368 C   0  0  0  0  0  0  0  0  0  0  0  0
   14.3553   -1.6269   16.8829 C   0  0  0  0  0  0  0  0  0  0  0  0
   15.5827   -1.6877   17.5425 N   0  0  0  0  0  0  0  0  0  0  0  0
   16.6271   -0.5678   17.8448 C   0  0  0  0  0  0  0  0  0  0  0  0
   16.6494    0.5580   17.5179 O   0  0  0  0  0  0  0  0  0  0  0  0
   17.6974   -1.0813   18.7978 C   0  0  1  0  0  0  0  0  0  0  0  0
   17.2312   -1.0787   20.2753 C   0  0  0  0  0  0  0  0  0  0  0  0
   16.2720   -2.1928   20.6980 C   0  0  0  0  0  0  0  0  0  0  0  0
   18.4219   -1.0518   21.2429 C   0  0  0  0  0  0  0  0  0  0  0  0
   18.4609   -2.5525   18.1964 S   0  0  0  0  0  0  0  0  0  0  0  0
   19.7236   -2.7300   18.8843 O   0  0  0  0  0  0  0  0  0  0  0  0
   17.4538   -3.6009   18.2065 O   0  0  0  0  0  0  0  0  0  0  0  0
   18.8754   -2.2448   16.4907 C   0  0  0  0  0  0  0  0  0  0  0  0
   19.7095   -1.1692   16.1706 C   0  0  0  0  0  0  0  0  0  0  0  0
   20.0434   -0.9331   14.8357 C   0  0  0  0  0  0  0  0  0  0  0  0
   19.5580   -1.7783   13.8377 C   0  0  0  0  0  0  0  0  0  0  0  0
   20.0254   -1.4586   12.0346 Br  0  0  0  0  0  0  0  0  0  0  0  0
   18.7418   -2.8630   14.1596 C   0  0  0  0  0  0  0  0  0  0  0  0
   18.3945   -3.0997   15.4920 C   0  0  0  0  0  0  0  0  0  0  0  0
   13.9507   -0.4204   16.2995 C   0  0  0  0  0  0  0  0  0  0  0  0
   12.6857   -0.2874   15.7343 C   0  0  0  0  0  0  0  0  0  0  0  0
   11.8252   -1.3735   15.7312 C   0  0  0  0  0  0  0  0  0  0  0  0
   10.0414   -1.0820   15.1970 Br  0  0  0  0  0  0  0  0  0  0  0  0
   12.2539   -2.6028   16.2305 C   0  0  0  0  0  0  0  0  0  0  0  0
   11.4310   -3.6575   16.1833 F   0  0  0  0  0  0  0  0  0  0  0  0
  1  2  1  0
  2  3  2  0
  3  4  1  0
  4  5  1  0
  5  6  2  0
  5  7  1  0
  7  8  1  1
  8  9  1  0
  8 10  1  0
  7 11  1  0
 11 12  2  0
 11 13  2  0
 11 14  1  0
 14 15  2  0
 15 16  1  0
 16 17  2  0
 17 18  1  0
 17 19  1  0
 19 20  2  0
  3 21  1  0
 21 22  2  0
 22 23  1  0
 23 24  1  0
 23 25  2  0
 25 26  1  0
 25  2  1  0
 20 14  1  0
M  END
>  <ref_mols>  (1015) 
B1396a

>  <gnina_score>  (1015) 
5.519

>  <smina_score_min>  (1015) 
-3.429

>  <ref_pdb>  (1015) 
B1396a

>  <inspiration_score>  (1015) 
None

>  <inchikey>  (1015) 
SAFRAYGOJGIZOP-QGZVFWFLSA-N

>  <tags>  (1015) 
BulkDock Fragalysis export,openbind_d68ev3c_c2_elabs_scored,openbind_d68ev3c_c2_elabs_scored_4.5plus,openbind_d68ev3c_c2_elabs,openbind_d68ev3c_c2_elabs_scored_5plus,syndirella_product,openbind_d68ev3c_c2_elabs_scored_top80percent,syndirella_placed

>  <smiles>  (1015) 
Cc1c(NC(=O)[C@@H](C(C)C)S(=O)(=O)c2ccc(Br)cc2)ccc(Br)c1F

>  <subsites>  (1015) 
None

>  <rmsd(smina/fragmenstein)>  (1015) 
2.326

>  <alias>  (1015) 
None

>  <energy_score>  (1015) 
-36.481031

>  <HIPPO Pose ID>  (1015) 
95185

>  <distance_score>  (1015) 
0.658138

>  <HIPPO Compound ID>  (1015) 
129043

>  <gnina_score_min>  (1015) 
5.184

>  <name>  (1015) 
P95185

>  <exports>  (1015) 
['/opt/xchem-fragalysis-2/maxwin/BulkDock/OUTPUTS/openbind_d68ev3c_c2_elabs_1LOTQJ3.sdf', '/opt/xchem-fragalysis-2/maxwin/BulkDock/OUTPUTS/openbind_d68ev3c_c2_elabs_1LSYI5W.sdf']

$$$$
P95189
     RDKit          3D

 26 27  0  0  0  0  0  0  0  0999 V2000
   10.7795   -2.1489   14.6484 C   0  0  0  0  0  0  0  0  0  0  0  0
   11.9356   -2.0019   15.5755 C   0  0  0  0  0  0  0  0  0  0  0  0
   12.4194   -3.0980   16.2906 C   0  0  0  0  0  0  0  0  0  0  0  0
   13.5778   -2.9969   17.0780 C   0  0  0  0  0  0  0  0  0  0  0  0
   14.0457   -4.2272   17.8079 C   0  0  0  0  0  0  0  0  0  0  0  0
   14.2700   -1.7688   17.1328 C   0  0  0  0  0  0  0  0  0  0  0  0
   15.4585   -1.6982   17.8727 N   0  0  0  0  0  0  0  0  0  0  0  0
   16.5412   -0.5768   17.9455 C   0  0  0  0  0  0  0  0  0  0  0  0
   16.5646    0.4885   17.4583 O   0  0  0  0  0  0  0  0  0  0  0  0
   17.6711   -0.9975   18.8708 C   0  0  1  0  0  0  0  0  0  0  0  0
   17.3543   -0.9972   20.3852 C   0  0  0  0  0  0  0  0  0  0  0  0
   17.0193    0.4233   20.8608 C   0  0  0  0  0  0  0  0  0  0  0  0
   16.2585   -1.9513   20.8630 C   0  0  0  0  0  0  0  0  0  0  0  0
   18.4555   -2.4698   18.2824 S   0  0  0  0  0  0  0  0  0  0  0  0
   19.7291   -2.6034   18.9622 O   0  0  0  0  0  0  0  0  0  0  0  0
   17.4750   -3.5417   18.3393 O   0  0  0  0  0  0  0  0  0  0  0  0
   18.8403   -2.2021   16.5635 C   0  0  0  0  0  0  0  0  0  0  0  0
   18.3941   -3.1152   15.6008 C   0  0  0  0  0  0  0  0  0  0  0  0
   18.7292   -2.9178   14.2587 C   0  0  0  0  0  0  0  0  0  0  0  0
   19.4934   -1.8108   13.8893 C   0  0  0  0  0  0  0  0  0  0  0  0
   19.9351   -1.5416   12.0714 Br  0  0  0  0  0  0  0  0  0  0  0  0
   19.9433   -0.9061   14.8507 C   0  0  0  0  0  0  0  0  0  0  0  0
   19.6252   -1.1049   16.1960 C   0  0  0  0  0  0  0  0  0  0  0  0
   13.7483   -0.6707   16.4372 C   0  0  0  0  0  0  0  0  0  0  0  0
   14.3155    0.5390   16.4973 F   0  0  0  0  0  0  0  0  0  0  0  0
   12.6017   -0.7836   15.6602 C   0  0  0  0  0  0  0  0  0  0  0  0
  1  2  1  0
  2  3  2  0
  3  4  1  0
  4  5  1  0
  4  6  2  0
  6  7  1  0
  7  8  1  0
  8  9  2  0
  8 10  1  0
 10 11  1  1
 11 12  1  0
 11 13  1  0
 10 14  1  0
 14 15  2  0
 14 16  2  0
 14 17  1  0
 17 18  2  0
 18 19  1  0
 19 20  2  0
 20 21  1  0
 20 22  1  0
 22 23  2  0
  6 24  1  0
 24 25  1  0
 24 26  2  0
 26  2  1  0
 23 17  1  0
M  END
>  <ref_mols>  (1016) 
B1396a

>  <gnina_score>  (1016) 
5.277

>  <smina_score_min>  (1016) 
-3.453

>  <ref_pdb>  (1016) 
B1396a

>  <inspiration_score>  (1016) 
None

>  <inchikey>  (1016) 
SVAJKSGQQWTHGG-GOSISDBHSA-N

>  <tags>  (1016) 
BulkDock Fragalysis export,openbind_d68ev3c_c2_elabs_scored,openbind_d68ev3c_c2_elabs_scored_4.5plus,openbind_d68ev3c_c2_elabs,openbind_d68ev3c_c2_elabs_scored_5plus,syndirella_product,openbind_d68ev3c_c2_elabs_scored_top80percent,syndirella_placed

>  <smiles>  (1016) 
Cc1cc(C)c(NC(=O)[C@@H](C(C)C)S(=O)(=O)c2ccc(Br)cc2)c(F)c1

>  <subsites>  (1016) 
None

>  <rmsd(smina/fragmenstein)>  (1016) 
2.262

>  <alias>  (1016) 
None

>  <energy_score>  (1016) 
-30.974262

>  <HIPPO Pose ID>  (1016) 
95189

>  <distance_score>  (1016) 
0.570621

>  <HIPPO Compound ID>  (1016) 
129045

>  <gnina_score_min>  (1016) 
5.087

>  <name>  (1016) 
P95189

>  <exports>  (1016) 
['/opt/xchem-fragalysis-2/maxwin/BulkDock/OUTPUTS/openbind_d68ev3c_c2_elabs_1LOTQJ3.sdf', '/opt/xchem-fragalysis-2/maxwin/BulkDock/OUTPUTS/openbind_d68ev3c_c2_elabs_1LSYI5W.sdf']

$$$$
P95191
     RDKit          3D

 26 27  0  0  0  0  0  0  0  0999 V2000
   13.8122   -4.0240   17.5406 C   0  0  0  0  0  0  0  0  0  0  0  0
   13.3494   -2.7931   16.8038 C   0  0  0  0  0  0  0  0  0  0  0  0
   12.2220   -2.8991   15.9762 C   0  0  0  0  0  0  0  0  0  0  0  0
   11.5967   -4.0716   15.8543 F   0  0  0  0  0  0  0  0  0  0  0  0
   11.7122   -1.8213   15.2714 C   0  0  0  0  0  0  0  0  0  0  0  0
   12.3184   -0.5836   15.4151 C   0  0  0  0  0  0  0  0  0  0  0  0
   13.4483   -0.4352   16.2360 C   0  0  0  0  0  0  0  0  0  0  0  0
   13.9190    1.2035   16.5157 Cl  0  0  0  0  0  0  0  0  0  0  0  0
   14.0124   -1.5471   16.9008 C   0  0  0  0  0  0  0  0  0  0  0  0
   15.1781   -1.5034   17.6933 N   0  0  0  0  0  0  0  0  0  0  0  0
   16.4146   -0.5471   17.6287 C   0  0  0  0  0  0  0  0  0  0  0  0
   16.6125    0.3936   16.9580 O   0  0  0  0  0  0  0  0  0  0  0  0
   17.4174   -0.9300   18.7130 C   0  0  1  0  0  0  0  0  0  0  0  0
   16.8062   -0.9923   20.1377 C   0  0  0  0  0  0  0  0  0  0  0  0
   17.8716   -1.2017   21.2213 C   0  0  0  0  0  0  0  0  0  0  0  0
   16.0343    0.2951   20.4658 C   0  0  0  0  0  0  0  0  0  0  0  0
   18.2493   -2.4134   18.2064 S   0  0  0  0  0  0  0  0  0  0  0  0
   17.2708   -3.4871   18.2646 O   0  0  0  0  0  0  0  0  0  0  0  0
   19.4984   -2.5173   18.9362 O   0  0  0  0  0  0  0  0  0  0  0  0
   18.7185   -2.2058   16.5016 C   0  0  0  0  0  0  0  0  0  0  0  0
   18.3508   -3.1682   15.5550 C   0  0  0  0  0  0  0  0  0  0  0  0
   18.7622   -3.0164   14.2280 C   0  0  0  0  0  0  0  0  0  0  0  0
   19.5244   -1.9072   13.8588 C   0  0  0  0  0  0  0  0  0  0  0  0
   20.0779   -1.7059   12.0628 Br  0  0  0  0  0  0  0  0  0  0  0  0
   19.8953   -0.9530   14.8056 C   0  0  0  0  0  0  0  0  0  0  0  0
   19.5009   -1.1054   16.1361 C   0  0  0  0  0  0  0  0  0  0  0  0
  1  2  1  0
  2  3  2  0
  3  4  1  0
  3  5  1  0
  5  6  2  0
  6  7  1  0
  7  8  1  0
  7  9  2  0
  9 10  1  0
 10 11  1  0
 11 12  2  0
 11 13  1  0
 13 14  1  1
 14 15  1  0
 14 16  1  0
 13 17  1  0
 17 18  2  0
 17 19  2  0
 17 20  1  0
 20 21  2  0
 21 22  1  0
 22 23  2  0
 23 24  1  0
 23 25  1  0
 25 26  2  0
  9  2  1  0
 26 20  1  0
M  END
>  <ref_mols>  (1017) 
B1396a

>  <gnina_score>  (1017) 
5.33

>  <smina_score_min>  (1017) 
-3.727

>  <ref_pdb>  (1017) 
B1396a

>  <inspiration_score>  (1017) 
None

>  <inchikey>  (1017) 
VKWGRLGZXJBDKT-QGZVFWFLSA-N

>  <tags>  (1017) 
BulkDock Fragalysis export,openbind_d68ev3c_c2_elabs_scored,openbind_d68ev3c_c2_elabs_scored_4.5plus,openbind_d68ev3c_c2_elabs,openbind_d68ev3c_c2_elabs_scored_5plus,syndirella_product,openbind_d68ev3c_c2_elabs_scored_top80percent,syndirella_placed

>  <smiles>  (1017) 
Cc1c(F)ccc(Cl)c1NC(=O)[C@@H](C(C)C)S(=O)(=O)c1ccc(Br)cc1

>  <subsites>  (1017) 
None

>  <rmsd(smina/fragmenstein)>  (1017) 
1.914

>  <alias>  (1017) 
None

>  <energy_score>  (1017) 
-53.903786

>  <HIPPO Pose ID>  (1017) 
95191

>  <distance_score>  (1017) 
0.429773

>  <HIPPO Compound ID>  (1017) 
129046

>  <gnina_score_min>  (1017) 
5.283

>  <name>  (1017) 
P95191

>  <exports>  (1017) 
['/opt/xchem-fragalysis-2/maxwin/BulkDock/OUTPUTS/openbind_d68ev3c_c2_elabs_1LOTQJ3.sdf', '/opt/xchem-fragalysis-2/maxwin/BulkDock/OUTPUTS/openbind_d68ev3c_c2_elabs_1LSYI5W.sdf']

$$$$
P95199
     RDKit          3D

 26 27  0  0  0  0  0  0  0  0999 V2000
   13.7898   -4.1043   17.5250 C   0  0  0  0  0  0  0  0  0  0  0  0
   13.2637   -2.9101   16.7638 C   0  0  0  0  0  0  0  0  0  0  0  0
   12.0983   -3.0873   15.9960 C   0  0  0  0  0  0  0  0  0  0  0  0
   11.5536   -2.0342   15.2755 C   0  0  0  0  0  0  0  0  0  0  0  0
   12.1438   -0.7835   15.3606 C   0  0  0  0  0  0  0  0  0  0  0  0
   11.5400    0.2334   14.7253 F   0  0  0  0  0  0  0  0  0  0  0  0
   13.3022   -0.5671   16.1218 C   0  0  0  0  0  0  0  0  0  0  0  0
   13.7651    1.2608   16.3793 Br  0  0  0  0  0  0  0  0  0  0  0  0
   13.9148   -1.6483   16.7865 C   0  0  0  0  0  0  0  0  0  0  0  0
   15.1366   -1.5982   17.4862 N   0  0  0  0  0  0  0  0  0  0  0  0
   16.3408   -0.6163   17.3519 C   0  0  0  0  0  0  0  0  0  0  0  0
   16.5313    0.2506   16.5878 O   0  0  0  0  0  0  0  0  0  0  0  0
   17.3487   -0.8765   18.4649 C   0  0  1  0  0  0  0  0  0  0  0  0
   16.7898   -0.6692   19.8967 C   0  0  0  0  0  0  0  0  0  0  0  0
   17.8044    0.1067   20.7528 C   0  0  0  0  0  0  0  0  0  0  0  0
   16.3695   -1.9219   20.6714 C   0  0  0  0  0  0  0  0  0  0  0  0
   18.2250   -2.3761   18.1442 S   0  0  0  0  0  0  0  0  0  0  0  0
   17.2657   -3.4668   18.1971 O   0  0  0  0  0  0  0  0  0  0  0  0
   19.4105   -2.4024   18.9796 O   0  0  0  0  0  0  0  0  0  0  0  0
   18.8042   -2.2558   16.4643 C   0  0  0  0  0  0  0  0  0  0  0  0
   18.3943   -3.1960   15.5131 C   0  0  0  0  0  0  0  0  0  0  0  0
   18.8542   -3.0853   14.1983 C   0  0  0  0  0  0  0  0  0  0  0  0
   19.7099   -2.0402   13.8470 C   0  0  0  0  0  0  0  0  0  0  0  0
   20.3291   -1.8938   12.0671 Br  0  0  0  0  0  0  0  0  0  0  0  0
   20.1272   -1.1117   14.8004 C   0  0  0  0  0  0  0  0  0  0  0  0
   19.6822   -1.2230   16.1186 C   0  0  0  0  0  0  0  0  0  0  0  0
  1  2  1  0
  2  3  2  0
  3  4  1  0
  4  5  2  0
  5  6  1  0
  5  7  1  0
  7  8  1  0
  7  9  2  0
  9 10  1  0
 10 11  1  0
 11 12  2  0
 11 13  1  0
 13 14  1  1
 14 15  1  0
 14 16  1  0
 13 17  1  0
 17 18  2  0
 17 19  2  0
 17 20  1  0
 20 21  2  0
 21 22  1  0
 22 23  2  0
 23 24  1  0
 23 25  1  0
 25 26  2  0
  9  2  1  0
 26 20  1  0
M  END
>  <ref_mols>  (1018) 
B1396a

>  <gnina_score>  (1018) 
5.29

>  <smina_score_min>  (1018) 
-3.671

>  <ref_pdb>  (1018) 
B1396a

>  <inspiration_score>  (1018) 
None

>  <inchikey>  (1018) 
JNPCICOZDMDKNC-QGZVFWFLSA-N

>  <tags>  (1018) 
BulkDock Fragalysis export,openbind_d68ev3c_c2_elabs_scored,openbind_d68ev3c_c2_elabs_scored_4.5plus,openbind_d68ev3c_c2_elabs,openbind_d68ev3c_c2_elabs_scored_5plus,syndirella_product,openbind_d68ev3c_c2_elabs_scored_top80percent,syndirella_placed

>  <smiles>  (1018) 
Cc1ccc(F)c(Br)c1NC(=O)[C@@H](C(C)C)S(=O)(=O)c1ccc(Br)cc1

>  <subsites>  (1018) 
None

>  <rmsd(smina/fragmenstein)>  (1018) 
1.874

>  <alias>  (1018) 
None

>  <energy_score>  (1018) 
-47.998617

>  <HIPPO Pose ID>  (1018) 
95199

>  <distance_score>  (1018) 
0.316154

>  <HIPPO Compound ID>  (1018) 
129050

>  <gnina_score_min>  (1018) 
5.168

>  <name>  (1018) 
P95199

>  <exports>  (1018) 
['/opt/xchem-fragalysis-2/maxwin/BulkDock/OUTPUTS/openbind_d68ev3c_c2_elabs_1LOTQJ3.sdf', '/opt/xchem-fragalysis-2/maxwin/BulkDock/OUTPUTS/openbind_d68ev3c_c2_elabs_1LSYI5W.sdf']

$$$$
P95203
     RDKit          3D

 26 27  0  0  0  0  0  0  0  0999 V2000
   13.9015   -3.9693   17.4260 C   0  0  0  0  0  0  0  0  0  0  0  0
   13.4506   -2.6487   16.8464 C   0  0  0  0  0  0  0  0  0  0  0  0
   12.1958   -2.6053   16.2066 C   0  0  0  0  0  0  0  0  0  0  0  0
   11.6890   -1.3943   15.7488 C   0  0  0  0  0  0  0  0  0  0  0  0
    9.9054   -1.2238   15.1724 Br  0  0  0  0  0  0  0  0  0  0  0  0
   12.4297   -0.2320   15.8659 C   0  0  0  0  0  0  0  0  0  0  0  0
   13.6745   -0.2521   16.4972 C   0  0  0  0  0  0  0  0  0  0  0  0
   14.2856    1.3237   16.8637 Cl  0  0  0  0  0  0  0  0  0  0  0  0
   14.2225   -1.4613   16.9722 C   0  0  0  0  0  0  0  0  0  0  0  0
   15.4696   -1.5721   17.6156 N   0  0  0  0  0  0  0  0  0  0  0  0
   16.7081   -0.6215   17.5963 C   0  0  0  0  0  0  0  0  0  0  0  0
   16.9049    0.3563   16.9814 O   0  0  0  0  0  0  0  0  0  0  0  0
   17.7229   -1.0654   18.6364 C   0  0  1  0  0  0  0  0  0  0  0  0
   17.2266   -0.9439   20.0996 C   0  0  0  0  0  0  0  0  0  0  0  0
   16.6137   -2.1938   20.7368 C   0  0  0  0  0  0  0  0  0  0  0  0
   18.3620   -0.4462   21.0088 C   0  0  0  0  0  0  0  0  0  0  0  0
   18.4539   -2.5894   18.1467 S   0  0  0  0  0  0  0  0  0  0  0  0
   19.6738   -2.7718   18.9074 O   0  0  0  0  0  0  0  0  0  0  0  0
   17.4066   -3.5978   18.1670 O   0  0  0  0  0  0  0  0  0  0  0  0
   18.9498   -2.3768   16.4487 C   0  0  0  0  0  0  0  0  0  0  0  0
   19.8204   -1.3344   16.1141 C   0  0  0  0  0  0  0  0  0  0  0  0
   20.1896   -1.1480   14.7810 C   0  0  0  0  0  0  0  0  0  0  0  0
   19.7050   -2.0124   13.7998 C   0  0  0  0  0  0  0  0  0  0  0  0
   20.2210   -1.7637   11.9985 Br  0  0  0  0  0  0  0  0  0  0  0  0
   18.8560   -3.0672   14.1374 C   0  0  0  0  0  0  0  0  0  0  0  0
   18.4705   -3.2517   15.4676 C   0  0  0  0  0  0  0  0  0  0  0  0
  1  2  1  0
  2  3  2  0
  3  4  1  0
  4  5  1  0
  4  6  2  0
  6  7  1  0
  7  8  1  0
  7  9  2  0
  9 10  1  0
 10 11  1  0
 11 12  2  0
 11 13  1  0
 13 14  1  1
 14 15  1  0
 14 16  1  0
 13 17  1  0
 17 18  2  0
 17 19  2  0
 17 20  1  0
 20 21  2  0
 21 22  1  0
 22 23  2  0
 23 24  1  0
 23 25  1  0
 25 26  2  0
  9  2  1  0
 26 20  1  0
M  END
>  <ref_mols>  (1019) 
B1396a

>  <gnina_score>  (1019) 
5.698

>  <smina_score_min>  (1019) 
-2.962

>  <ref_pdb>  (1019) 
B1396a

>  <inspiration_score>  (1019) 
None

>  <inchikey>  (1019) 
XFBSAJSOJGYWSR-QGZVFWFLSA-N

>  <tags>  (1019) 
BulkDock Fragalysis export,openbind_d68ev3c_c2_elabs_scored,openbind_d68ev3c_c2_elabs_scored_4.5plus,openbind_d68ev3c_c2_elabs,openbind_d68ev3c_c2_elabs_scored_5plus,syndirella_product,openbind_d68ev3c_c2_elabs_scored_top80percent,syndirella_placed

>  <smiles>  (1019) 
Cc1cc(Br)cc(Cl)c1NC(=O)[C@@H](C(C)C)S(=O)(=O)c1ccc(Br)cc1

>  <subsites>  (1019) 
None

>  <rmsd(smina/fragmenstein)>  (1019) 
1.983

>  <alias>  (1019) 
None

>  <energy_score>  (1019) 
-33.081751

>  <HIPPO Pose ID>  (1019) 
95203

>  <distance_score>  (1019) 
0.601208

>  <HIPPO Compound ID>  (1019) 
129053

>  <gnina_score_min>  (1019) 
5.361

>  <name>  (1019) 
P95203

>  <exports>  (1019) 
['/opt/xchem-fragalysis-2/maxwin/BulkDock/OUTPUTS/openbind_d68ev3c_c2_elabs_1LOTQJ3.sdf', '/opt/xchem-fragalysis-2/maxwin/BulkDock/OUTPUTS/openbind_d68ev3c_c2_elabs_1LSYI5W.sdf']

$$$$
P95204
     RDKit          3D

 26 27  0  0  0  0  0  0  0  0999 V2000
   13.9128   -4.1655   17.7626 C   0  0  0  0  0  0  0  0  0  0  0  0
   13.3616   -3.0142   16.9627 C   0  0  0  0  0  0  0  0  0  0  0  0
   12.2054   -3.2402   16.2018 C   0  0  0  0  0  0  0  0  0  0  0  0
   11.6618   -2.2303   15.4260 C   0  0  0  0  0  0  0  0  0  0  0  0
   10.5438   -2.4700   14.7341 F   0  0  0  0  0  0  0  0  0  0  0  0
   12.2269   -0.9697   15.4060 C   0  0  0  0  0  0  0  0  0  0  0  0
   13.3723   -0.7148   16.1675 C   0  0  0  0  0  0  0  0  0  0  0  0
   13.8284    0.9493   16.2674 Cl  0  0  0  0  0  0  0  0  0  0  0  0
   13.9777   -1.7416   16.9266 C   0  0  0  0  0  0  0  0  0  0  0  0
   15.1524   -1.5733   17.6795 N   0  0  0  0  0  0  0  0  0  0  0  0
   16.3969   -0.6602   17.4282 C   0  0  0  0  0  0  0  0  0  0  0  0
   16.5931    0.1429   16.5987 O   0  0  0  0  0  0  0  0  0  0  0  0
   17.3991   -0.9047   18.5625 C   0  0  2  0  0  0  0  0  0  0  0  0
   18.2308    0.3750   18.8579 C   0  0  0  0  0  0  0  0  0  0  0  0
   17.2996    1.5208   19.3038 C   0  0  0  0  0  0  0  0  0  0  0  0
   19.2841    0.1990   19.9583 C   0  0  0  0  0  0  0  0  0  0  0  0
   18.3160   -2.3634   18.0920 S   0  0  0  0  0  0  0  0  0  0  0  0
   17.3646   -3.4648   18.1131 O   0  0  0  0  0  0  0  0  0  0  0  0
   19.5193   -2.4817   18.8909 O   0  0  0  0  0  0  0  0  0  0  0  0
   18.8360   -2.1457   16.4060 C   0  0  0  0  0  0  0  0  0  0  0  0
   18.1859   -2.8415   15.3795 C   0  0  0  0  0  0  0  0  0  0  0  0
   18.6102   -2.6724   14.0594 C   0  0  0  0  0  0  0  0  0  0  0  0
   19.6804   -1.8225   13.7793 C   0  0  0  0  0  0  0  0  0  0  0  0
   20.2526   -1.5921   11.9925 Br  0  0  0  0  0  0  0  0  0  0  0  0
   20.3408   -1.1479   14.8061 C   0  0  0  0  0  0  0  0  0  0  0  0
   19.9260   -1.3169   16.1280 C   0  0  0  0  0  0  0  0  0  0  0  0
  1  2  1  0
  2  3  2  0
  3  4  1  0
  4  5  1  0
  4  6  2  0
  6  7  1  0
  7  8  1  0
  7  9  2  0
  9 10  1  0
 10 11  1  0
 11 12  2  0
 11 13  1  0
 13 14  1  6
 14 15  1  0
 14 16  1  0
 13 17  1  0
 17 18  2  0
 17 19  2  0
 17 20  1  0
 20 21  2  0
 21 22  1  0
 22 23  2  0
 23 24  1  0
 23 25  1  0
 25 26  2  0
  9  2  1  0
 26 20  1  0
M  END
>  <ref_mols>  (1020) 
B1396a

>  <gnina_score>  (1020) 
5.469

>  <smina_score_min>  (1020) 
-3.602

>  <ref_pdb>  (1020) 
B1396a

>  <inspiration_score>  (1020) 
None

>  <inchikey>  (1020) 
VHFRONBBGUJCSM-KRWDZBQOSA-N

>  <tags>  (1020) 
BulkDock Fragalysis export,openbind_d68ev3c_c2_elabs_scored,openbind_d68ev3c_c2_elabs_scored_4.5plus,openbind_d68ev3c_c2_elabs,openbind_d68ev3c_c2_elabs_scored_5plus,syndirella_product,openbind_d68ev3c_c2_elabs_scored_top80percent,syndirella_placed

>  <smiles>  (1020) 
Cc1cc(F)cc(Cl)c1NC(=O)[C@H](C(C)C)S(=O)(=O)c1ccc(Br)cc1

>  <subsites>  (1020) 
None

>  <rmsd(smina/fragmenstein)>  (1020) 
1.682

>  <alias>  (1020) 
None

>  <energy_score>  (1020) 
-37.969118

>  <HIPPO Pose ID>  (1020) 
95204

>  <distance_score>  (1020) 
0.335796

>  <HIPPO Compound ID>  (1020) 
129054

>  <gnina_score_min>  (1020) 
5.303

>  <name>  (1020) 
P95204

>  <exports>  (1020) 
['/opt/xchem-fragalysis-2/maxwin/BulkDock/OUTPUTS/openbind_d68ev3c_c2_elabs_1LOTQJ3.sdf', '/opt/xchem-fragalysis-2/maxwin/BulkDock/OUTPUTS/openbind_d68ev3c_c2_elabs_1LSYI5W.sdf']

$$$$
P95209
     RDKit          3D

 26 28  0  0  0  0  0  0  0  0999 V2000
   19.5163    0.7857   19.5231 C   0  0  0  0  0  0  0  0  0  0  0  0
   18.4601    0.8655   18.4144 C   0  0  0  0  0  0  0  0  0  0  0  0
   17.5394    2.0542   18.7607 C   0  0  0  0  0  0  0  0  0  0  0  0
   17.6158   -0.4285   18.2336 C   0  0  1  0  0  0  0  0  0  0  0  0
   16.6293   -0.2886   17.0573 C   0  0  0  0  0  0  0  0  0  0  0  0
   16.7779    0.5000   16.2058 O   0  0  0  0  0  0  0  0  0  0  0  0
   15.4913   -1.3292   17.2818 N   0  0  0  0  0  0  0  0  0  0  0  0
   14.3005   -1.5369   16.5804 C   0  0  0  0  0  0  0  0  0  0  0  0
   13.9011   -0.6913   15.5456 C   0  0  0  0  0  0  0  0  0  0  0  0
   12.7057   -0.9308   14.8631 C   0  0  0  0  0  0  0  0  0  0  0  0
   11.9183   -2.0276   15.1944 C   0  0  0  0  0  0  0  0  0  0  0  0
   12.3206   -2.8743   16.2264 C   0  0  0  0  0  0  0  0  0  0  0  0
   13.5043   -2.6409   16.9543 C   0  0  0  0  0  0  0  0  0  0  0  0
   13.8849   -3.4973   18.1376 C   0  0  0  0  0  0  0  0  0  0  0  0
   15.0208   -4.4917   18.0394 C   0  0  0  0  0  0  0  0  0  0  0  0
   13.6158   -4.9634   18.1654 C   0  0  0  0  0  0  0  0  0  0  0  0
   18.5294   -1.9520   17.9659 S   0  0  0  0  0  0  0  0  0  0  0  0
   19.7458   -1.9702   18.7524 O   0  0  0  0  0  0  0  0  0  0  0  0
   17.5882   -3.0443   18.1498 O   0  0  0  0  0  0  0  0  0  0  0  0
   19.0149   -1.9564   16.2587 C   0  0  0  0  0  0  0  0  0  0  0  0
   20.0857   -1.1543   15.8584 C   0  0  0  0  0  0  0  0  0  0  0  0
   20.4648   -1.1377   14.5166 C   0  0  0  0  0  0  0  0  0  0  0  0
   19.7883   -1.9355   13.5941 C   0  0  0  0  0  0  0  0  0  0  0  0
   20.3133   -1.9114   11.7783 Br  0  0  0  0  0  0  0  0  0  0  0  0
   18.7378   -2.7589   13.9998 C   0  0  0  0  0  0  0  0  0  0  0  0
   18.3477   -2.7758   15.3403 C   0  0  0  0  0  0  0  0  0  0  0  0
  1  2  1  0
  2  3  1  0
  4  2  1  6
  4  5  1  0
  5  6  2  0
  5  7  1  0
  7  8  1  0
  8  9  2  0
  9 10  1  0
 10 11  2  0
 11 12  1  0
 12 13  2  0
 13 14  1  0
 14 15  1  0
 15 16  1  0
  4 17  1  0
 17 18  2  0
 17 19  2  0
 17 20  1  0
 20 21  2  0
 21 22  1  0
 22 23  2  0
 23 24  1  0
 23 25  1  0
 25 26  2  0
 13  8  1  0
 16 14  1  0
 26 20  1  0
M  END
>  <ref_mols>  (1021) 
B1396a

>  <gnina_score>  (1021) 
5.302

>  <smina_score_min>  (1021) 
-3.209

>  <ref_pdb>  (1021) 
B1396a

>  <inspiration_score>  (1021) 
None

>  <inchikey>  (1021) 
NMYIKNSWEGFNKH-IBGZPJMESA-N

>  <tags>  (1021) 
BulkDock Fragalysis export,openbind_d68ev3c_c2_elabs_scored,openbind_d68ev3c_c2_elabs_scored_4.5plus,openbind_d68ev3c_c2_elabs,openbind_d68ev3c_c2_elabs_scored_5plus,syndirella_product,openbind_d68ev3c_c2_elabs_scored_top80percent,syndirella_placed

>  <smiles>  (1021) 
CC(C)[C@@H](C(=O)Nc1ccccc1C1CC1)S(=O)(=O)c1ccc(Br)cc1

>  <subsites>  (1021) 
None

>  <rmsd(smina/fragmenstein)>  (1021) 
1.606

>  <alias>  (1021) 
None

>  <energy_score>  (1021) 
-58.64884

>  <HIPPO Pose ID>  (1021) 
95209

>  <distance_score>  (1021) 
0.699875

>  <HIPPO Compound ID>  (1021) 
129056

>  <gnina_score_min>  (1021) 
5.009

>  <name>  (1021) 
P95209

>  <exports>  (1021) 
['/opt/xchem-fragalysis-2/maxwin/BulkDock/OUTPUTS/openbind_d68ev3c_c2_elabs_1LOTQJ3.sdf', '/opt/xchem-fragalysis-2/maxwin/BulkDock/OUTPUTS/openbind_d68ev3c_c2_elabs_1LSYI5W.sdf']

$$$$
P95211
     RDKit          3D

 26 27  0  0  0  0  0  0  0  0999 V2000
   11.7804    0.1832   14.5966 C   0  0  0  0  0  0  0  0  0  0  0  0
   12.3443   -0.9412   15.4101 C   0  0  0  0  0  0  0  0  0  0  0  0
   13.5813   -0.8223   16.0600 C   0  0  0  0  0  0  0  0  0  0  0  0
   14.1136   -1.8896   16.7974 C   0  0  0  0  0  0  0  0  0  0  0  0
   15.3372   -1.7613   17.4545 N   0  0  0  0  0  0  0  0  0  0  0  0
   16.3340   -0.5647   17.5124 C   0  0  0  0  0  0  0  0  0  0  0  0
   16.3159    0.4658   16.9551 O   0  0  0  0  0  0  0  0  0  0  0  0
   17.4281   -0.8470   18.5392 C   0  0  1  0  0  0  0  0  0  0  0  0
   16.9352   -0.6921   20.0000 C   0  0  0  0  0  0  0  0  0  0  0  0
   18.0780   -0.2516   20.9260 C   0  0  0  0  0  0  0  0  0  0  0  0
   16.2335   -1.9005   20.6230 C   0  0  0  0  0  0  0  0  0  0  0  0
   18.3222   -2.3226   18.1465 S   0  0  0  0  0  0  0  0  0  0  0  0
   19.5498   -2.3470   18.9172 O   0  0  0  0  0  0  0  0  0  0  0  0
   17.3892   -3.4357   18.2154 O   0  0  0  0  0  0  0  0  0  0  0  0
   18.8142   -2.1507   16.4434 C   0  0  0  0  0  0  0  0  0  0  0  0
   19.6780   -1.1099   16.0876 C   0  0  0  0  0  0  0  0  0  0  0  0
   20.0753   -0.9715   14.7569 C   0  0  0  0  0  0  0  0  0  0  0  0
   19.6233   -1.8800   13.7999 C   0  0  0  0  0  0  0  0  0  0  0  0
   20.1772   -1.6949   12.0023 Br  0  0  0  0  0  0  0  0  0  0  0  0
   18.7792   -2.9313   14.1597 C   0  0  0  0  0  0  0  0  0  0  0  0
   18.3682   -3.0702   15.4878 C   0  0  0  0  0  0  0  0  0  0  0  0
   13.4113   -3.1044   16.8810 C   0  0  0  0  0  0  0  0  0  0  0  0
   13.9187   -4.2810   17.6680 C   0  0  0  0  0  0  0  0  0  0  0  0
   12.1855   -3.2207   16.2134 C   0  0  0  0  0  0  0  0  0  0  0  0
   11.6666   -2.1531   15.4922 C   0  0  0  0  0  0  0  0  0  0  0  0
   10.4764   -2.2995   14.8977 F   0  0  0  0  0  0  0  0  0  0  0  0
  1  2  1  0
  2  3  2  0
  3  4  1  0
  4  5  1  0
  5  6  1  0
  6  7  2  0
  6  8  1  0
  8  9  1  1
  9 10  1  0
  9 11  1  0
  8 12  1  0
 12 13  2  0
 12 14  2  0
 12 15  1  0
 15 16  2  0
 16 17  1  0
 17 18  2  0
 18 19  1  0
 18 20  1  0
 20 21  2  0
  4 22  2  0
 22 23  1  0
 22 24  1  0
 24 25  2  0
 25 26  1  0
 25  2  1  0
 21 15  1  0
M  END
>  <ref_mols>  (1022) 
B1396a

>  <gnina_score>  (1022) 
5.215

>  <smina_score_min>  (1022) 
-3.743

>  <ref_pdb>  (1022) 
B1396a

>  <inspiration_score>  (1022) 
None

>  <inchikey>  (1022) 
UBAPAOUQAWTNIP-GOSISDBHSA-N

>  <tags>  (1022) 
BulkDock Fragalysis export,openbind_d68ev3c_c2_elabs_scored,openbind_d68ev3c_c2_elabs_scored_4.5plus,openbind_d68ev3c_c2_elabs,openbind_d68ev3c_c2_elabs_scored_5plus,syndirella_product,openbind_d68ev3c_c2_elabs_scored_top80percent,syndirella_placed

>  <smiles>  (1022) 
Cc1cc(NC(=O)[C@@H](C(C)C)S(=O)(=O)c2ccc(Br)cc2)c(C)cc1F

>  <subsites>  (1022) 
None

>  <rmsd(smina/fragmenstein)>  (1022) 
1.907

>  <alias>  (1022) 
None

>  <energy_score>  (1022) 
-34.129578

>  <HIPPO Pose ID>  (1022) 
95211

>  <distance_score>  (1022) 
0.378103

>  <HIPPO Compound ID>  (1022) 
129058

>  <gnina_score_min>  (1022) 
5.201

>  <name>  (1022) 
P95211

>  <exports>  (1022) 
['/opt/xchem-fragalysis-2/maxwin/BulkDock/OUTPUTS/openbind_d68ev3c_c2_elabs_1LOTQJ3.sdf', '/opt/xchem-fragalysis-2/maxwin/BulkDock/OUTPUTS/openbind_d68ev3c_c2_elabs_1LSYI5W.sdf']

$$$$
P95214
     RDKit          3D

 26 28  0  0  0  0  0  0  0  0999 V2000
   18.1546    1.0369   18.5940 C   0  0  0  0  0  0  0  0  0  0  0  0
   17.4029   -0.0322   19.3854 C   0  0  0  0  0  0  0  0  0  0  0  0
   16.1116    0.5772   19.9509 C   0  0  0  0  0  0  0  0  0  0  0  0
   17.0945   -1.3354   18.6161 C   0  0  1  0  0  0  0  0  0  0  0  0
   16.2756   -1.1336   17.3577 C   0  0  0  0  0  0  0  0  0  0  0  0
   16.7137   -0.6191   16.3937 O   0  0  0  0  0  0  0  0  0  0  0  0
   14.9042   -1.7529   17.6087 N   0  0  0  0  0  0  0  0  0  0  0  0
   14.8933   -3.2876   17.2408 C   0  0  0  0  0  0  0  0  0  0  0  0
   13.5737   -3.9844   17.4452 C   0  0  0  0  0  0  0  0  0  0  0  0
   12.9169   -2.9537   16.6593 C   0  0  0  0  0  0  0  0  0  0  0  0
   11.7841   -3.0527   15.8689 C   0  0  0  0  0  0  0  0  0  0  0  0
   11.3486   -1.9273   15.1807 C   0  0  0  0  0  0  0  0  0  0  0  0
   12.0501   -0.7260   15.2998 C   0  0  0  0  0  0  0  0  0  0  0  0
   13.2090   -0.6532   16.0853 C   0  0  0  0  0  0  0  0  0  0  0  0
   13.9373    0.9011   16.2644 Cl  0  0  0  0  0  0  0  0  0  0  0  0
   13.6850   -1.7993   16.7446 C   0  0  0  0  0  0  0  0  0  0  0  0
   18.4908   -2.3879   18.2609 S   0  0  0  0  0  0  0  0  0  0  0  0
   19.6296   -1.9527   19.0497 O   0  0  0  0  0  0  0  0  0  0  0  0
   18.0213   -3.7578   18.4159 O   0  0  0  0  0  0  0  0  0  0  0  0
   18.9773   -2.2444   16.5488 C   0  0  0  0  0  0  0  0  0  0  0  0
   18.5245   -3.1887   15.6156 C   0  0  0  0  0  0  0  0  0  0  0  0
   18.9199   -3.0867   14.2792 C   0  0  0  0  0  0  0  0  0  0  0  0
   19.7710   -2.0543   13.8862 C   0  0  0  0  0  0  0  0  0  0  0  0
   20.3046   -1.9155   12.0783 Br  0  0  0  0  0  0  0  0  0  0  0  0
   20.2549   -1.1394   14.8205 C   0  0  0  0  0  0  0  0  0  0  0  0
   19.8730   -1.2446   16.1600 C   0  0  0  0  0  0  0  0  0  0  0  0
  1  2  1  0
  2  3  1  0
  4  2  1  6
  4  5  1  0
  5  6  2  0
  5  7  1  0
  7  8  1  0
  8  9  1  0
  9 10  1  0
 10 11  2  0
 11 12  1  0
 12 13  2  0
 13 14  1  0
 14 15  1  0
 14 16  2  0
  4 17  1  0
 17 18  2  0
 17 19  2  0
 17 20  1  0
 20 21  2  0
 21 22  1  0
 22 23  2  0
 23 24  1  0
 23 25  1  0
 25 26  2  0
 16  7  1  0
 26 20  1  0
 16 10  1  0
M  END
>  <ref_mols>  (1023) 
B1396a

>  <gnina_score>  (1023) 
5.311

>  <smina_score_min>  (1023) 
-3.607

>  <ref_pdb>  (1023) 
B1396a

>  <inspiration_score>  (1023) 
None

>  <inchikey>  (1023) 
AYABGVLWUNQQSH-SFHVURJKSA-N

>  <tags>  (1023) 
BulkDock Fragalysis export,openbind_d68ev3c_c2_elabs_scored,openbind_d68ev3c_c2_elabs_scored_4.5plus,openbind_d68ev3c_c2_elabs,openbind_d68ev3c_c2_elabs_scored_5plus,syndirella_product,openbind_d68ev3c_c2_elabs_scored_top80percent,syndirella_placed

>  <smiles>  (1023) 
CC(C)[C@@H](C(=O)N1CCc2cccc(Cl)c21)S(=O)(=O)c1ccc(Br)cc1

>  <subsites>  (1023) 
None

>  <rmsd(smina/fragmenstein)>  (1023) 
1.223

>  <alias>  (1023) 
None

>  <energy_score>  (1023) 
-7.345554

>  <HIPPO Pose ID>  (1023) 
95214

>  <distance_score>  (1023) 
0.345843

>  <HIPPO Compound ID>  (1023) 
129060

>  <gnina_score_min>  (1023) 
5.159

>  <name>  (1023) 
P95214

>  <exports>  (1023) 
['/opt/xchem-fragalysis-2/maxwin/BulkDock/OUTPUTS/openbind_d68ev3c_c2_elabs_1LOTQJ3.sdf', '/opt/xchem-fragalysis-2/maxwin/BulkDock/OUTPUTS/openbind_d68ev3c_c2_elabs_1LSYI5W.sdf']

$$$$
P95217
     RDKit          3D

 26 27  0  0  0  0  0  0  0  0999 V2000
   13.8960   -4.1638   17.7404 C   0  0  0  0  0  0  0  0  0  0  0  0
   13.4823   -2.9635   16.9368 C   0  0  0  0  0  0  0  0  0  0  0  0
   14.2487   -1.7896   16.8725 C   0  0  0  0  0  0  0  0  0  0  0  0
   15.4437   -1.7109   17.5861 N   0  0  0  0  0  0  0  0  0  0  0  0
   16.5157   -0.5768   17.6459 C   0  0  0  0  0  0  0  0  0  0  0  0
   16.5930    0.4258   17.0461 O   0  0  0  0  0  0  0  0  0  0  0  0
   17.5335   -0.9474   18.7397 C   0  0  2  0  0  0  0  0  0  0  0  0
   18.3771    0.2888   19.1698 C   0  0  0  0  0  0  0  0  0  0  0  0
   17.4647    1.3529   19.8167 C   0  0  0  0  0  0  0  0  0  0  0  0
   19.4875   -0.0106   20.1842 C   0  0  0  0  0  0  0  0  0  0  0  0
   18.4350   -2.3765   18.1520 S   0  0  0  0  0  0  0  0  0  0  0  0
   19.6885   -2.5202   18.8626 O   0  0  0  0  0  0  0  0  0  0  0  0
   17.4926   -3.4863   18.1844 O   0  0  0  0  0  0  0  0  0  0  0  0
   18.8490   -2.0863   16.4476 C   0  0  0  0  0  0  0  0  0  0  0  0
   19.8695   -1.1838   16.1379 C   0  0  0  0  0  0  0  0  0  0  0  0
   20.2202   -0.9756   14.8030 C   0  0  0  0  0  0  0  0  0  0  0  0
   19.5648   -1.6813   13.7939 C   0  0  0  0  0  0  0  0  0  0  0  0
   20.0504   -1.3970   11.9894 Br  0  0  0  0  0  0  0  0  0  0  0  0
   18.5619   -2.5999   14.1044 C   0  0  0  0  0  0  0  0  0  0  0  0
   18.2020   -2.8092   15.4377 C   0  0  0  0  0  0  0  0  0  0  0  0
   13.8141   -0.7086   16.0911 C   0  0  0  0  0  0  0  0  0  0  0  0
   12.6057   -0.7718   15.3935 C   0  0  0  0  0  0  0  0  0  0  0  0
   11.8460   -1.9259   15.4646 C   0  0  0  0  0  0  0  0  0  0  0  0
   10.6736   -1.9892   14.8237 F   0  0  0  0  0  0  0  0  0  0  0  0
   12.2866   -3.0067   16.2154 C   0  0  0  0  0  0  0  0  0  0  0  0
   11.5379   -4.1111   16.2565 F   0  0  0  0  0  0  0  0  0  0  0  0
  1  2  1  0
  2  3  2  0
  3  4  1  0
  4  5  1  0
  5  6  2  0
  5  7  1  0
  7  8  1  6
  8  9  1  0
  8 10  1  0
  7 11  1  0
 11 12  2  0
 11 13  2  0
 11 14  1  0
 14 15  2  0
 15 16  1  0
 16 17  2  0
 17 18  1  0
 17 19  1  0
 19 20  2  0
  3 21  1  0
 21 22  2  0
 22 23  1  0
 23 24  1  0
 23 25  2  0
 25 26  1  0
 25  2  1  0
 20 14  1  0
M  END
>  <ref_mols>  (1024) 
B1396a

>  <gnina_score>  (1024) 
5.398

>  <smina_score_min>  (1024) 
-3.472

>  <ref_pdb>  (1024) 
B1396a

>  <inspiration_score>  (1024) 
None

>  <inchikey>  (1024) 
HKHKTFPNDMVHKH-KRWDZBQOSA-N

>  <tags>  (1024) 
BulkDock Fragalysis export,openbind_d68ev3c_c2_elabs_scored,openbind_d68ev3c_c2_elabs_scored_4.5plus,openbind_d68ev3c_c2_elabs,openbind_d68ev3c_c2_elabs_scored_5plus,syndirella_product,openbind_d68ev3c_c2_elabs_scored_top80percent,syndirella_placed

>  <smiles>  (1024) 
Cc1c(NC(=O)[C@H](C(C)C)S(=O)(=O)c2ccc(Br)cc2)ccc(F)c1F

>  <subsites>  (1024) 
None

>  <rmsd(smina/fragmenstein)>  (1024) 
2.528

>  <alias>  (1024) 
None

>  <energy_score>  (1024) 
-39.574407

>  <HIPPO Pose ID>  (1024) 
95217

>  <distance_score>  (1024) 
0.49259

>  <HIPPO Compound ID>  (1024) 
129062

>  <gnina_score_min>  (1024) 
5.371

>  <name>  (1024) 
P95217

>  <exports>  (1024) 
['/opt/xchem-fragalysis-2/maxwin/BulkDock/OUTPUTS/openbind_d68ev3c_c2_elabs_1LOTQJ3.sdf', '/opt/xchem-fragalysis-2/maxwin/BulkDock/OUTPUTS/openbind_d68ev3c_c2_elabs_1LSYI5W.sdf']

$$$$
P95220
     RDKit          3D

 26 27  0  0  0  0  0  0  0  0999 V2000
   17.1440    1.3438   19.5409 C   0  0  0  0  0  0  0  0  0  0  0  0
   18.1307    0.2626   19.0536 C   0  0  0  0  0  0  0  0  0  0  0  0
   19.1329    0.0300   20.1919 C   0  0  0  0  0  0  0  0  0  0  0  0
   17.3568   -1.0152   18.6195 C   0  0  1  0  0  0  0  0  0  0  0  0
   16.3722   -0.7028   17.4867 C   0  0  0  0  0  0  0  0  0  0  0  0
   16.5632    0.1657   16.7258 O   0  0  0  0  0  0  0  0  0  0  0  0
   15.1561   -1.6688   17.6328 N   0  0  0  0  0  0  0  0  0  0  0  0
   14.0119   -1.8170   16.8383 C   0  0  0  0  0  0  0  0  0  0  0  0
   13.5756   -0.8403   15.9385 C   0  0  0  0  0  0  0  0  0  0  0  0
   14.1941    0.3418   15.8376 F   0  0  0  0  0  0  0  0  0  0  0  0
   12.4407   -1.0351   15.1474 C   0  0  0  0  0  0  0  0  0  0  0  0
   11.7221   -2.2233   15.2327 C   0  0  0  0  0  0  0  0  0  0  0  0
   12.1331   -3.2065   16.1303 C   0  0  0  0  0  0  0  0  0  0  0  0
   13.2566   -2.9978   16.9434 C   0  0  0  0  0  0  0  0  0  0  0  0
   13.6212   -4.0681   17.8989 C   0  0  0  0  0  0  0  0  0  0  0  0
   14.4299   -3.8768   18.8002 O   0  0  0  0  0  0  0  0  0  0  0  0
   18.3503   -2.3916   18.0539 S   0  0  0  0  0  0  0  0  0  0  0  0
   17.4794   -3.5551   18.0260 O   0  0  0  0  0  0  0  0  0  0  0  0
   19.5839   -2.4711   18.8112 O   0  0  0  0  0  0  0  0  0  0  0  0
   18.8200   -2.0768   16.3670 C   0  0  0  0  0  0  0  0  0  0  0  0
   19.8418   -1.1642   16.0966 C   0  0  0  0  0  0  0  0  0  0  0  0
   20.2362   -0.9499   14.7749 C   0  0  0  0  0  0  0  0  0  0  0  0
   19.6242   -1.6610   13.7416 C   0  0  0  0  0  0  0  0  0  0  0  0
   20.1719   -1.3684   11.9559 Br  0  0  0  0  0  0  0  0  0  0  0  0
   18.6219   -2.5920   14.0137 C   0  0  0  0  0  0  0  0  0  0  0  0
   18.2184   -2.8062   15.3329 C   0  0  0  0  0  0  0  0  0  0  0  0
  1  2  1  0
  2  3  1  0
  4  2  1  6
  4  5  1  0
  5  6  2  0
  5  7  1  0
  7  8  1  0
  8  9  2  0
  9 10  1  0
  9 11  1  0
 11 12  2  0
 12 13  1  0
 13 14  2  0
 14 15  1  0
 15 16  2  0
  4 17  1  0
 17 18  2  0
 17 19  2  0
 17 20  1  0
 20 21  2  0
 21 22  1  0
 22 23  2  0
 23 24  1  0
 23 25  1  0
 25 26  2  0
 14  8  1  0
 26 20  1  0
M  END
>  <ref_mols>  (1025) 
B1396a

>  <gnina_score>  (1025) 
5.128

>  <smina_score_min>  (1025) 
-3.138

>  <ref_pdb>  (1025) 
B1396a

>  <inspiration_score>  (1025) 
None

>  <inchikey>  (1025) 
TVPGYYQOJIABBN-KRWDZBQOSA-N

>  <tags>  (1025) 
BulkDock Fragalysis export,openbind_d68ev3c_c2_elabs_scored,openbind_d68ev3c_c2_elabs_scored_4.5plus,openbind_d68ev3c_c2_elabs,openbind_d68ev3c_c2_elabs_scored_5plus,syndirella_product,openbind_d68ev3c_c2_elabs_scored_top80percent,syndirella_placed

>  <smiles>  (1025) 
CC(C)[C@@H](C(=O)Nc1c(F)cccc1C=O)S(=O)(=O)c1ccc(Br)cc1

>  <subsites>  (1025) 
None

>  <rmsd(smina/fragmenstein)>  (1025) 
0.942

>  <alias>  (1025) 
None

>  <energy_score>  (1025) 
-33.826705

>  <HIPPO Pose ID>  (1025) 
95220

>  <distance_score>  (1025) 
0.375695

>  <HIPPO Compound ID>  (1025) 
129063

>  <gnina_score_min>  (1025) 
5.194

>  <name>  (1025) 
P95220

>  <exports>  (1025) 
['/opt/xchem-fragalysis-2/maxwin/BulkDock/OUTPUTS/openbind_d68ev3c_c2_elabs_1LOTQJ3.sdf', '/opt/xchem-fragalysis-2/maxwin/BulkDock/OUTPUTS/openbind_d68ev3c_c2_elabs_1LSYI5W.sdf']

$$$$
P95226
     RDKit          3D

 26 28  0  0  0  0  0  0  0  0999 V2000
   13.7368   -4.0102   17.5486 C   0  0  0  0  0  0  0  0  0  0  0  0
   13.2859   -2.7795   16.8049 C   0  0  0  0  0  0  0  0  0  0  0  0
   12.1806   -2.8818   15.9491 C   0  0  0  0  0  0  0  0  0  0  0  0
   11.5588   -4.0535   15.8059 F   0  0  0  0  0  0  0  0  0  0  0  0
   11.6916   -1.8011   15.2326 C   0  0  0  0  0  0  0  0  0  0  0  0
   12.3021   -0.5656   15.3839 C   0  0  0  0  0  0  0  0  0  0  0  0
   13.4137   -0.4226   16.2282 C   0  0  0  0  0  0  0  0  0  0  0  0
   13.9106    1.2090   16.5073 Cl  0  0  0  0  0  0  0  0  0  0  0  0
   13.9462   -1.5350   16.9161 C   0  0  0  0  0  0  0  0  0  0  0  0
   15.0904   -1.4875   17.7338 N   0  0  0  0  0  0  0  0  0  0  0  0
   16.3628   -0.5899   17.6441 C   0  0  0  0  0  0  0  0  0  0  0  0
   16.6166    0.2994   16.9210 O   0  0  0  0  0  0  0  0  0  0  0  0
   17.3587   -0.9842   18.7740 C   0  0  0  0  0  0  0  0  0  0  0  0
   18.2916   -2.4219   18.1945 S   0  0  0  0  0  0  0  0  0  0  0  0
   19.5410   -2.5269   18.9278 O   0  0  0  0  0  0  0  0  0  0  0  0
   17.3669   -3.5472   18.2160 O   0  0  0  0  0  0  0  0  0  0  0  0
   18.7754   -2.2152   16.4868 C   0  0  0  0  0  0  0  0  0  0  0  0
   18.4286   -3.1878   15.5410 C   0  0  0  0  0  0  0  0  0  0  0  0
   18.8325   -3.0290   14.2125 C   0  0  0  0  0  0  0  0  0  0  0  0
   19.5688   -1.9041   13.8396 C   0  0  0  0  0  0  0  0  0  0  0  0
   20.0687   -1.7124   12.2054 Cl  0  0  0  0  0  0  0  0  0  0  0  0
   19.9165   -0.9398   14.7853 C   0  0  0  0  0  0  0  0  0  0  0  0
   19.5265   -1.0961   16.1173 C   0  0  0  0  0  0  0  0  0  0  0  0
   16.7793   -1.1534   20.2166 C   0  0  0  0  0  0  0  0  0  0  0  0
   18.0108   -0.4243   20.7694 C   0  0  0  0  0  0  0  0  0  0  0  0
   18.2349    0.1653   19.3692 C   0  0  0  0  0  0  0  0  0  0  0  0
  1  2  1  0
  2  3  2  0
  3  4  1  0
  3  5  1  0
  5  6  2  0
  6  7  1  0
  7  8  1  0
  7  9  2  0
  9 10  1  0
 10 11  1  0
 11 12  2  0
 11 13  1  0
 13 14  1  0
 14 15  2  0
 14 16  2  0
 14 17  1  0
 17 18  2  0
 18 19  1  0
 19 20  2  0
 20 21  1  0
 20 22  1  0
 22 23  2  0
 13 24  1  0
 24 25  1  0
 25 26  1  0
  9  2  1  0
 26 13  1  0
 23 17  1  0
M  END
>  <ref_mols>  (1026) 
B1396a

>  <gnina_score>  (1026) 
5.378

>  <smina_score_min>  (1026) 
-3.877

>  <ref_pdb>  (1026) 
B1396a

>  <inspiration_score>  (1026) 
None

>  <inchikey>  (1026) 
RPKGWLRPGQSDOZ-UHFFFAOYSA-N

>  <tags>  (1026) 
BulkDock Fragalysis export,openbind_d68ev3c_c2_elabs_scored,openbind_d68ev3c_c2_elabs_scored_4.5plus,openbind_d68ev3c_c2_elabs,openbind_d68ev3c_c2_elabs_scored_5plus,syndirella_product,openbind_d68ev3c_c2_elabs_scored_top80percent,syndirella_placed

>  <smiles>  (1026) 
Cc1c(F)ccc(Cl)c1NC(=O)C1(S(=O)(=O)c2ccc(Cl)cc2)CCC1

>  <subsites>  (1026) 
None

>  <rmsd(smina/fragmenstein)>  (1026) 
1.951

>  <alias>  (1026) 
None

>  <energy_score>  (1026) 
-29.409839

>  <HIPPO Pose ID>  (1026) 
95226

>  <distance_score>  (1026) 
0.4135

>  <HIPPO Compound ID>  (1026) 
129071

>  <gnina_score_min>  (1026) 
5.4

>  <name>  (1026) 
P95226

>  <exports>  (1026) 
['/opt/xchem-fragalysis-2/maxwin/BulkDock/OUTPUTS/openbind_d68ev3c_c2_elabs_1LOTQJ3.sdf', '/opt/xchem-fragalysis-2/maxwin/BulkDock/OUTPUTS/openbind_d68ev3c_c2_elabs_1LSYI5W.sdf']

$$$$
P95227
     RDKit          3D

 26 28  0  0  0  0  0  0  0  0999 V2000
   10.7620   -2.1060   14.6444 C   0  0  0  0  0  0  0  0  0  0  0  0
   11.9140   -1.9801   15.5795 C   0  0  0  0  0  0  0  0  0  0  0  0
   12.3814   -3.0882   16.2878 C   0  0  0  0  0  0  0  0  0  0  0  0
   13.5404   -3.0080   17.0758 C   0  0  0  0  0  0  0  0  0  0  0  0
   14.0010   -4.2488   17.7926 C   0  0  0  0  0  0  0  0  0  0  0  0
   14.2485   -1.7901   17.1358 C   0  0  0  0  0  0  0  0  0  0  0  0
   15.4475   -1.7477   17.8554 N   0  0  0  0  0  0  0  0  0  0  0  0
   16.5436   -0.6423   17.9318 C   0  0  0  0  0  0  0  0  0  0  0  0
   16.6467    0.3682   17.3436 O   0  0  0  0  0  0  0  0  0  0  0  0
   17.6317   -1.0594   18.9671 C   0  0  0  0  0  0  0  0  0  0  0  0
   18.5141   -2.4802   18.2917 S   0  0  0  0  0  0  0  0  0  0  0  0
   19.8079   -2.6049   18.9378 O   0  0  0  0  0  0  0  0  0  0  0  0
   17.5877   -3.6035   18.3498 O   0  0  0  0  0  0  0  0  0  0  0  0
   18.8785   -2.2258   16.5624 C   0  0  0  0  0  0  0  0  0  0  0  0
   18.5042   -3.1920   15.6207 C   0  0  0  0  0  0  0  0  0  0  0  0
   18.8117   -2.9920   14.2724 C   0  0  0  0  0  0  0  0  0  0  0  0
   19.4756   -1.8307   13.8763 C   0  0  0  0  0  0  0  0  0  0  0  0
   19.8435   -1.5820   12.2147 Cl  0  0  0  0  0  0  0  0  0  0  0  0
   19.8499   -0.8720   14.8183 C   0  0  0  0  0  0  0  0  0  0  0  0
   19.5577   -1.0694   16.1700 C   0  0  0  0  0  0  0  0  0  0  0  0
   17.1747   -1.2638   20.4478 C   0  0  0  0  0  0  0  0  0  0  0  0
   17.5886    0.1936   20.7159 C   0  0  0  0  0  0  0  0  0  0  0  0
   18.5572    0.0735   19.5261 C   0  0  0  0  0  0  0  0  0  0  0  0
   13.7452   -0.6799   16.4471 C   0  0  0  0  0  0  0  0  0  0  0  0
   14.3271    0.5221   16.5253 F   0  0  0  0  0  0  0  0  0  0  0  0
   12.5966   -0.7710   15.6715 C   0  0  0  0  0  0  0  0  0  0  0  0
  1  2  1  0
  2  3  2  0
  3  4  1  0
  4  5  1  0
  4  6  2  0
  6  7  1  0
  7  8  1  0
  8  9  2  0
  8 10  1  0
 10 11  1  0
 11 12  2  0
 11 13  2  0
 11 14  1  0
 14 15  2  0
 15 16  1  0
 16 17  2  0
 17 18  1  0
 17 19  1  0
 19 20  2  0
 10 21  1  0
 21 22  1  0
 22 23  1  0
  6 24  1  0
 24 25  1  0
 24 26  2  0
 26  2  1  0
 23 10  1  0
 20 14  1  0
M  END
>  <ref_mols>  (1027) 
B1396a

>  <gnina_score>  (1027) 
5.321

>  <smina_score_min>  (1027) 
-3.537

>  <ref_pdb>  (1027) 
B1396a

>  <inspiration_score>  (1027) 
None

>  <inchikey>  (1027) 
FSLREDIXIFEHLT-UHFFFAOYSA-N

>  <tags>  (1027) 
BulkDock Fragalysis export,openbind_d68ev3c_c2_elabs_scored,openbind_d68ev3c_c2_elabs_scored_4.5plus,openbind_d68ev3c_c2_elabs,openbind_d68ev3c_c2_elabs_scored_5plus,syndirella_product,openbind_d68ev3c_c2_elabs_scored_top80percent,syndirella_placed

>  <smiles>  (1027) 
Cc1cc(C)c(NC(=O)C2(S(=O)(=O)c3ccc(Cl)cc3)CCC2)c(F)c1

>  <subsites>  (1027) 
None

>  <rmsd(smina/fragmenstein)>  (1027) 
1.908

>  <alias>  (1027) 
None

>  <energy_score>  (1027) 
-32.693238

>  <HIPPO Pose ID>  (1027) 
95227

>  <distance_score>  (1027) 
0.553448

>  <HIPPO Compound ID>  (1027) 
129072

>  <gnina_score_min>  (1027) 
5.068

>  <name>  (1027) 
P95227

>  <exports>  (1027) 
['/opt/xchem-fragalysis-2/maxwin/BulkDock/OUTPUTS/openbind_d68ev3c_c2_elabs_1LOTQJ3.sdf', '/opt/xchem-fragalysis-2/maxwin/BulkDock/OUTPUTS/openbind_d68ev3c_c2_elabs_1LSYI5W.sdf']

$$$$
P95229
     RDKit          3D

 26 28  0  0  0  0  0  0  0  0999 V2000
   14.8078   -5.0211   17.5589 C   0  0  0  0  0  0  0  0  0  0  0  0
   13.8124   -3.9937   18.0630 C   0  0  0  0  0  0  0  0  0  0  0  0
   13.5475   -2.8390   17.1204 C   0  0  0  0  0  0  0  0  0  0  0  0
   12.3265   -2.7996   16.4237 C   0  0  0  0  0  0  0  0  0  0  0  0
   11.9562   -1.6506   15.7235 C   0  0  0  0  0  0  0  0  0  0  0  0
   10.1962   -1.4139   15.1110 Br  0  0  0  0  0  0  0  0  0  0  0  0
   12.8331   -0.5868   15.5866 C   0  0  0  0  0  0  0  0  0  0  0  0
   14.0715   -0.6414   16.2129 C   0  0  0  0  0  0  0  0  0  0  0  0
   14.4222   -1.7389   17.0053 C   0  0  0  0  0  0  0  0  0  0  0  0
   15.6182   -1.7075   17.7184 N   0  0  0  0  0  0  0  0  0  0  0  0
   16.7240   -0.6124   17.7917 C   0  0  0  0  0  0  0  0  0  0  0  0
   16.8345    0.3974   17.2031 O   0  0  0  0  0  0  0  0  0  0  0  0
   17.7878   -1.0204   18.8579 C   0  0  0  0  0  0  0  0  0  0  0  0
   18.6554   -2.4706   18.2361 S   0  0  0  0  0  0  0  0  0  0  0  0
   17.7157   -3.5800   18.3229 O   0  0  0  0  0  0  0  0  0  0  0  0
   19.9437   -2.5910   18.8925 O   0  0  0  0  0  0  0  0  0  0  0  0
   19.0224   -2.2547   16.5030 C   0  0  0  0  0  0  0  0  0  0  0  0
   18.5837   -3.1999   15.5687 C   0  0  0  0  0  0  0  0  0  0  0  0
   18.8817   -3.0149   14.2162 C   0  0  0  0  0  0  0  0  0  0  0  0
   19.6022   -1.8908   13.8104 C   0  0  0  0  0  0  0  0  0  0  0  0
   19.9691   -1.6657   12.1456 Cl  0  0  0  0  0  0  0  0  0  0  0  0
   20.0393   -0.9527   14.7460 C   0  0  0  0  0  0  0  0  0  0  0  0
   19.7559   -1.1349   16.1008 C   0  0  0  0  0  0  0  0  0  0  0  0
   17.2990   -1.1783   20.3341 C   0  0  0  0  0  0  0  0  0  0  0  0
   17.7315    0.2791   20.5720 C   0  0  0  0  0  0  0  0  0  0  0  0
   18.7209    0.1118   19.4051 C   0  0  0  0  0  0  0  0  0  0  0  0
  1  2  1  0
  2  3  1  0
  3  4  2  0
  4  5  1  0
  5  6  1  0
  5  7  2  0
  7  8  1  0
  8  9  2  0
  9 10  1  0
 10 11  1  0
 11 12  2  0
 11 13  1  0
 13 14  1  0
 14 15  2  0
 14 16  2  0
 14 17  1  0
 17 18  2  0
 18 19  1  0
 19 20  2  0
 20 21  1  0
 20 22  1  0
 22 23  2  0
 13 24  1  0
 24 25  1  0
 25 26  1  0
  9  3  1  0
 26 13  1  0
 23 17  1  0
M  END
>  <ref_mols>  (1028) 
B1396a

>  <gnina_score>  (1028) 
5.508

>  <smina_score_min>  (1028) 
-2.934

>  <ref_pdb>  (1028) 
B1396a

>  <inspiration_score>  (1028) 
None

>  <inchikey>  (1028) 
VOXZEXLOXHQXAS-UHFFFAOYSA-N

>  <tags>  (1028) 
BulkDock Fragalysis export,openbind_d68ev3c_c2_elabs_scored,openbind_d68ev3c_c2_elabs_scored_4.5plus,openbind_d68ev3c_c2_elabs,openbind_d68ev3c_c2_elabs_scored_5plus,syndirella_product,openbind_d68ev3c_c2_elabs_scored_top80percent,syndirella_placed

>  <smiles>  (1028) 
CCc1cc(Br)ccc1NC(=O)C1(S(=O)(=O)c2ccc(Cl)cc2)CCC1

>  <subsites>  (1028) 
None

>  <rmsd(smina/fragmenstein)>  (1028) 
3.658

>  <alias>  (1028) 
None

>  <energy_score>  (1028) 
-41.103195

>  <HIPPO Pose ID>  (1028) 
95229

>  <distance_score>  (1028) 
0.651514

>  <HIPPO Compound ID>  (1028) 
129074

>  <gnina_score_min>  (1028) 
5.15

>  <name>  (1028) 
P95229

>  <exports>  (1028) 
['/opt/xchem-fragalysis-2/maxwin/BulkDock/OUTPUTS/openbind_d68ev3c_c2_elabs_1LOTQJ3.sdf', '/opt/xchem-fragalysis-2/maxwin/BulkDock/OUTPUTS/openbind_d68ev3c_c2_elabs_1LSYI5W.sdf']

$$$$
P95230
     RDKit          3D

 26 28  0  0  0  0  0  0  0  0999 V2000
   13.8712   -3.9823   17.5012 C   0  0  0  0  0  0  0  0  0  0  0  0
   13.4323   -2.6626   16.9134 C   0  0  0  0  0  0  0  0  0  0  0  0
   12.2037   -2.6220   16.2261 C   0  0  0  0  0  0  0  0  0  0  0  0
   11.7128   -1.4114   15.7487 C   0  0  0  0  0  0  0  0  0  0  0  0
    9.9393   -1.2402   15.1443 Br  0  0  0  0  0  0  0  0  0  0  0  0
   12.4543   -0.2496   15.8714 C   0  0  0  0  0  0  0  0  0  0  0  0
   13.6725   -0.2670   16.5503 C   0  0  0  0  0  0  0  0  0  0  0  0
   14.2902    1.3068   16.9186 Cl  0  0  0  0  0  0  0  0  0  0  0  0
   14.1876   -1.4712   17.0736 C   0  0  0  0  0  0  0  0  0  0  0  0
   15.3709   -1.5405   17.8295 N   0  0  0  0  0  0  0  0  0  0  0  0
   16.6680   -0.6756   17.7629 C   0  0  0  0  0  0  0  0  0  0  0  0
   16.9161    0.2751   17.1199 O   0  0  0  0  0  0  0  0  0  0  0  0
   17.6932   -1.1757   18.8219 C   0  0  0  0  0  0  0  0  0  0  0  0
   18.4853   -2.6377   18.1440 S   0  0  0  0  0  0  0  0  0  0  0  0
   17.4725   -3.6845   18.1314 O   0  0  0  0  0  0  0  0  0  0  0  0
   19.7376   -2.8763   18.8381 O   0  0  0  0  0  0  0  0  0  0  0  0
   18.9370   -2.3585   16.4404 C   0  0  0  0  0  0  0  0  0  0  0  0
   18.5126   -3.2524   15.4506 C   0  0  0  0  0  0  0  0  0  0  0  0
   18.8702   -3.0215   14.1198 C   0  0  0  0  0  0  0  0  0  0  0  0
   19.6370   -1.9031   13.7904 C   0  0  0  0  0  0  0  0  0  0  0  0
   20.0772   -1.6206   12.1521 Cl  0  0  0  0  0  0  0  0  0  0  0  0
   20.0618   -1.0174   14.7810 C   0  0  0  0  0  0  0  0  0  0  0  0
   19.7184   -1.2463   16.1148 C   0  0  0  0  0  0  0  0  0  0  0  0
   18.6842   -0.1086   19.4038 C   0  0  0  0  0  0  0  0  0  0  0  0
   17.7066    0.0698   20.5779 C   0  0  0  0  0  0  0  0  0  0  0  0
   17.2076   -1.3581   20.2980 C   0  0  0  0  0  0  0  0  0  0  0  0
  1  2  1  0
  2  3  2  0
  3  4  1  0
  4  5  1  0
  4  6  2  0
  6  7  1  0
  7  8  1  0
  7  9  2  0
  9 10  1  0
 10 11  1  0
 11 12  2  0
 11 13  1  0
 13 14  1  0
 14 15  2  0
 14 16  2  0
 14 17  1  0
 17 18  2  0
 18 19  1  0
 19 20  2  0
 20 21  1  0
 20 22  1  0
 22 23  2  0
 13 24  1  0
 24 25  1  0
 25 26  1  0
  9  2  1  0
 26 13  1  0
 23 17  1  0
M  END
>  <ref_mols>  (1029) 
B1396a

>  <gnina_score>  (1029) 
5.723

>  <smina_score_min>  (1029) 
-3.312

>  <ref_pdb>  (1029) 
B1396a

>  <inspiration_score>  (1029) 
None

>  <inchikey>  (1029) 
PBBUERRXCLIMAR-UHFFFAOYSA-N

>  <tags>  (1029) 
BulkDock Fragalysis export,openbind_d68ev3c_c2_elabs_scored,openbind_d68ev3c_c2_elabs_scored_4.5plus,openbind_d68ev3c_c2_elabs,openbind_d68ev3c_c2_elabs_scored_5plus,syndirella_product,openbind_d68ev3c_c2_elabs_scored_top80percent,syndirella_placed

>  <smiles>  (1029) 
Cc1cc(Br)cc(Cl)c1NC(=O)C1(S(=O)(=O)c2ccc(Cl)cc2)CCC1

>  <subsites>  (1029) 
None

>  <rmsd(smina/fragmenstein)>  (1029) 
2.82

>  <alias>  (1029) 
None

>  <energy_score>  (1029) 
-28.002775

>  <HIPPO Pose ID>  (1029) 
95230

>  <distance_score>  (1029) 
0.609646

>  <HIPPO Compound ID>  (1029) 
129075

>  <gnina_score_min>  (1029) 
5.224

>  <name>  (1029) 
P95230

>  <exports>  (1029) 
['/opt/xchem-fragalysis-2/maxwin/BulkDock/OUTPUTS/openbind_d68ev3c_c2_elabs_1LOTQJ3.sdf', '/opt/xchem-fragalysis-2/maxwin/BulkDock/OUTPUTS/openbind_d68ev3c_c2_elabs_1LSYI5W.sdf']

$$$$
P95231
     RDKit          3D

 26 28  0  0  0  0  0  0  0  0999 V2000
   13.6446    1.8116   17.0070 C   0  0  0  0  0  0  0  0  0  0  0  0
   14.1310    0.9677   15.4848 S   0  0  0  0  0  0  0  0  0  0  0  0
   13.4915   -0.6669   15.8225 C   0  0  0  0  0  0  0  0  0  0  0  0
   12.3195   -0.9287   15.0752 C   0  0  0  0  0  0  0  0  0  0  0  0
   11.6309   -2.1284   15.1812 C   0  0  0  0  0  0  0  0  0  0  0  0
   12.1089   -3.1010   16.0392 C   0  0  0  0  0  0  0  0  0  0  0  0
   13.2726   -2.8859   16.7989 C   0  0  0  0  0  0  0  0  0  0  0  0
   13.7246   -4.0301   17.6803 C   0  0  0  0  0  0  0  0  0  0  0  0
   13.9916   -1.6554   16.7032 C   0  0  0  0  0  0  0  0  0  0  0  0
   15.1346   -1.5906   17.5409 N   0  0  0  0  0  0  0  0  0  0  0  0
   16.3194   -0.5751   17.5625 C   0  0  0  0  0  0  0  0  0  0  0  0
   16.4910    0.4063   16.9420 O   0  0  0  0  0  0  0  0  0  0  0  0
   17.3306   -0.9673   18.6889 C   0  0  0  0  0  0  0  0  0  0  0  0
   18.2574   -2.4129   18.1397 S   0  0  0  0  0  0  0  0  0  0  0  0
   19.4955   -2.5162   18.8929 O   0  0  0  0  0  0  0  0  0  0  0  0
   17.3316   -3.5367   18.1624 O   0  0  0  0  0  0  0  0  0  0  0  0
   18.7612   -2.2054   16.4415 C   0  0  0  0  0  0  0  0  0  0  0  0
   19.5282   -1.0904   16.0920 C   0  0  0  0  0  0  0  0  0  0  0  0
   19.9319   -0.9254   14.7656 C   0  0  0  0  0  0  0  0  0  0  0  0
   19.5802   -1.8760   13.8070 C   0  0  0  0  0  0  0  0  0  0  0  0
   20.0977   -1.6735   12.1795 Cl  0  0  0  0  0  0  0  0  0  0  0  0
   18.8262   -2.9955   14.1613 C   0  0  0  0  0  0  0  0  0  0  0  0
   18.4096   -3.1638   15.4844 C   0  0  0  0  0  0  0  0  0  0  0  0
   18.2241    0.1882   19.2627 C   0  0  0  0  0  0  0  0  0  0  0  0
   17.1750    0.3645   20.3740 C   0  0  0  0  0  0  0  0  0  0  0  0
   16.7784   -1.1045   20.1471 C   0  0  0  0  0  0  0  0  0  0  0  0
  1  2  1  0
  2  3  1  0
  3  4  2  0
  4  5  1  0
  5  6  2  0
  6  7  1  0
  7  8  1  0
  7  9  2  0
  9 10  1  0
 10 11  1  0
 11 12  2  0
 11 13  1  0
 13 14  1  0
 14 15  2  0
 14 16  2  0
 14 17  1  0
 17 18  2  0
 18 19  1  0
 19 20  2  0
 20 21  1  0
 20 22  1  0
 22 23  2  0
 13 24  1  0
 24 25  1  0
 25 26  1  0
  9  3  1  0
 26 13  1  0
 23 17  1  0
M  END
>  <ref_mols>  (1030) 
B1396a

>  <gnina_score>  (1030) 
5.128

>  <smina_score_min>  (1030) 
-3.269

>  <ref_pdb>  (1030) 
B1396a

>  <inspiration_score>  (1030) 
None

>  <inchikey>  (1030) 
RFCFSRJEOFNKNE-UHFFFAOYSA-N

>  <tags>  (1030) 
BulkDock Fragalysis export,openbind_d68ev3c_c2_elabs_scored,openbind_d68ev3c_c2_elabs_scored_4.5plus,openbind_d68ev3c_c2_elabs,openbind_d68ev3c_c2_elabs_scored_5plus,syndirella_product,openbind_d68ev3c_c2_elabs_scored_top80percent,syndirella_placed

>  <smiles>  (1030) 
CSc1cccc(C)c1NC(=O)C1(S(=O)(=O)c2ccc(Cl)cc2)CCC1

>  <subsites>  (1030) 
None

>  <rmsd(smina/fragmenstein)>  (1030) 
1.988

>  <alias>  (1030) 
None

>  <energy_score>  (1030) 
-29.599394

>  <HIPPO Pose ID>  (1030) 
95231

>  <distance_score>  (1030) 
0.391466

>  <HIPPO Compound ID>  (1030) 
129076

>  <gnina_score_min>  (1030) 
5.164

>  <name>  (1030) 
P95231

>  <exports>  (1030) 
['/opt/xchem-fragalysis-2/maxwin/BulkDock/OUTPUTS/openbind_d68ev3c_c2_elabs_1LOTQJ3.sdf', '/opt/xchem-fragalysis-2/maxwin/BulkDock/OUTPUTS/openbind_d68ev3c_c2_elabs_1LSYI5W.sdf']

$$$$
P95232
     RDKit          3D

 26 28  0  0  0  0  0  0  0  0999 V2000
   14.1202   -4.9473   18.1675 N   0  0  0  0  0  0  0  0  0  0  0  0
   13.7302   -4.0353   17.5681 C   0  0  0  0  0  0  0  0  0  0  0  0
   13.3524   -2.8644   16.8413 C   0  0  0  0  0  0  0  0  0  0  0  0
   12.2202   -2.9058   16.0287 C   0  0  0  0  0  0  0  0  0  0  0  0
   11.4990   -4.0254   15.9446 F   0  0  0  0  0  0  0  0  0  0  0  0
   11.8064   -1.8044   15.2887 C   0  0  0  0  0  0  0  0  0  0  0  0
   12.5491   -0.6328   15.3516 C   0  0  0  0  0  0  0  0  0  0  0  0
   13.6990   -0.5765   16.1475 C   0  0  0  0  0  0  0  0  0  0  0  0
   14.1109   -1.6863   16.8974 C   0  0  0  0  0  0  0  0  0  0  0  0
   15.2593   -1.6063   17.6976 N   0  0  0  0  0  0  0  0  0  0  0  0
   16.3854   -0.5303   17.7468 C   0  0  0  0  0  0  0  0  0  0  0  0
   16.4846    0.4929   17.1799 O   0  0  0  0  0  0  0  0  0  0  0  0
   17.4525   -0.9484   18.8097 C   0  0  0  0  0  0  0  0  0  0  0  0
   18.3744   -2.3657   18.1672 S   0  0  0  0  0  0  0  0  0  0  0  0
   19.6498   -2.4780   18.8512 O   0  0  0  0  0  0  0  0  0  0  0  0
   17.4499   -3.4892   18.1921 O   0  0  0  0  0  0  0  0  0  0  0  0
   18.7907   -2.1254   16.4479 C   0  0  0  0  0  0  0  0  0  0  0  0
   19.4795   -0.9740   16.0604 C   0  0  0  0  0  0  0  0  0  0  0  0
   19.8248   -0.8024   14.7179 C   0  0  0  0  0  0  0  0  0  0  0  0
   19.4912   -1.7800   13.7799 C   0  0  0  0  0  0  0  0  0  0  0  0
   19.9332   -1.5634   12.1324 Cl  0  0  0  0  0  0  0  0  0  0  0  0
   18.8138   -2.9350   14.1706 C   0  0  0  0  0  0  0  0  0  0  0  0
   18.4574   -3.1112   15.5099 C   0  0  0  0  0  0  0  0  0  0  0  0
   16.9222   -1.1633   20.2662 C   0  0  0  0  0  0  0  0  0  0  0  0
   18.1654   -0.4387   20.7985 C   0  0  0  0  0  0  0  0  0  0  0  0
   18.3422    0.1892   19.4079 C   0  0  0  0  0  0  0  0  0  0  0  0
  1  2  3  0
  2  3  1  0
  3  4  2  0
  4  5  1  0
  4  6  1  0
  6  7  2  0
  7  8  1  0
  8  9  2  0
  9 10  1  0
 10 11  1  0
 11 12  2  0
 11 13  1  0
 13 14  1  0
 14 15  2  0
 14 16  2  0
 14 17  1  0
 17 18  2  0
 18 19  1  0
 19 20  2  0
 20 21  1  0
 20 22  1  0
 22 23  2  0
 13 24  1  0
 24 25  1  0
 25 26  1  0
  9  3  1  0
 26 13  1  0
 23 17  1  0
M  END
>  <ref_mols>  (1031) 
B1396a

>  <gnina_score>  (1031) 
5.378

>  <smina_score_min>  (1031) 
-3.836

>  <ref_pdb>  (1031) 
B1396a

>  <inspiration_score>  (1031) 
None

>  <inchikey>  (1031) 
ONIXBSWJDBHAOQ-UHFFFAOYSA-N

>  <tags>  (1031) 
BulkDock Fragalysis export,openbind_d68ev3c_c2_elabs_scored,openbind_d68ev3c_c2_elabs_scored_4.5plus,openbind_d68ev3c_c2_elabs,openbind_d68ev3c_c2_elabs_scored_5plus,syndirella_product,openbind_d68ev3c_c2_elabs_scored_top80percent,syndirella_placed

>  <smiles>  (1031) 
N#Cc1c(F)cccc1NC(=O)C1(S(=O)(=O)c2ccc(Cl)cc2)CCC1

>  <subsites>  (1031) 
None

>  <rmsd(smina/fragmenstein)>  (1031) 
2.256

>  <alias>  (1031) 
None

>  <energy_score>  (1031) 
-27.68966

>  <HIPPO Pose ID>  (1031) 
95232

>  <distance_score>  (1031) 
0.482032

>  <HIPPO Compound ID>  (1031) 
129077

>  <gnina_score_min>  (1031) 
5.127

>  <name>  (1031) 
P95232

>  <exports>  (1031) 
['/opt/xchem-fragalysis-2/maxwin/BulkDock/OUTPUTS/openbind_d68ev3c_c2_elabs_1LOTQJ3.sdf', '/opt/xchem-fragalysis-2/maxwin/BulkDock/OUTPUTS/openbind_d68ev3c_c2_elabs_1LSYI5W.sdf']

$$$$
P95233
     RDKit          3D

 26 28  0  0  0  0  0  0  0  0999 V2000
   14.1117   -4.9942   18.3192 N   0  0  0  0  0  0  0  0  0  0  0  0
   13.7152   -4.1259   17.6631 C   0  0  0  0  0  0  0  0  0  0  0  0
   13.2929   -3.0182   16.8587 C   0  0  0  0  0  0  0  0  0  0  0  0
   12.1342   -3.1495   16.0792 C   0  0  0  0  0  0  0  0  0  0  0  0
   11.6986   -2.0981   15.2742 C   0  0  0  0  0  0  0  0  0  0  0  0
   12.4310   -0.9153   15.2452 C   0  0  0  0  0  0  0  0  0  0  0  0
   11.8388    0.5146   14.1591 Br  0  0  0  0  0  0  0  0  0  0  0  0
   13.5961   -0.7760   16.0057 C   0  0  0  0  0  0  0  0  0  0  0  0
   14.0364   -1.8256   16.8203 C   0  0  0  0  0  0  0  0  0  0  0  0
   15.1966   -1.6868   17.5963 N   0  0  0  0  0  0  0  0  0  0  0  0
   16.2474   -0.5377   17.6486 C   0  0  0  0  0  0  0  0  0  0  0  0
   16.2627    0.5038   17.1072 O   0  0  0  0  0  0  0  0  0  0  0  0
   17.3659   -0.8950   18.6940 C   0  0  0  0  0  0  0  0  0  0  0  0
   18.2974   -2.3261   18.1105 S   0  0  0  0  0  0  0  0  0  0  0  0
   17.3806   -3.4554   18.1436 O   0  0  0  0  0  0  0  0  0  0  0  0
   19.5561   -2.4198   18.8286 O   0  0  0  0  0  0  0  0  0  0  0  0
   18.7523   -2.1086   16.4008 C   0  0  0  0  0  0  0  0  0  0  0  0
   19.4839   -0.9783   16.0285 C   0  0  0  0  0  0  0  0  0  0  0  0
   19.8616   -0.8176   14.6939 C   0  0  0  0  0  0  0  0  0  0  0  0
   19.5181   -1.7861   13.7498 C   0  0  0  0  0  0  0  0  0  0  0  0
   20.0011   -1.5847   12.1118 Cl  0  0  0  0  0  0  0  0  0  0  0  0
   18.7991   -2.9207   14.1268 C   0  0  0  0  0  0  0  0  0  0  0  0
   18.4100   -3.0858   15.4583 C   0  0  0  0  0  0  0  0  0  0  0  0
   16.9082   -1.0363   20.1851 C   0  0  0  0  0  0  0  0  0  0  0  0
   17.2875    0.4414   20.3829 C   0  0  0  0  0  0  0  0  0  0  0  0
   18.2616    0.2879   19.2018 C   0  0  0  0  0  0  0  0  0  0  0  0
  1  2  3  0
  2  3  1  0
  3  4  2  0
  4  5  1  0
  5  6  2  0
  6  7  1  0
  6  8  1  0
  8  9  2  0
  9 10  1  0
 10 11  1  0
 11 12  2  0
 11 13  1  0
 13 14  1  0
 14 15  2  0
 14 16  2  0
 14 17  1  0
 17 18  2  0
 18 19  1  0
 19 20  2  0
 20 21  1  0
 20 22  1  0
 22 23  2  0
 13 24  1  0
 24 25  1  0
 25 26  1  0
  9  3  1  0
 26 13  1  0
 23 17  1  0
M  END
>  <ref_mols>  (1032) 
B1396a

>  <gnina_score>  (1032) 
5.383

>  <smina_score_min>  (1032) 
-3.714

>  <ref_pdb>  (1032) 
B1396a

>  <inspiration_score>  (1032) 
None

>  <inchikey>  (1032) 
HTGKBONFLCCJHS-UHFFFAOYSA-N

>  <tags>  (1032) 
BulkDock Fragalysis export,openbind_d68ev3c_c2_elabs_scored,openbind_d68ev3c_c2_elabs_scored_4.5plus,openbind_d68ev3c_c2_elabs,openbind_d68ev3c_c2_elabs_scored_5plus,syndirella_product,openbind_d68ev3c_c2_elabs_scored_top80percent,syndirella_placed

>  <smiles>  (1032) 
N#Cc1ccc(Br)cc1NC(=O)C1(S(=O)(=O)c2ccc(Cl)cc2)CCC1

>  <subsites>  (1032) 
None

>  <rmsd(smina/fragmenstein)>  (1032) 
1.552

>  <alias>  (1032) 
None

>  <energy_score>  (1032) 
-34.463881

>  <HIPPO Pose ID>  (1032) 
95233

>  <distance_score>  (1032) 
0.408563

>  <HIPPO Compound ID>  (1032) 
129078

>  <gnina_score_min>  (1032) 
5.168

>  <name>  (1032) 
P95233

>  <exports>  (1032) 
['/opt/xchem-fragalysis-2/maxwin/BulkDock/OUTPUTS/openbind_d68ev3c_c2_elabs_1LOTQJ3.sdf', '/opt/xchem-fragalysis-2/maxwin/BulkDock/OUTPUTS/openbind_d68ev3c_c2_elabs_1LSYI5W.sdf']

$$$$
P95236
     RDKit          3D

 26 28  0  0  0  0  0  0  0  0999 V2000
   14.2338    0.9590   16.6832 C   0  0  0  0  0  0  0  0  0  0  0  0
   13.6672   -0.4252   16.5300 C   0  0  0  0  0  0  0  0  0  0  0  0
   12.4646   -0.5050   15.8070 C   0  0  0  0  0  0  0  0  0  0  0  0
   11.7700   -1.6987   15.7082 C   0  0  0  0  0  0  0  0  0  0  0  0
   10.2099   -1.6773   15.0163 Cl  0  0  0  0  0  0  0  0  0  0  0  0
   12.2786   -2.8589   16.2684 C   0  0  0  0  0  0  0  0  0  0  0  0
   13.4857   -2.8207   16.9844 C   0  0  0  0  0  0  0  0  0  0  0  0
   13.9577   -4.1067   17.6191 C   0  0  0  0  0  0  0  0  0  0  0  0
   14.1995   -1.5963   17.1098 C   0  0  0  0  0  0  0  0  0  0  0  0
   15.3713   -1.6270   17.8849 N   0  0  0  0  0  0  0  0  0  0  0  0
   16.6181   -0.6894   17.8740 C   0  0  0  0  0  0  0  0  0  0  0  0
   16.8231    0.2967   17.2701 O   0  0  0  0  0  0  0  0  0  0  0  0
   17.6486   -1.1890   18.9227 C   0  0  0  0  0  0  0  0  0  0  0  0
   18.5095   -2.5996   18.2002 S   0  0  0  0  0  0  0  0  0  0  0  0
   19.7954   -2.7696   18.8519 O   0  0  0  0  0  0  0  0  0  0  0  0
   17.5613   -3.7052   18.2063 O   0  0  0  0  0  0  0  0  0  0  0  0
   18.8965   -2.2906   16.4841 C   0  0  0  0  0  0  0  0  0  0  0  0
   18.4852   -3.1996   15.5019 C   0  0  0  0  0  0  0  0  0  0  0  0
   18.8133   -2.9609   14.1646 C   0  0  0  0  0  0  0  0  0  0  0  0
   19.5380   -1.8196   13.8202 C   0  0  0  0  0  0  0  0  0  0  0  0
   19.9431   -1.5273   12.1747 Cl  0  0  0  0  0  0  0  0  0  0  0  0
   19.9485   -0.9178   14.8020 C   0  0  0  0  0  0  0  0  0  0  0  0
   19.6343   -1.1540   16.1420 C   0  0  0  0  0  0  0  0  0  0  0  0
   17.1193   -1.4496   20.3708 C   0  0  0  0  0  0  0  0  0  0  0  0
   18.3938   -0.7998   20.9257 C   0  0  0  0  0  0  0  0  0  0  0  0
   18.5809   -0.1114   19.5656 C   0  0  0  0  0  0  0  0  0  0  0  0
  1  2  1  0
  2  3  2  0
  3  4  1  0
  4  5  1  0
  4  6  2  0
  6  7  1  0
  7  8  1  0
  7  9  2  0
  9 10  1  0
 10 11  1  0
 11 12  2  0
 11 13  1  0
 13 14  1  0
 14 15  2  0
 14 16  2  0
 14 17  1  0
 17 18  2  0
 18 19  1  0
 19 20  2  0
 20 21  1  0
 20 22  1  0
 22 23  2  0
 13 24  1  0
 24 25  1  0
 25 26  1  0
  9  2  1  0
 26 13  1  0
 23 17  1  0
M  END
>  <ref_mols>  (1033) 
B1396a

>  <gnina_score>  (1033) 
5.473

>  <smina_score_min>  (1033) 
-3.545

>  <ref_pdb>  (1033) 
B1396a

>  <inspiration_score>  (1033) 
None

>  <inchikey>  (1033) 
TVDSWJJPXBZNRW-UHFFFAOYSA-N

>  <tags>  (1033) 
BulkDock Fragalysis export,openbind_d68ev3c_c2_elabs_scored,openbind_d68ev3c_c2_elabs_scored_4.5plus,openbind_d68ev3c_c2_elabs,openbind_d68ev3c_c2_elabs_scored_5plus,syndirella_product,openbind_d68ev3c_c2_elabs_scored_top80percent,syndirella_placed

>  <smiles>  (1033) 
Cc1cc(Cl)cc(C)c1NC(=O)C1(S(=O)(=O)c2ccc(Cl)cc2)CCC1

>  <subsites>  (1033) 
None

>  <rmsd(smina/fragmenstein)>  (1033) 
2.144

>  <alias>  (1033) 
None

>  <energy_score>  (1033) 
-39.573537

>  <HIPPO Pose ID>  (1033) 
95236

>  <distance_score>  (1033) 
0.56351

>  <HIPPO Compound ID>  (1033) 
129082

>  <gnina_score_min>  (1033) 
5.219

>  <name>  (1033) 
P95236

>  <exports>  (1033) 
['/opt/xchem-fragalysis-2/maxwin/BulkDock/OUTPUTS/openbind_d68ev3c_c2_elabs_1LOTQJ3.sdf', '/opt/xchem-fragalysis-2/maxwin/BulkDock/OUTPUTS/openbind_d68ev3c_c2_elabs_1LSYI5W.sdf']

$$$$
P95237
     RDKit          3D

 26 28  0  0  0  0  0  0  0  0999 V2000
   12.3626    2.0166   15.1747 C   0  0  0  0  0  0  0  0  0  0  0  0
   11.6516    0.5634   14.3534 S   0  0  0  0  0  0  0  0  0  0  0  0
   12.3307   -0.7908   15.3064 C   0  0  0  0  0  0  0  0  0  0  0  0
   11.6242   -1.9950   15.2947 C   0  0  0  0  0  0  0  0  0  0  0  0
   12.0820   -3.0903   16.0284 C   0  0  0  0  0  0  0  0  0  0  0  0
   13.2570   -3.0109   16.7886 C   0  0  0  0  0  0  0  0  0  0  0  0
   13.6940   -4.2108   17.5842 C   0  0  0  0  0  0  0  0  0  0  0  0
   13.9868   -1.8130   16.7781 C   0  0  0  0  0  0  0  0  0  0  0  0
   15.1721   -1.7244   17.5108 N   0  0  0  0  0  0  0  0  0  0  0  0
   16.2268   -0.5813   17.5940 C   0  0  0  0  0  0  0  0  0  0  0  0
   16.3016    0.4290   17.0008 O   0  0  0  0  0  0  0  0  0  0  0  0
   17.2849   -0.9296   18.6988 C   0  0  0  0  0  0  0  0  0  0  0  0
   18.2458   -2.3578   18.1544 S   0  0  0  0  0  0  0  0  0  0  0  0
   17.3402   -3.4987   18.1757 O   0  0  0  0  0  0  0  0  0  0  0  0
   19.4858   -2.4358   18.9065 O   0  0  0  0  0  0  0  0  0  0  0  0
   18.7420   -2.1421   16.4547 C   0  0  0  0  0  0  0  0  0  0  0  0
   18.3763   -3.0898   15.4918 C   0  0  0  0  0  0  0  0  0  0  0  0
   18.7928   -2.9187   14.1690 C   0  0  0  0  0  0  0  0  0  0  0  0
   19.5623   -1.8080   13.8212 C   0  0  0  0  0  0  0  0  0  0  0  0
   20.0782   -1.6001   12.1940 Cl  0  0  0  0  0  0  0  0  0  0  0  0
   19.9294   -0.8692   14.7859 C   0  0  0  0  0  0  0  0  0  0  0  0
   19.5245   -1.0362   16.1118 C   0  0  0  0  0  0  0  0  0  0  0  0
   18.1502    0.2556   19.2482 C   0  0  0  0  0  0  0  0  0  0  0  0
   17.1167    0.4069   20.3785 C   0  0  0  0  0  0  0  0  0  0  0  0
   16.7544   -1.0730   20.1637 C   0  0  0  0  0  0  0  0  0  0  0  0
   13.5245   -0.7191   16.0342 C   0  0  0  0  0  0  0  0  0  0  0  0
  1  2  1  0
  2  3  1  0
  3  4  2  0
  4  5  1  0
  5  6  2  0
  6  7  1  0
  6  8  1  0
  8  9  1  0
  9 10  1  0
 10 11  2  0
 10 12  1  0
 12 13  1  0
 13 14  2  0
 13 15  2  0
 13 16  1  0
 16 17  2  0
 17 18  1  0
 18 19  2  0
 19 20  1  0
 19 21  1  0
 21 22  2  0
 12 23  1  0
 23 24  1  0
 24 25  1  0
  8 26  2  0
 26  3  1  0
 25 12  1  0
 22 16  1  0
M  END
>  <ref_mols>  (1034) 
B1396a

>  <gnina_score>  (1034) 
5.195

>  <smina_score_min>  (1034) 
-3.974

>  <ref_pdb>  (1034) 
B1396a

>  <inspiration_score>  (1034) 
None

>  <inchikey>  (1034) 
PIYALVABFDVWSJ-UHFFFAOYSA-N

>  <tags>  (1034) 
BulkDock Fragalysis export,openbind_d68ev3c_c2_elabs_scored,openbind_d68ev3c_c2_elabs_scored_4.5plus,openbind_d68ev3c_c2_elabs,openbind_d68ev3c_c2_elabs_scored_5plus,syndirella_product,openbind_d68ev3c_c2_elabs_scored_top80percent,syndirella_placed

>  <smiles>  (1034) 
CSc1ccc(C)c(NC(=O)C2(S(=O)(=O)c3ccc(Cl)cc3)CCC2)c1

>  <subsites>  (1034) 
None

>  <rmsd(smina/fragmenstein)>  (1034) 
1.843

>  <alias>  (1034) 
None

>  <energy_score>  (1034) 
-23.60486

>  <HIPPO Pose ID>  (1034) 
95237

>  <distance_score>  (1034) 
0.366001

>  <HIPPO Compound ID>  (1034) 
129083

>  <gnina_score_min>  (1034) 
5.127

>  <name>  (1034) 
P95237

>  <exports>  (1034) 
['/opt/xchem-fragalysis-2/maxwin/BulkDock/OUTPUTS/openbind_d68ev3c_c2_elabs_1LOTQJ3.sdf', '/opt/xchem-fragalysis-2/maxwin/BulkDock/OUTPUTS/openbind_d68ev3c_c2_elabs_1LSYI5W.sdf']

$$$$
P95238
     RDKit          3D

 26 28  0  0  0  0  0  0  0  0999 V2000
   12.1833   -3.1822   13.4675 C   0  0  0  0  0  0  0  0  0  0  0  0
   11.4956   -3.4307   15.1190 S   0  0  0  0  0  0  0  0  0  0  0  0
   12.3866   -2.1447   15.9500 C   0  0  0  0  0  0  0  0  0  0  0  0
   12.0499   -0.8445   15.5496 C   0  0  0  0  0  0  0  0  0  0  0  0
   12.8287    0.2269   15.9399 C   0  0  0  0  0  0  0  0  0  0  0  0
   13.9492    0.0000   16.7293 C   0  0  0  0  0  0  0  0  0  0  0  0
   14.2627   -1.2840   17.1919 C   0  0  0  0  0  0  0  0  0  0  0  0
   15.4147   -1.4612   17.9614 N   0  0  0  0  0  0  0  0  0  0  0  0
   16.5871   -0.4803   18.2701 C   0  0  0  0  0  0  0  0  0  0  0  0
   16.7262    0.6518   17.9885 O   0  0  0  0  0  0  0  0  0  0  0  0
   17.6494   -1.1814   19.1748 C   0  0  0  0  0  0  0  0  0  0  0  0
   18.3683   -2.5764   18.2896 S   0  0  0  0  0  0  0  0  0  0  0  0
   17.3379   -3.6053   18.2446 O   0  0  0  0  0  0  0  0  0  0  0  0
   19.6608   -2.8989   18.8663 O   0  0  0  0  0  0  0  0  0  0  0  0
   18.7239   -2.1771   16.5874 C   0  0  0  0  0  0  0  0  0  0  0  0
   19.3964   -0.9941   16.2751 C   0  0  0  0  0  0  0  0  0  0  0  0
   19.7068   -0.7171   14.9404 C   0  0  0  0  0  0  0  0  0  0  0  0
   19.3532   -1.6204   13.9366 C   0  0  0  0  0  0  0  0  0  0  0  0
   19.7412   -1.2699   12.2981 Cl  0  0  0  0  0  0  0  0  0  0  0  0
   18.6909   -2.8060   14.2522 C   0  0  0  0  0  0  0  0  0  0  0  0
   18.3691   -3.0869   15.5820 C   0  0  0  0  0  0  0  0  0  0  0  0
   17.1903   -1.5559   20.6245 C   0  0  0  0  0  0  0  0  0  0  0  0
   17.7703   -0.2115   21.0964 C   0  0  0  0  0  0  0  0  0  0  0  0
   18.7054   -0.2545   19.8750 C   0  0  0  0  0  0  0  0  0  0  0  0
   13.4445   -2.3807   16.8532 C   0  0  0  0  0  0  0  0  0  0  0  0
   13.7436   -3.7590   17.3947 C   0  0  0  0  0  0  0  0  0  0  0  0
  1  2  1  0
  2  3  1  0
  3  4  2  0
  4  5  1  0
  5  6  2  0
  6  7  1  0
  7  8  1  0
  8  9  1  0
  9 10  2  0
  9 11  1  0
 11 12  1  0
 12 13  2  0
 12 14  2  0
 12 15  1  0
 15 16  2  0
 16 17  1  0
 17 18  2  0
 18 19  1  0
 18 20  1  0
 20 21  2  0
 11 22  1  0
 22 23  1  0
 23 24  1  0
  7 25  2  0
 25 26  1  0
 25  3  1  0
 24 11  1  0
 21 15  1  0
M  END
>  <ref_mols>  (1035) 
B1396a

>  <gnina_score>  (1035) 
5.12

>  <smina_score_min>  (1035) 
-3.314

>  <ref_pdb>  (1035) 
B1396a

>  <inspiration_score>  (1035) 
None

>  <inchikey>  (1035) 
XCTWJKBTDKZWAG-UHFFFAOYSA-N

>  <tags>  (1035) 
BulkDock Fragalysis export,openbind_d68ev3c_c2_elabs_scored,openbind_d68ev3c_c2_elabs_scored_4.5plus,openbind_d68ev3c_c2_elabs,openbind_d68ev3c_c2_elabs_scored_5plus,syndirella_product,openbind_d68ev3c_c2_elabs_scored_top80percent,syndirella_placed

>  <smiles>  (1035) 
CSc1cccc(NC(=O)C2(S(=O)(=O)c3ccc(Cl)cc3)CCC2)c1C

>  <subsites>  (1035) 
None

>  <rmsd(smina/fragmenstein)>  (1035) 
2.047

>  <alias>  (1035) 
None

>  <energy_score>  (1035) 
-32.197969

>  <HIPPO Pose ID>  (1035) 
95238

>  <distance_score>  (1035) 
0.927342

>  <HIPPO Compound ID>  (1035) 
129084

>  <gnina_score_min>  (1035) 
5.173

>  <name>  (1035) 
P95238

>  <exports>  (1035) 
['/opt/xchem-fragalysis-2/maxwin/BulkDock/OUTPUTS/openbind_d68ev3c_c2_elabs_1LOTQJ3.sdf', '/opt/xchem-fragalysis-2/maxwin/BulkDock/OUTPUTS/openbind_d68ev3c_c2_elabs_1LSYI5W.sdf']

$$$$
P95239
     RDKit          3D

 26 28  0  0  0  0  0  0  0  0999 V2000
   13.7399   -4.1066   17.5430 C   0  0  0  0  0  0  0  0  0  0  0  0
   13.2252   -2.9119   16.7751 C   0  0  0  0  0  0  0  0  0  0  0  0
   12.0788   -3.0864   15.9796 C   0  0  0  0  0  0  0  0  0  0  0  0
   11.5547   -2.0315   15.2455 C   0  0  0  0  0  0  0  0  0  0  0  0
   12.1502   -0.7831   15.3374 C   0  0  0  0  0  0  0  0  0  0  0  0
   11.5684    0.2339   14.6824 F   0  0  0  0  0  0  0  0  0  0  0  0
   13.2909   -0.5703   16.1244 C   0  0  0  0  0  0  0  0  0  0  0  0
   13.7748    1.2527   16.3789 Br  0  0  0  0  0  0  0  0  0  0  0  0
   13.8748   -1.6511   16.8140 C   0  0  0  0  0  0  0  0  0  0  0  0
   15.0689   -1.5945   17.5552 N   0  0  0  0  0  0  0  0  0  0  0  0
   16.3007   -0.6491   17.4196 C   0  0  0  0  0  0  0  0  0  0  0  0
   16.5414    0.1761   16.6204 O   0  0  0  0  0  0  0  0  0  0  0  0
   17.3029   -0.9160   18.5881 C   0  0  0  0  0  0  0  0  0  0  0  0
   18.2608   -2.3808   18.1473 S   0  0  0  0  0  0  0  0  0  0  0  0
   17.3422   -3.5100   18.1903 O   0  0  0  0  0  0  0  0  0  0  0  0
   19.4727   -2.4365   18.9463 O   0  0  0  0  0  0  0  0  0  0  0  0
   18.8168   -2.2436   16.4566 C   0  0  0  0  0  0  0  0  0  0  0  0
   18.4453   -3.2090   15.5143 C   0  0  0  0  0  0  0  0  0  0  0  0
   18.8862   -3.0821   14.1944 C   0  0  0  0  0  0  0  0  0  0  0  0
   19.6843   -1.9971   13.8288 C   0  0  0  0  0  0  0  0  0  0  0  0
   20.2293   -1.8457   12.2046 Cl  0  0  0  0  0  0  0  0  0  0  0  0
   20.0588   -1.0415   14.7736 C   0  0  0  0  0  0  0  0  0  0  0  0
   19.6315   -1.1657   16.0969 C   0  0  0  0  0  0  0  0  0  0  0  0
   16.7565   -0.9455   20.0531 C   0  0  0  0  0  0  0  0  0  0  0  0
   17.1197    0.5458   20.1563 C   0  0  0  0  0  0  0  0  0  0  0  0
   18.1696    0.3024   19.0589 C   0  0  0  0  0  0  0  0  0  0  0  0
  1  2  1  0
  2  3  2  0
  3  4  1  0
  4  5  2  0
  5  6  1  0
  5  7  1  0
  7  8  1  0
  7  9  2  0
  9 10  1  0
 10 11  1  0
 11 12  2  0
 11 13  1  0
 13 14  1  0
 14 15  2  0
 14 16  2  0
 14 17  1  0
 17 18  2  0
 18 19  1  0
 19 20  2  0
 20 21  1  0
 20 22  1  0
 22 23  2  0
 13 24  1  0
 24 25  1  0
 25 26  1  0
  9  2  1  0
 26 13  1  0
 23 17  1  0
M  END
>  <ref_mols>  (1036) 
B1396a

>  <gnina_score>  (1036) 
5.307

>  <smina_score_min>  (1036) 
-4.033

>  <ref_pdb>  (1036) 
B1396a

>  <inspiration_score>  (1036) 
None

>  <inchikey>  (1036) 
CVNLPGQNJIPPTF-UHFFFAOYSA-N

>  <tags>  (1036) 
BulkDock Fragalysis export,openbind_d68ev3c_c2_elabs_scored,openbind_d68ev3c_c2_elabs_scored_4.5plus,openbind_d68ev3c_c2_elabs,openbind_d68ev3c_c2_elabs_scored_5plus,syndirella_product,openbind_d68ev3c_c2_elabs_scored_top80percent,syndirella_placed

>  <smiles>  (1036) 
Cc1ccc(F)c(Br)c1NC(=O)C1(S(=O)(=O)c2ccc(Cl)cc2)CCC1

>  <subsites>  (1036) 
None

>  <rmsd(smina/fragmenstein)>  (1036) 
2.191

>  <alias>  (1036) 
None

>  <energy_score>  (1036) 
-27.947657

>  <HIPPO Pose ID>  (1036) 
95239

>  <distance_score>  (1036) 
0.300192

>  <HIPPO Compound ID>  (1036) 
129087

>  <gnina_score_min>  (1036) 
5.141

>  <name>  (1036) 
P95239

>  <exports>  (1036) 
['/opt/xchem-fragalysis-2/maxwin/BulkDock/OUTPUTS/openbind_d68ev3c_c2_elabs_1LOTQJ3.sdf', '/opt/xchem-fragalysis-2/maxwin/BulkDock/OUTPUTS/openbind_d68ev3c_c2_elabs_1LSYI5W.sdf']

$$$$
P95241
     RDKit          3D

 26 28  0  0  0  0  0  0  0  0999 V2000
   13.9103   -4.1898   17.6608 C   0  0  0  0  0  0  0  0  0  0  0  0
   13.3570   -3.0085   16.9038 C   0  0  0  0  0  0  0  0  0  0  0  0
   12.1786   -3.1985   16.1684 C   0  0  0  0  0  0  0  0  0  0  0  0
   11.6226   -2.1550   15.4496 C   0  0  0  0  0  0  0  0  0  0  0  0
   10.4797   -2.3562   14.7866 F   0  0  0  0  0  0  0  0  0  0  0  0
   12.1974   -0.8986   15.4648 C   0  0  0  0  0  0  0  0  0  0  0  0
   13.3670   -0.6793   16.2019 C   0  0  0  0  0  0  0  0  0  0  0  0
   13.8239    0.9798   16.3505 Cl  0  0  0  0  0  0  0  0  0  0  0  0
   13.9879   -1.7394   16.8984 C   0  0  0  0  0  0  0  0  0  0  0  0
   15.1942   -1.6456   17.6140 N   0  0  0  0  0  0  0  0  0  0  0  0
   16.3752   -0.6373   17.4797 C   0  0  0  0  0  0  0  0  0  0  0  0
   16.5567    0.2214   16.7006 O   0  0  0  0  0  0  0  0  0  0  0  0
   17.4140   -0.8968   18.6181 C   0  0  0  0  0  0  0  0  0  0  0  0
   18.3590   -2.3634   18.1578 S   0  0  0  0  0  0  0  0  0  0  0  0
   17.4408   -3.4920   18.2290 O   0  0  0  0  0  0  0  0  0  0  0  0
   19.5909   -2.4176   18.9252 O   0  0  0  0  0  0  0  0  0  0  0  0
   18.8690   -2.2303   16.4528 C   0  0  0  0  0  0  0  0  0  0  0  0
   19.6664   -1.1484   16.0678 C   0  0  0  0  0  0  0  0  0  0  0  0
   20.0604   -1.0279   14.7340 C   0  0  0  0  0  0  0  0  0  0  0  0
   19.6700   -1.9909   13.8034 C   0  0  0  0  0  0  0  0  0  0  0  0
   20.1747   -1.8446   12.1659 Cl  0  0  0  0  0  0  0  0  0  0  0  0
   18.8881   -3.0793   14.1937 C   0  0  0  0  0  0  0  0  0  0  0  0
   18.4799   -3.2023   15.5244 C   0  0  0  0  0  0  0  0  0  0  0  0
   18.2902    0.3226   19.0648 C   0  0  0  0  0  0  0  0  0  0  0  0
   17.2683    0.5665   20.1886 C   0  0  0  0  0  0  0  0  0  0  0  0
   16.9017   -0.9247   20.0950 C   0  0  0  0  0  0  0  0  0  0  0  0
  1  2  1  0
  2  3  2  0
  3  4  1  0
  4  5  1  0
  4  6  2  0
  6  7  1  0
  7  8  1  0
  7  9  2  0
  9 10  1  0
 10 11  1  0
 11 12  2  0
 11 13  1  0
 13 14  1  0
 14 15  2  0
 14 16  2  0
 14 17  1  0
 17 18  2  0
 18 19  1  0
 19 20  2  0
 20 21  1  0
 20 22  1  0
 22 23  2  0
 13 24  1  0
 24 25  1  0
 25 26  1  0
  9  2  1  0
 26 13  1  0
 23 17  1  0
M  END
>  <ref_mols>  (1037) 
B1396a

>  <gnina_score>  (1037) 
5.386

>  <smina_score_min>  (1037) 
-3.798

>  <ref_pdb>  (1037) 
B1396a

>  <inspiration_score>  (1037) 
None

>  <inchikey>  (1037) 
NAOGJOSJWKQAIJ-UHFFFAOYSA-N

>  <tags>  (1037) 
BulkDock Fragalysis export,openbind_d68ev3c_c2_elabs_scored,openbind_d68ev3c_c2_elabs_scored_4.5plus,openbind_d68ev3c_c2_elabs,openbind_d68ev3c_c2_elabs_scored_5plus,syndirella_product,openbind_d68ev3c_c2_elabs_scored_top80percent,syndirella_placed

>  <smiles>  (1037) 
Cc1cc(F)cc(Cl)c1NC(=O)C1(S(=O)(=O)c2ccc(Cl)cc2)CCC1

>  <subsites>  (1037) 
None

>  <rmsd(smina/fragmenstein)>  (1037) 
1.673

>  <alias>  (1037) 
None

>  <energy_score>  (1037) 
-32.154592

>  <HIPPO Pose ID>  (1037) 
95241

>  <distance_score>  (1037) 
0.316601

>  <HIPPO Compound ID>  (1037) 
129090

>  <gnina_score_min>  (1037) 
5.263

>  <name>  (1037) 
P95241

>  <exports>  (1037) 
['/opt/xchem-fragalysis-2/maxwin/BulkDock/OUTPUTS/openbind_d68ev3c_c2_elabs_1LOTQJ3.sdf', '/opt/xchem-fragalysis-2/maxwin/BulkDock/OUTPUTS/openbind_d68ev3c_c2_elabs_1LSYI5W.sdf']

$$$$
P95242
     RDKit          3D

 26 28  0  0  0  0  0  0  0  0999 V2000
   14.2343   -5.0979   17.9861 N   0  0  0  0  0  0  0  0  0  0  0  0
   13.8599   -4.1120   17.5072 C   0  0  0  0  0  0  0  0  0  0  0  0
   13.4495   -2.8804   16.9028 C   0  0  0  0  0  0  0  0  0  0  0  0
   12.2107   -2.8320   16.2492 C   0  0  0  0  0  0  0  0  0  0  0  0
   11.7661   -1.6295   15.7061 C   0  0  0  0  0  0  0  0  0  0  0  0
   10.1700   -1.4813   15.1082 Cl  0  0  0  0  0  0  0  0  0  0  0  0
   12.5725   -0.5000   15.7293 C   0  0  0  0  0  0  0  0  0  0  0  0
   13.8194   -0.5544   16.3482 C   0  0  0  0  0  0  0  0  0  0  0  0
   14.2579   -1.7309   16.9640 C   0  0  0  0  0  0  0  0  0  0  0  0
   15.4740   -1.7315   17.6547 N   0  0  0  0  0  0  0  0  0  0  0  0
   16.5567   -0.6186   17.7996 C   0  0  0  0  0  0  0  0  0  0  0  0
   16.6302    0.4409   17.2985 O   0  0  0  0  0  0  0  0  0  0  0  0
   17.6422   -1.0683   18.8328 C   0  0  0  0  0  0  0  0  0  0  0  0
   18.5162   -2.4905   18.1594 S   0  0  0  0  0  0  0  0  0  0  0  0
   17.5609   -3.5885   18.1721 O   0  0  0  0  0  0  0  0  0  0  0  0
   19.7918   -2.6479   18.8323 O   0  0  0  0  0  0  0  0  0  0  0  0
   18.9160   -2.2120   16.4440 C   0  0  0  0  0  0  0  0  0  0  0  0
   19.6212   -1.0614   16.0841 C   0  0  0  0  0  0  0  0  0  0  0  0
   19.9339   -0.8450   14.7405 C   0  0  0  0  0  0  0  0  0  0  0  0
   19.5513   -1.7775   13.7750 C   0  0  0  0  0  0  0  0  0  0  0  0
   19.9515   -1.5045   12.1251 Cl  0  0  0  0  0  0  0  0  0  0  0  0
   18.8573   -2.9317   14.1389 C   0  0  0  0  0  0  0  0  0  0  0  0
   18.5333   -3.1527   15.4795 C   0  0  0  0  0  0  0  0  0  0  0  0
   18.5739    0.0468   19.4188 C   0  0  0  0  0  0  0  0  0  0  0  0
   17.5926    0.1630   20.5986 C   0  0  0  0  0  0  0  0  0  0  0  0
   17.1636   -1.2852   20.3062 C   0  0  0  0  0  0  0  0  0  0  0  0
  1  2  3  0
  2  3  1  0
  3  4  2  0
  4  5  1  0
  5  6  1  0
  5  7  2  0
  7  8  1  0
  8  9  2  0
  9 10  1  0
 10 11  1  0
 11 12  2  0
 11 13  1  0
 13 14  1  0
 14 15  2  0
 14 16  2  0
 14 17  1  0
 17 18  2  0
 18 19  1  0
 19 20  2  0
 20 21  1  0
 20 22  1  0
 22 23  2  0
 13 24  1  0
 24 25  1  0
 25 26  1  0
  9  3  1  0
 26 13  1  0
 23 17  1  0
M  END
>  <ref_mols>  (1038) 
B1396a

>  <gnina_score>  (1038) 
5.638

>  <smina_score_min>  (1038) 
-3.041

>  <ref_pdb>  (1038) 
B1396a

>  <inspiration_score>  (1038) 
None

>  <inchikey>  (1038) 
LHXWQKZRZVCURI-UHFFFAOYSA-N

>  <tags>  (1038) 
BulkDock Fragalysis export,openbind_d68ev3c_c2_elabs_scored,openbind_d68ev3c_c2_elabs_scored_4.5plus,openbind_d68ev3c_c2_elabs,openbind_d68ev3c_c2_elabs_scored_5plus,syndirella_product,openbind_d68ev3c_c2_elabs_scored_top80percent,syndirella_placed

>  <smiles>  (1038) 
N#Cc1cc(Cl)ccc1NC(=O)C1(S(=O)(=O)c2ccc(Cl)cc2)CCC1

>  <subsites>  (1038) 
None

>  <rmsd(smina/fragmenstein)>  (1038) 
1.433

>  <alias>  (1038) 
None

>  <energy_score>  (1038) 
-25.621053

>  <HIPPO Pose ID>  (1038) 
95242

>  <distance_score>  (1038) 
0.556185

>  <HIPPO Compound ID>  (1038) 
129092

>  <gnina_score_min>  (1038) 
5.425

>  <name>  (1038) 
P95242

>  <exports>  (1038) 
['/opt/xchem-fragalysis-2/maxwin/BulkDock/OUTPUTS/openbind_d68ev3c_c2_elabs_1LOTQJ3.sdf', '/opt/xchem-fragalysis-2/maxwin/BulkDock/OUTPUTS/openbind_d68ev3c_c2_elabs_1LSYI5W.sdf']

$$$$
P95244
     RDKit          3D

 26 28  0  0  0  0  0  0  0  0999 V2000
   16.8314    0.7869   18.0843 O   0  0  0  0  0  0  0  0  0  0  0  0
   16.6886   -0.3535   18.3286 C   0  0  0  0  0  0  0  0  0  0  0  0
   15.5083   -1.3182   17.9958 N   0  0  0  0  0  0  0  0  0  0  0  0
   14.3479   -1.1088   17.2390 C   0  0  0  0  0  0  0  0  0  0  0  0
   14.0568    0.2011   16.8335 C   0  0  0  0  0  0  0  0  0  0  0  0
   12.9773    0.4810   16.0088 C   0  0  0  0  0  0  0  0  0  0  0  0
   12.2243   -0.5616   15.5146 C   0  0  0  0  0  0  0  0  0  0  0  0
   12.5277   -1.8810   15.8770 C   0  0  0  0  0  0  0  0  0  0  0  0
   11.5397   -3.2276   14.6752 I   0  0  0  0  0  0  0  0  0  0  0  0
   13.5225   -2.1860   16.8339 C   0  0  0  0  0  0  0  0  0  0  0  0
   13.8091   -3.5813   17.3526 C   0  0  0  0  0  0  0  0  0  0  0  0
   12.6694   -4.4126   17.4140 O   0  0  0  0  0  0  0  0  0  0  0  0
   17.7589   -1.0949   19.1952 C   0  0  0  0  0  0  0  0  0  0  0  0
   18.3876   -2.5275   18.2971 S   0  0  0  0  0  0  0  0  0  0  0  0
   19.6590   -2.9312   18.8687 O   0  0  0  0  0  0  0  0  0  0  0  0
   17.2936   -3.4903   18.2557 O   0  0  0  0  0  0  0  0  0  0  0  0
   18.7563   -2.1400   16.5962 C   0  0  0  0  0  0  0  0  0  0  0  0
   18.3610   -3.0307   15.5886 C   0  0  0  0  0  0  0  0  0  0  0  0
   18.6919   -2.7591   14.2587 C   0  0  0  0  0  0  0  0  0  0  0  0
   19.4058   -1.6030   13.9459 C   0  0  0  0  0  0  0  0  0  0  0  0
   19.8197   -1.2681   12.3110 Cl  0  0  0  0  0  0  0  0  0  0  0  0
   19.7963   -0.7176   14.9519 C   0  0  0  0  0  0  0  0  0  0  0  0
   19.4753   -0.9843   16.2859 C   0  0  0  0  0  0  0  0  0  0  0  0
   18.8763   -0.2116   19.8533 C   0  0  0  0  0  0  0  0  0  0  0  0
   17.9902   -0.1279   21.1087 C   0  0  0  0  0  0  0  0  0  0  0  0
   17.3330   -1.4448   20.6612 C   0  0  0  0  0  0  0  0  0  0  0  0
  1  2  2  0
  2  3  1  0
  3  4  1  0
  4  5  2  0
  5  6  1  0
  6  7  2  0
  7  8  1  0
  8  9  1  0
  8 10  2  0
 10 11  1  0
 11 12  1  0
  2 13  1  0
 13 14  1  0
 14 15  2  0
 14 16  2  0
 14 17  1  0
 17 18  2  0
 18 19  1  0
 19 20  2  0
 20 21  1  0
 20 22  1  0
 22 23  2  0
 13 24  1  0
 24 25  1  0
 25 26  1  0
 10  4  1  0
 26 13  1  0
 23 17  1  0
M  END
>  <ref_mols>  (1039) 
B1396a

>  <gnina_score>  (1039) 
5.04

>  <smina_score_min>  (1039) 
-2.883

>  <ref_pdb>  (1039) 
B1396a

>  <inspiration_score>  (1039) 
None

>  <inchikey>  (1039) 
YQTOGBSLDATNFX-UHFFFAOYSA-N

>  <tags>  (1039) 
BulkDock Fragalysis export,openbind_d68ev3c_c2_elabs_scored,openbind_d68ev3c_c2_elabs_scored_4.5plus,openbind_d68ev3c_c2_elabs,openbind_d68ev3c_c2_elabs_scored_5plus,syndirella_product,openbind_d68ev3c_c2_elabs_scored_top80percent,syndirella_placed

>  <smiles>  (1039) 
O=C(Nc1cccc(I)c1CO)C1(S(=O)(=O)c2ccc(Cl)cc2)CCC1

>  <subsites>  (1039) 
None

>  <rmsd(smina/fragmenstein)>  (1039) 
0.612

>  <alias>  (1039) 
None

>  <energy_score>  (1039) 
-46.621011

>  <HIPPO Pose ID>  (1039) 
95244

>  <distance_score>  (1039) 
1.079241

>  <HIPPO Compound ID>  (1039) 
129094

>  <gnina_score_min>  (1039) 
5.097

>  <name>  (1039) 
P95244

>  <exports>  (1039) 
['/opt/xchem-fragalysis-2/maxwin/BulkDock/OUTPUTS/openbind_d68ev3c_c2_elabs_1LOTQJ3.sdf', '/opt/xchem-fragalysis-2/maxwin/BulkDock/OUTPUTS/openbind_d68ev3c_c2_elabs_1LSYI5W.sdf']

$$$$
P95246
     RDKit          3D

 26 28  0  0  0  0  0  0  0  0999 V2000
   10.7875   -2.2238   14.6260 C   0  0  0  0  0  0  0  0  0  0  0  0
   11.9148   -2.0169   15.5759 C   0  0  0  0  0  0  0  0  0  0  0  0
   12.4295   -3.0848   16.3033 C   0  0  0  0  0  0  0  0  0  0  0  0
   13.5504   -2.9206   17.1284 C   0  0  0  0  0  0  0  0  0  0  0  0
   14.0622   -4.1408   17.8510 C   0  0  0  0  0  0  0  0  0  0  0  0
   14.1792   -1.6535   17.2148 C   0  0  0  0  0  0  0  0  0  0  0  0
   15.3457   -1.5809   17.9912 N   0  0  0  0  0  0  0  0  0  0  0  0
   16.6023   -0.6707   17.8471 C   0  0  0  0  0  0  0  0  0  0  0  0
   16.8213    0.2109   17.1039 O   0  0  0  0  0  0  0  0  0  0  0  0
   17.6507   -1.0629   18.9211 C   0  0  0  0  0  0  0  0  0  0  0  0
   18.5447   -2.4941   18.2726 S   0  0  0  0  0  0  0  0  0  0  0  0
   17.6276   -3.6231   18.3449 O   0  0  0  0  0  0  0  0  0  0  0  0
   19.8371   -2.5981   18.9260 O   0  0  0  0  0  0  0  0  0  0  0  0
   18.9194   -2.2697   16.5387 C   0  0  0  0  0  0  0  0  0  0  0  0
   19.6510   -1.1483   16.1365 C   0  0  0  0  0  0  0  0  0  0  0  0
   19.9493   -0.9707   14.7837 C   0  0  0  0  0  0  0  0  0  0  0  0
   19.5330   -1.9182   13.8491 C   0  0  0  0  0  0  0  0  0  0  0  0
   19.9103   -1.6975   12.1856 Cl  0  0  0  0  0  0  0  0  0  0  0  0
   18.8213   -3.0477   14.2541 C   0  0  0  0  0  0  0  0  0  0  0  0
   18.5046   -3.2255   15.6038 C   0  0  0  0  0  0  0  0  0  0  0  0
   17.1533   -1.2427   20.3913 C   0  0  0  0  0  0  0  0  0  0  0  0
   18.4142   -0.5171   20.8790 C   0  0  0  0  0  0  0  0  0  0  0  0
   18.5580    0.0830   19.4726 C   0  0  0  0  0  0  0  0  0  0  0  0
   13.6062   -0.5658   16.5302 C   0  0  0  0  0  0  0  0  0  0  0  0
   14.0610    1.2599   16.8147 Br  0  0  0  0  0  0  0  0  0  0  0  0
   12.5001   -0.7599   15.6969 C   0  0  0  0  0  0  0  0  0  0  0  0
  1  2  1  0
  2  3  2  0
  3  4  1  0
  4  5  1  0
  4  6  2  0
  6  7  1  0
  7  8  1  0
  8  9  2  0
  8 10  1  0
 10 11  1  0
 11 12  2  0
 11 13  2  0
 11 14  1  0
 14 15  2  0
 15 16  1  0
 16 17  2  0
 17 18  1  0
 17 19  1  0
 19 20  2  0
 10 21  1  0
 21 22  1  0
 22 23  1  0
  6 24  1  0
 24 25  1  0
 24 26  2  0
 26  2  1  0
 23 10  1  0
 20 14  1  0
M  END
>  <ref_mols>  (1040) 
B1396a

>  <gnina_score>  (1040) 
5.369

>  <smina_score_min>  (1040) 
-3.636

>  <ref_pdb>  (1040) 
B1396a

>  <inspiration_score>  (1040) 
None

>  <inchikey>  (1040) 
ZVCDZMYKUCPSON-UHFFFAOYSA-N

>  <tags>  (1040) 
BulkDock Fragalysis export,openbind_d68ev3c_c2_elabs_scored,openbind_d68ev3c_c2_elabs_scored_4.5plus,openbind_d68ev3c_c2_elabs,openbind_d68ev3c_c2_elabs_scored_5plus,syndirella_product,openbind_d68ev3c_c2_elabs_scored_top80percent,syndirella_placed

>  <smiles>  (1040) 
Cc1cc(C)c(NC(=O)C2(S(=O)(=O)c3ccc(Cl)cc3)CCC2)c(Br)c1

>  <subsites>  (1040) 
None

>  <rmsd(smina/fragmenstein)>  (1040) 
2.087

>  <alias>  (1040) 
None

>  <energy_score>  (1040) 
-34.622909

>  <HIPPO Pose ID>  (1040) 
95246

>  <distance_score>  (1040) 
0.529815

>  <HIPPO Compound ID>  (1040) 
129097

>  <gnina_score_min>  (1040) 
5.073

>  <name>  (1040) 
P95246

>  <exports>  (1040) 
['/opt/xchem-fragalysis-2/maxwin/BulkDock/OUTPUTS/openbind_d68ev3c_c2_elabs_1LOTQJ3.sdf', '/opt/xchem-fragalysis-2/maxwin/BulkDock/OUTPUTS/openbind_d68ev3c_c2_elabs_1LSYI5W.sdf']

$$$$
P95248
     RDKit          3D

 26 28  0  0  0  0  0  0  0  0999 V2000
   13.9178   -4.1603   17.7246 C   0  0  0  0  0  0  0  0  0  0  0  0
   13.3634   -3.0021   16.9333 C   0  0  0  0  0  0  0  0  0  0  0  0
   12.2031   -3.2308   16.1815 C   0  0  0  0  0  0  0  0  0  0  0  0
   11.6474   -2.2176   15.4242 C   0  0  0  0  0  0  0  0  0  0  0  0
   10.5222   -2.4546   14.7427 F   0  0  0  0  0  0  0  0  0  0  0  0
   12.2072   -0.9536   15.4136 C   0  0  0  0  0  0  0  0  0  0  0  0
   13.3635   -0.6833   16.1649 C   0  0  0  0  0  0  0  0  0  0  0  0
   13.7809    1.0561   16.2329 S   0  0  0  0  0  0  0  0  0  0  0  0
   13.9742   -1.7212   16.9118 C   0  0  0  0  0  0  0  0  0  0  0  0
   15.1408   -1.5771   17.6866 N   0  0  0  0  0  0  0  0  0  0  0  0
   16.3613   -0.6246   17.5107 C   0  0  0  0  0  0  0  0  0  0  0  0
   16.5464    0.2396   16.7377 O   0  0  0  0  0  0  0  0  0  0  0  0
   17.4131   -0.9082   18.6335 C   0  0  0  0  0  0  0  0  0  0  0  0
   18.3418   -2.3757   18.1469 S   0  0  0  0  0  0  0  0  0  0  0  0
   19.5754   -2.4524   18.9095 O   0  0  0  0  0  0  0  0  0  0  0  0
   17.4128   -3.4955   18.2020 O   0  0  0  0  0  0  0  0  0  0  0  0
   18.8494   -2.2211   16.4431 C   0  0  0  0  0  0  0  0  0  0  0  0
   18.4513   -3.1767   15.5016 C   0  0  0  0  0  0  0  0  0  0  0  0
   18.8613   -3.0400   14.1727 C   0  0  0  0  0  0  0  0  0  0  0  0
   19.6543   -1.9546   13.7974 C   0  0  0  0  0  0  0  0  0  0  0  0
   20.1604   -1.7903   12.1621 Cl  0  0  0  0  0  0  0  0  0  0  0  0
   20.0542   -1.0083   14.7411 C   0  0  0  0  0  0  0  0  0  0  0  0
   19.6584   -1.1426   16.0729 C   0  0  0  0  0  0  0  0  0  0  0  0
   16.9236   -0.9468   20.1187 C   0  0  0  0  0  0  0  0  0  0  0  0
   17.3015    0.5409   20.2207 C   0  0  0  0  0  0  0  0  0  0  0  0
   18.3056    0.3005   19.0806 C   0  0  0  0  0  0  0  0  0  0  0  0
  1  2  1  0
  2  3  2  0
  3  4  1  0
  4  5  1  0
  4  6  2  0
  6  7  1  0
  7  8  1  0
  7  9  2  0
  9 10  1  0
 10 11  1  0
 11 12  2  0
 11 13  1  0
 13 14  1  0
 14 15  2  0
 14 16  2  0
 14 17  1  0
 17 18  2  0
 18 19  1  0
 19 20  2  0
 20 21  1  0
 20 22  1  0
 22 23  2  0
 13 24  1  0
 24 25  1  0
 25 26  1  0
  9  2  1  0
 26 13  1  0
 23 17  1  0
M  END
>  <ref_mols>  (1041) 
B1396a

>  <gnina_score>  (1041) 
5.363

>  <smina_score_min>  (1041) 
-3.77

>  <ref_pdb>  (1041) 
B1396a

>  <inspiration_score>  (1041) 
None

>  <inchikey>  (1041) 
WWUJXDKSONGXHS-UHFFFAOYSA-N

>  <tags>  (1041) 
BulkDock Fragalysis export,openbind_d68ev3c_c2_elabs_scored,openbind_d68ev3c_c2_elabs_scored_4.5plus,openbind_d68ev3c_c2_elabs,openbind_d68ev3c_c2_elabs_scored_5plus,syndirella_product,openbind_d68ev3c_c2_elabs_scored_top80percent,syndirella_placed

>  <smiles>  (1041) 
Cc1cc(F)cc(S)c1NC(=O)C1(S(=O)(=O)c2ccc(Cl)cc2)CCC1

>  <subsites>  (1041) 
None

>  <rmsd(smina/fragmenstein)>  (1041) 
1.67

>  <alias>  (1041) 
None

>  <energy_score>  (1041) 
-39.331854

>  <HIPPO Pose ID>  (1041) 
95248

>  <distance_score>  (1041) 
0.323345

>  <HIPPO Compound ID>  (1041) 
129101

>  <gnina_score_min>  (1041) 
5.268

>  <name>  (1041) 
P95248

>  <exports>  (1041) 
['/opt/xchem-fragalysis-2/maxwin/BulkDock/OUTPUTS/openbind_d68ev3c_c2_elabs_1LOTQJ3.sdf', '/opt/xchem-fragalysis-2/maxwin/BulkDock/OUTPUTS/openbind_d68ev3c_c2_elabs_1LSYI5W.sdf']

$$$$
P95252
     RDKit          3D

 26 28  0  0  0  0  0  0  0  0999 V2000
   11.8927    0.1381   14.5169 C   0  0  0  0  0  0  0  0  0  0  0  0
   12.4289   -0.9850   15.3505 C   0  0  0  0  0  0  0  0  0  0  0  0
   13.6162   -0.8474   16.0844 C   0  0  0  0  0  0  0  0  0  0  0  0
   14.0935   -1.8946   16.8854 C   0  0  0  0  0  0  0  0  0  0  0  0
   15.2492   -1.7369   17.6502 N   0  0  0  0  0  0  0  0  0  0  0  0
   16.2758   -0.5669   17.7021 C   0  0  0  0  0  0  0  0  0  0  0  0
   16.2659    0.4779   17.1667 O   0  0  0  0  0  0  0  0  0  0  0  0
   17.4056   -0.9116   18.7383 C   0  0  0  0  0  0  0  0  0  0  0  0
   18.3357   -2.3441   18.1551 S   0  0  0  0  0  0  0  0  0  0  0  0
   19.6020   -2.4266   18.8615 O   0  0  0  0  0  0  0  0  0  0  0  0
   17.4303   -3.4836   18.2100 O   0  0  0  0  0  0  0  0  0  0  0  0
   18.7719   -2.1242   16.4404 C   0  0  0  0  0  0  0  0  0  0  0  0
   19.5492   -1.0211   16.0762 C   0  0  0  0  0  0  0  0  0  0  0  0
   19.9176   -0.8541   14.7400 C   0  0  0  0  0  0  0  0  0  0  0  0
   19.5206   -1.7908   13.7855 C   0  0  0  0  0  0  0  0  0  0  0  0
   19.9919   -1.5836   12.1448 Cl  0  0  0  0  0  0  0  0  0  0  0  0
   18.7567   -2.8987   14.1541 C   0  0  0  0  0  0  0  0  0  0  0  0
   18.3751   -3.0692   15.4876 C   0  0  0  0  0  0  0  0  0  0  0  0
   16.9628   -1.0435   20.2343 C   0  0  0  0  0  0  0  0  0  0  0  0
   17.3398    0.4367   20.4177 C   0  0  0  0  0  0  0  0  0  0  0  0
   18.3023    0.2777   19.2277 C   0  0  0  0  0  0  0  0  0  0  0  0
   13.3901   -3.1099   16.9430 C   0  0  0  0  0  0  0  0  0  0  0  0
   13.8578   -4.2778   17.7663 C   0  0  0  0  0  0  0  0  0  0  0  0
   12.2003   -3.2355   16.2148 C   0  0  0  0  0  0  0  0  0  0  0  0
   11.7274   -2.1828   15.4430 C   0  0  0  0  0  0  0  0  0  0  0  0
   10.5603   -2.3305   14.8051 F   0  0  0  0  0  0  0  0  0  0  0  0
  1  2  1  0
  2  3  2  0
  3  4  1  0
  4  5  1  0
  5  6  1  0
  6  7  2  0
  6  8  1  0
  8  9  1  0
  9 10  2  0
  9 11  2  0
  9 12  1  0
 12 13  2  0
 13 14  1  0
 14 15  2  0
 15 16  1  0
 15 17  1  0
 17 18  2  0
  8 19  1  0
 19 20  1  0
 20 21  1  0
  4 22  2  0
 22 23  1  0
 22 24  1  0
 24 25  2  0
 25 26  1  0
 25  2  1  0
 21  8  1  0
 18 12  1  0
M  END
>  <ref_mols>  (1042) 
B1396a

>  <gnina_score>  (1042) 
5.186

>  <smina_score_min>  (1042) 
-3.924

>  <ref_pdb>  (1042) 
B1396a

>  <inspiration_score>  (1042) 
None

>  <inchikey>  (1042) 
LNNZNKFGUFVHLF-UHFFFAOYSA-N

>  <tags>  (1042) 
BulkDock Fragalysis export,openbind_d68ev3c_c2_elabs_scored,openbind_d68ev3c_c2_elabs_scored_4.5plus,openbind_d68ev3c_c2_elabs,openbind_d68ev3c_c2_elabs_scored_5plus,syndirella_product,openbind_d68ev3c_c2_elabs_scored_top80percent,syndirella_placed

>  <smiles>  (1042) 
Cc1cc(NC(=O)C2(S(=O)(=O)c3ccc(Cl)cc3)CCC2)c(C)cc1F

>  <subsites>  (1042) 
None

>  <rmsd(smina/fragmenstein)>  (1042) 
1.426

>  <alias>  (1042) 
None

>  <energy_score>  (1042) 
-49.614973

>  <HIPPO Pose ID>  (1042) 
95252

>  <distance_score>  (1042) 
0.412415

>  <HIPPO Compound ID>  (1042) 
129106

>  <gnina_score_min>  (1042) 
5.117

>  <name>  (1042) 
P95252

>  <exports>  (1042) 
['/opt/xchem-fragalysis-2/maxwin/BulkDock/OUTPUTS/openbind_d68ev3c_c2_elabs_1LOTQJ3.sdf', '/opt/xchem-fragalysis-2/maxwin/BulkDock/OUTPUTS/openbind_d68ev3c_c2_elabs_1LSYI5W.sdf']

$$$$
P95283
     RDKit          3D

 26 28  0  0  0  0  0  0  0  0999 V2000
   13.8315   -3.9995   17.5102 C   0  0  0  0  0  0  0  0  0  0  0  0
   13.4134   -2.6768   16.9107 C   0  0  0  0  0  0  0  0  0  0  0  0
   12.1820   -2.6308   16.2318 C   0  0  0  0  0  0  0  0  0  0  0  0
   11.7083   -1.4221   15.7444 C   0  0  0  0  0  0  0  0  0  0  0  0
    9.9344   -1.2258   15.1487 Br  0  0  0  0  0  0  0  0  0  0  0  0
   12.4801   -0.2763   15.8378 C   0  0  0  0  0  0  0  0  0  0  0  0
   13.7115   -0.2831   16.5141 C   0  0  0  0  0  0  0  0  0  0  0  0
   14.3579    1.0653   16.6728 C   0  0  0  0  0  0  0  0  0  0  0  0
   14.1913   -1.4932   17.0581 C   0  0  0  0  0  0  0  0  0  0  0  0
   15.3566   -1.5931   17.8399 N   0  0  0  0  0  0  0  0  0  0  0  0
   16.6411   -0.7070   17.8625 C   0  0  0  0  0  0  0  0  0  0  0  0
   16.8905    0.2863   17.2873 O   0  0  0  0  0  0  0  0  0  0  0  0
   17.6386   -1.2630   18.9132 C   0  0  0  0  0  0  0  0  0  0  0  0
   18.4827   -2.6678   18.1649 S   0  0  0  0  0  0  0  0  0  0  0  0
   17.5162   -3.7571   18.1368 O   0  0  0  0  0  0  0  0  0  0  0  0
   19.7605   -2.8719   18.8228 O   0  0  0  0  0  0  0  0  0  0  0  0
   18.8894   -2.3273   16.4597 C   0  0  0  0  0  0  0  0  0  0  0  0
   19.6377   -1.1892   16.1468 C   0  0  0  0  0  0  0  0  0  0  0  0
   19.9626   -0.9278   14.8140 C   0  0  0  0  0  0  0  0  0  0  0  0
   19.5520   -1.8059   13.8108 C   0  0  0  0  0  0  0  0  0  0  0  0
   19.9691   -1.4814   12.1743 Cl  0  0  0  0  0  0  0  0  0  0  0  0
   18.8171   -2.9490   14.1263 C   0  0  0  0  0  0  0  0  0  0  0  0
   18.4790   -3.2132   15.4561 C   0  0  0  0  0  0  0  0  0  0  0  0
   17.0783   -1.5537   20.3441 C   0  0  0  0  0  0  0  0  0  0  0  0
   18.3581   -0.9514   20.9393 C   0  0  0  0  0  0  0  0  0  0  0  0
   18.5823   -0.2252   19.6047 C   0  0  0  0  0  0  0  0  0  0  0  0
  1  2  1  0
  2  3  2  0
  3  4  1  0
  4  5  1  0
  4  6  2  0
  6  7  1  0
  7  8  1  0
  7  9  2  0
  9 10  1  0
 10 11  1  0
 11 12  2  0
 11 13  1  0
 13 14  1  0
 14 15  2  0
 14 16  2  0
 14 17  1  0
 17 18  2  0
 18 19  1  0
 19 20  2  0
 20 21  1  0
 20 22  1  0
 22 23  2  0
 13 24  1  0
 24 25  1  0
 25 26  1  0
  9  2  1  0
 26 13  1  0
 23 17  1  0
M  END
>  <ref_mols>  (1043) 
B1396a

>  <gnina_score>  (1043) 
5.522

>  <smina_score_min>  (1043) 
-3.437

>  <ref_pdb>  (1043) 
B1396a

>  <inspiration_score>  (1043) 
None

>  <inchikey>  (1043) 
FRYHHJXXEXCJQK-UHFFFAOYSA-N

>  <tags>  (1043) 
BulkDock Fragalysis export,openbind_d68ev3c_c2_elabs_scored,openbind_d68ev3c_c2_elabs_scored_4.5plus,openbind_d68ev3c_c2_elabs,openbind_d68ev3c_c2_elabs_scored_5plus,syndirella_product,openbind_d68ev3c_c2_elabs_scored_top80percent,syndirella_placed

>  <smiles>  (1043) 
Cc1cc(Br)cc(C)c1NC(=O)C1(S(=O)(=O)c2ccc(Cl)cc2)CCC1

>  <subsites>  (1043) 
None

>  <rmsd(smina/fragmenstein)>  (1043) 
2.67

>  <alias>  (1043) 
None

>  <energy_score>  (1043) 
-26.213046

>  <HIPPO Pose ID>  (1043) 
95283

>  <distance_score>  (1043) 
0.617075

>  <HIPPO Compound ID>  (1043) 
129147

>  <gnina_score_min>  (1043) 
5.015

>  <name>  (1043) 
P95283

>  <exports>  (1043) 
['/opt/xchem-fragalysis-2/maxwin/BulkDock/OUTPUTS/openbind_d68ev3c_c2_elabs_1LOTQJ3.sdf', '/opt/xchem-fragalysis-2/maxwin/BulkDock/OUTPUTS/openbind_d68ev3c_c2_elabs_1LSYI5W.sdf']

$$$$
P95290
     RDKit          3D

 26 27  0  0  0  0  0  0  0  0999 V2000
   20.5468   -0.5101   11.8674 C   0  0  0  0  0  0  0  0  0  0  0  0
   20.2137   -1.8585   12.4476 C   0  0  0  0  0  0  0  0  0  0  0  0
   20.3384   -2.8901   11.7910 O   0  0  0  0  0  0  0  0  0  0  0  0
   19.7297   -1.9535   13.8473 C   0  0  0  0  0  0  0  0  0  0  0  0
   18.9546   -3.0641   14.2166 C   0  0  0  0  0  0  0  0  0  0  0  0
   18.5027   -3.2034   15.5324 C   0  0  0  0  0  0  0  0  0  0  0  0
   18.8412   -2.2327   16.4810 C   0  0  0  0  0  0  0  0  0  0  0  0
   18.3032   -2.4104   18.1631 S   0  0  0  0  0  0  0  0  0  0  0  0
   17.3662   -3.5203   18.2128 O   0  0  0  0  0  0  0  0  0  0  0  0
   19.5021   -2.4272   18.9782 O   0  0  0  0  0  0  0  0  0  0  0  0
   17.3872   -0.9691   18.5787 C   0  0  0  0  0  0  0  0  0  0  0  0
   16.4357   -0.6236   17.4701 C   0  0  0  0  0  0  0  0  0  0  0  0
   16.6853    0.2158   16.6933 O   0  0  0  0  0  0  0  0  0  0  0  0
   15.1841   -1.5488   17.5920 N   0  0  0  0  0  0  0  0  0  0  0  0
   13.9831   -1.5606   16.8609 C   0  0  0  0  0  0  0  0  0  0  0  0
   13.4378   -0.4431   16.1924 C   0  0  0  0  0  0  0  0  0  0  0  0
   13.9721    1.1813   16.4417 Cl  0  0  0  0  0  0  0  0  0  0  0  0
   12.2901   -0.5735   15.3958 C   0  0  0  0  0  0  0  0  0  0  0  0
   11.6603   -1.8023   15.2711 C   0  0  0  0  0  0  0  0  0  0  0  0
   12.1616   -2.8858   15.9753 C   0  0  0  0  0  0  0  0  0  0  0  0
   11.5256   -4.0523   15.8570 F   0  0  0  0  0  0  0  0  0  0  0  0
   13.2972   -2.7934   16.7904 C   0  0  0  0  0  0  0  0  0  0  0  0
   13.7587   -4.0244   17.5273 C   0  0  0  0  0  0  0  0  0  0  0  0
   19.6312   -1.1365   16.1301 C   0  0  0  0  0  0  0  0  0  0  0  0
   20.0636   -1.0029   14.8126 C   0  0  0  0  0  0  0  0  0  0  0  0
   20.8407    0.0469   14.5131 F   0  0  0  0  0  0  0  0  0  0  0  0
  1  2  1  0
  2  3  2  0
  2  4  1  0
  4  5  2  0
  5  6  1  0
  6  7  2  0
  7  8  1  0
  8  9  2  0
  8 10  2  0
  8 11  1  0
 11 12  1  0
 12 13  2  0
 12 14  1  0
 14 15  1  0
 15 16  2  0
 16 17  1  0
 16 18  1  0
 18 19  2  0
 19 20  1  0
 20 21  1  0
 20 22  2  0
 22 23  1  0
  7 24  1  0
 24 25  2  0
 25 26  1  0
 25  4  1  0
 22 15  1  0
M  END
>  <ref_mols>  (1044) 
B1396a

>  <gnina_score>  (1044) 
5.207

>  <smina_score_min>  (1044) 
-3.322

>  <ref_pdb>  (1044) 
B1396a

>  <inspiration_score>  (1044) 
None

>  <inchikey>  (1044) 
GEMSJTXXXQBGPJ-UHFFFAOYSA-N

>  <tags>  (1044) 
BulkDock Fragalysis export,openbind_d68ev3c_c2_elabs_scored,openbind_d68ev3c_c2_elabs_scored_4.5plus,openbind_d68ev3c_c2_elabs,openbind_d68ev3c_c2_elabs_scored_5plus,syndirella_product,openbind_d68ev3c_c2_elabs_scored_top80percent,syndirella_placed

>  <smiles>  (1044) 
CC(=O)c1ccc(S(=O)(=O)CC(=O)Nc2c(Cl)ccc(F)c2C)cc1F

>  <subsites>  (1044) 
None

>  <rmsd(smina/fragmenstein)>  (1044) 
1.957

>  <alias>  (1044) 
None

>  <energy_score>  (1044) 
-22.168493

>  <HIPPO Pose ID>  (1044) 
95290

>  <distance_score>  (1044) 
0.390402

>  <HIPPO Compound ID>  (1044) 
129162

>  <gnina_score_min>  (1044) 
5.046

>  <name>  (1044) 
P95290

>  <exports>  (1044) 
['/opt/xchem-fragalysis-2/maxwin/BulkDock/OUTPUTS/openbind_d68ev3c_c2_elabs_1LOTQJ3.sdf', '/opt/xchem-fragalysis-2/maxwin/BulkDock/OUTPUTS/openbind_d68ev3c_c2_elabs_1LSYI5W.sdf']

$$$$
P95293
     RDKit          3D

 26 27  0  0  0  0  0  0  0  0999 V2000
   19.1064   -2.5654   11.3078 C   0  0  0  0  0  0  0  0  0  0  0  0
   19.6607   -1.6255   12.3461 C   0  0  0  0  0  0  0  0  0  0  0  0
   20.3750   -0.6754   12.0289 O   0  0  0  0  0  0  0  0  0  0  0  0
   19.3404   -1.8382   13.7842 C   0  0  0  0  0  0  0  0  0  0  0  0
   20.0799   -1.1313   14.7477 C   0  0  0  0  0  0  0  0  0  0  0  0
   19.8081   -1.2864   16.1112 C   0  0  0  0  0  0  0  0  0  0  0  0
   18.7848   -2.1476   16.5099 C   0  0  0  0  0  0  0  0  0  0  0  0
   18.4266   -2.3539   18.2353 S   0  0  0  0  0  0  0  0  0  0  0  0
   19.6953   -2.3659   18.9352 O   0  0  0  0  0  0  0  0  0  0  0  0
   17.5109   -3.4768   18.3567 O   0  0  0  0  0  0  0  0  0  0  0  0
   17.5346   -0.9229   18.7357 C   0  0  0  0  0  0  0  0  0  0  0  0
   16.4953   -0.5445   17.7148 C   0  0  0  0  0  0  0  0  0  0  0  0
   16.5744    0.4555   17.1113 O   0  0  0  0  0  0  0  0  0  0  0  0
   15.4198   -1.6739   17.6630 N   0  0  0  0  0  0  0  0  0  0  0  0
   14.2217   -1.7510   16.9534 C   0  0  0  0  0  0  0  0  0  0  0  0
   13.7569   -0.6480   16.2216 C   0  0  0  0  0  0  0  0  0  0  0  0
   12.5534   -0.7150   15.5154 C   0  0  0  0  0  0  0  0  0  0  0  0
   11.8251   -1.8916   15.5323 C   0  0  0  0  0  0  0  0  0  0  0  0
   10.6514   -1.9542   14.8935 F   0  0  0  0  0  0  0  0  0  0  0  0
   12.2926   -2.9917   16.2374 C   0  0  0  0  0  0  0  0  0  0  0  0
   11.5694   -4.1142   16.2348 F   0  0  0  0  0  0  0  0  0  0  0  0
   13.4855   -2.9467   16.9651 C   0  0  0  0  0  0  0  0  0  0  0  0
   13.9238   -4.1667   17.7251 C   0  0  0  0  0  0  0  0  0  0  0  0
   18.0533   -2.8698   15.5665 C   0  0  0  0  0  0  0  0  0  0  0  0
   18.3278   -2.6973   14.2127 C   0  0  0  0  0  0  0  0  0  0  0  0
   17.5570   -3.3626   13.3437 F   0  0  0  0  0  0  0  0  0  0  0  0
  1  2  1  0
  2  3  2  0
  2  4  1  0
  4  5  2  0
  5  6  1  0
  6  7  2  0
  7  8  1  0
  8  9  2  0
  8 10  2  0
  8 11  1  0
 11 12  1  0
 12 13  2  0
 12 14  1  0
 14 15  1  0
 15 16  2  0
 16 17  1  0
 17 18  2  0
 18 19  1  0
 18 20  1  0
 20 21  1  0
 20 22  2  0
 22 23  1  0
  7 24  1  0
 24 25  2  0
 25 26  1  0
 25  4  1  0
 22 15  1  0
M  END
>  <ref_mols>  (1045) 
B1396a

>  <gnina_score>  (1045) 
5.195

>  <smina_score_min>  (1045) 
-4.009

>  <ref_pdb>  (1045) 
B1396a

>  <inspiration_score>  (1045) 
None

>  <inchikey>  (1045) 
YSOYRVLNJLFSNW-UHFFFAOYSA-N

>  <tags>  (1045) 
BulkDock Fragalysis export,openbind_d68ev3c_c2_elabs_scored,openbind_d68ev3c_c2_elabs_scored_4.5plus,openbind_d68ev3c_c2_elabs,openbind_d68ev3c_c2_elabs_scored_5plus,syndirella_product,openbind_d68ev3c_c2_elabs_scored_top80percent,syndirella_placed

>  <smiles>  (1045) 
CC(=O)c1ccc(S(=O)(=O)CC(=O)Nc2ccc(F)c(F)c2C)cc1F

>  <subsites>  (1045) 
None

>  <rmsd(smina/fragmenstein)>  (1045) 
2.038

>  <alias>  (1045) 
None

>  <energy_score>  (1045) 
-35.659789

>  <HIPPO Pose ID>  (1045) 
95293

>  <distance_score>  (1045) 
0.483729

>  <HIPPO Compound ID>  (1045) 
129166

>  <gnina_score_min>  (1045) 
5.072

>  <name>  (1045) 
P95293

>  <exports>  (1045) 
['/opt/xchem-fragalysis-2/maxwin/BulkDock/OUTPUTS/openbind_d68ev3c_c2_elabs_1LOTQJ3.sdf', '/opt/xchem-fragalysis-2/maxwin/BulkDock/OUTPUTS/openbind_d68ev3c_c2_elabs_1LSYI5W.sdf']

$$$$
P95297
     RDKit          3D

 26 27  0  0  0  0  0  0  0  0999 V2000
   20.3368   -0.2248   11.8311 C   0  0  0  0  0  0  0  0  0  0  0  0
   20.0427   -1.6040   12.3573 C   0  0  0  0  0  0  0  0  0  0  0  0
   20.1324   -2.5969   11.6387 O   0  0  0  0  0  0  0  0  0  0  0  0
   19.6401   -1.7793   13.7761 C   0  0  0  0  0  0  0  0  0  0  0  0
   18.9393   -2.9410   14.1367 C   0  0  0  0  0  0  0  0  0  0  0  0
   18.5699   -3.1578   15.4674 C   0  0  0  0  0  0  0  0  0  0  0  0
   18.9150   -2.2131   16.4404 C   0  0  0  0  0  0  0  0  0  0  0  0
   18.5045   -2.5143   18.1384 S   0  0  0  0  0  0  0  0  0  0  0  0
   19.7587   -2.6244   18.8543 O   0  0  0  0  0  0  0  0  0  0  0  0
   17.5305   -3.5911   18.1629 O   0  0  0  0  0  0  0  0  0  0  0  0
   17.6676   -1.1035   18.7470 C   0  0  0  0  0  0  0  0  0  0  0  0
   16.6005   -0.6358   17.7991 C   0  0  0  0  0  0  0  0  0  0  0  0
   16.6706    0.4170   17.2908 O   0  0  0  0  0  0  0  0  0  0  0  0
   15.4658   -1.7072   17.7532 N   0  0  0  0  0  0  0  0  0  0  0  0
   14.2730   -1.7366   17.0208 C   0  0  0  0  0  0  0  0  0  0  0  0
   13.8376   -0.5705   16.3824 C   0  0  0  0  0  0  0  0  0  0  0  0
   12.6040   -0.5339   15.7364 C   0  0  0  0  0  0  0  0  0  0  0  0
   11.8079   -1.6706   15.7103 C   0  0  0  0  0  0  0  0  0  0  0  0
   10.2242   -1.5447   15.0788 Cl  0  0  0  0  0  0  0  0  0  0  0  0
   12.2509   -2.8632   16.2753 C   0  0  0  0  0  0  0  0  0  0  0  0
   13.4770   -2.8945   16.9532 C   0  0  0  0  0  0  0  0  0  0  0  0
   13.8882   -4.1188   17.5710 C   0  0  0  0  0  0  0  0  0  0  0  0
   14.2663   -5.0982   18.0602 N   0  0  0  0  0  0  0  0  0  0  0  0
   19.6225   -1.0613   16.0966 C   0  0  0  0  0  0  0  0  0  0  0  0
   19.9758   -0.8528   14.7647 C   0  0  0  0  0  0  0  0  0  0  0  0
   20.6778    0.2506   14.4732 F   0  0  0  0  0  0  0  0  0  0  0  0
  1  2  1  0
  2  3  2  0
  2  4  1  0
  4  5  2  0
  5  6  1  0
  6  7  2  0
  7  8  1  0
  8  9  2  0
  8 10  2  0
  8 11  1  0
 11 12  1  0
 12 13  2  0
 12 14  1  0
 14 15  1  0
 15 16  2  0
 16 17  1  0
 17 18  2  0
 18 19  1  0
 18 20  1  0
 20 21  2  0
 21 22  1  0
 22 23  3  0
  7 24  1  0
 24 25  2  0
 25 26  1  0
 25  4  1  0
 21 15  1  0
M  END
>  <ref_mols>  (1046) 
B1396a

>  <gnina_score>  (1046) 
5.248

>  <smina_score_min>  (1046) 
-2.983

>  <ref_pdb>  (1046) 
B1396a

>  <inspiration_score>  (1046) 
None

>  <inchikey>  (1046) 
HHYBBGQCQVQZEH-UHFFFAOYSA-N

>  <tags>  (1046) 
BulkDock Fragalysis export,openbind_d68ev3c_c2_elabs_scored,openbind_d68ev3c_c2_elabs_scored_4.5plus,openbind_d68ev3c_c2_elabs,openbind_d68ev3c_c2_elabs_scored_5plus,syndirella_product,openbind_d68ev3c_c2_elabs_scored_top80percent,syndirella_placed

>  <smiles>  (1046) 
CC(=O)c1ccc(S(=O)(=O)CC(=O)Nc2ccc(Cl)cc2C#N)cc1F

>  <subsites>  (1046) 
None

>  <rmsd(smina/fragmenstein)>  (1046) 
1.624

>  <alias>  (1046) 
None

>  <energy_score>  (1046) 
-25.451508

>  <HIPPO Pose ID>  (1046) 
95297

>  <distance_score>  (1046) 
0.560617

>  <HIPPO Compound ID>  (1046) 
129171

>  <gnina_score_min>  (1046) 
5.119

>  <name>  (1046) 
P95297

>  <exports>  (1046) 
['/opt/xchem-fragalysis-2/maxwin/BulkDock/OUTPUTS/openbind_d68ev3c_c2_elabs_1LOTQJ3.sdf', '/opt/xchem-fragalysis-2/maxwin/BulkDock/OUTPUTS/openbind_d68ev3c_c2_elabs_1LSYI5W.sdf']

$$$$
P95302
     RDKit          3D

 26 28  0  0  0  0  0  0  0  0999 V2000
   13.9783   -3.9650   17.5143 C   0  0  0  0  0  0  0  0  0  0  0  0
   13.5169   -2.6500   16.9337 C   0  0  0  0  0  0  0  0  0  0  0  0
   12.2836   -2.6338   16.2512 C   0  0  0  0  0  0  0  0  0  0  0  0
   11.7694   -1.4356   15.7694 C   0  0  0  0  0  0  0  0  0  0  0  0
   10.0044   -1.3046   15.1369 Br  0  0  0  0  0  0  0  0  0  0  0  0
   12.4831   -0.2586   15.8997 C   0  0  0  0  0  0  0  0  0  0  0  0
   13.7013   -0.2503   16.5798 C   0  0  0  0  0  0  0  0  0  0  0  0
   14.2652    1.3400   16.9637 Cl  0  0  0  0  0  0  0  0  0  0  0  0
   14.2548   -1.4450   17.0879 C   0  0  0  0  0  0  0  0  0  0  0  0
   15.4607   -1.4943   17.8158 N   0  0  0  0  0  0  0  0  0  0  0  0
   16.7204   -0.5598   17.7637 C   0  0  0  0  0  0  0  0  0  0  0  0
   16.9067    0.4307   17.1640 O   0  0  0  0  0  0  0  0  0  0  0  0
   17.7725   -1.0699   18.7683 C   0  0  0  0  0  0  0  0  0  0  0  0
   18.4329   -2.5989   18.1280 S   0  0  0  0  0  0  0  0  0  0  0  0
   17.3509   -3.5718   18.1479 O   0  0  0  0  0  0  0  0  0  0  0  0
   19.6700   -2.8998   18.8233 O   0  0  0  0  0  0  0  0  0  0  0  0
   18.8466   -2.2949   16.4250 C   0  0  0  0  0  0  0  0  0  0  0  0
   20.0138   -1.5916   16.1169 C   0  0  0  0  0  0  0  0  0  0  0  0
   20.3368   -1.3485   14.7824 C   0  0  0  0  0  0  0  0  0  0  0  0
   19.5084   -1.8215   13.7652 C   0  0  0  0  0  0  0  0  0  0  0  0
   18.3561   -2.5438   14.0761 C   0  0  0  0  0  0  0  0  0  0  0  0
   18.0226   -2.7900   15.4085 C   0  0  0  0  0  0  0  0  0  0  0  0
   18.9009   -0.0190   18.9783 C   0  0  0  0  0  0  0  0  0  0  0  0
   18.5410    0.6933   20.2733 C   0  0  0  0  0  0  0  0  0  0  0  0
   18.0329   -0.4415   21.1372 C   0  0  0  0  0  0  0  0  0  0  0  0
   17.1631   -1.2532   20.1841 C   0  0  0  0  0  0  0  0  0  0  0  0
  1  2  1  0
  2  3  2  0
  3  4  1  0
  4  5  1  0
  4  6  2  0
  6  7  1  0
  7  8  1  0
  7  9  2  0
  9 10  1  0
 10 11  1  0
 11 12  2  0
 11 13  1  0
 13 14  1  0
 14 15  2  0
 14 16  2  0
 14 17  1  0
 17 18  2  0
 18 19  1  0
 19 20  2  0
 20 21  1  0
 21 22  2  0
 13 23  1  0
 23 24  1  0
 24 25  1  0
 25 26  1  0
  9  2  1  0
 26 13  1  0
 22 17  1  0
M  END
>  <ref_mols>  (1047) 
B1396a

>  <gnina_score>  (1047) 
5.515

>  <smina_score_min>  (1047) 
-3.623

>  <ref_pdb>  (1047) 
B1396a

>  <inspiration_score>  (1047) 
None

>  <inchikey>  (1047) 
WBNMTQKJVUAWDE-UHFFFAOYSA-N

>  <tags>  (1047) 
BulkDock Fragalysis export,openbind_d68ev3c_c2_elabs_scored,openbind_d68ev3c_c2_elabs_scored_4.5plus,openbind_d68ev3c_c2_elabs,openbind_d68ev3c_c2_elabs_scored_5plus,syndirella_product,openbind_d68ev3c_c2_elabs_scored_top80percent,syndirella_placed

>  <smiles>  (1047) 
Cc1cc(Br)cc(Cl)c1NC(=O)C1(S(=O)(=O)c2ccccc2)CCCC1

>  <subsites>  (1047) 
None

>  <rmsd(smina/fragmenstein)>  (1047) 
2.563

>  <alias>  (1047) 
None

>  <energy_score>  (1047) 
-26.866105

>  <HIPPO Pose ID>  (1047) 
95302

>  <distance_score>  (1047) 
0.669353

>  <HIPPO Compound ID>  (1047) 
129179

>  <gnina_score_min>  (1047) 
5.1

>  <name>  (1047) 
P95302

>  <exports>  (1047) 
['/opt/xchem-fragalysis-2/maxwin/BulkDock/OUTPUTS/openbind_d68ev3c_c2_elabs_1LOTQJ3.sdf', '/opt/xchem-fragalysis-2/maxwin/BulkDock/OUTPUTS/openbind_d68ev3c_c2_elabs_1LSYI5W.sdf']

$$$$
P95310
     RDKit          3D

 26 27  0  0  0  0  0  0  0  0999 V2000
   13.8241   -4.0004   17.4726 C   0  0  0  0  0  0  0  0  0  0  0  0
   13.4112   -2.6774   16.8680 C   0  0  0  0  0  0  0  0  0  0  0  0
   12.1617   -2.6219   16.2232 C   0  0  0  0  0  0  0  0  0  0  0  0
   11.6887   -1.4123   15.7386 C   0  0  0  0  0  0  0  0  0  0  0  0
    9.9066   -1.2022   15.1702 Br  0  0  0  0  0  0  0  0  0  0  0  0
   12.4759   -0.2756   15.8068 C   0  0  0  0  0  0  0  0  0  0  0  0
   13.7308   -0.2930   16.4411 C   0  0  0  0  0  0  0  0  0  0  0  0
   14.3995    1.0488   16.5520 C   0  0  0  0  0  0  0  0  0  0  0  0
   14.2140   -1.5049   16.9778 C   0  0  0  0  0  0  0  0  0  0  0  0
   15.4205   -1.6419   17.6905 N   0  0  0  0  0  0  0  0  0  0  0  0
   16.6722   -0.7029   17.7605 C   0  0  0  0  0  0  0  0  0  0  0  0
   16.9146    0.2834   17.1759 O   0  0  0  0  0  0  0  0  0  0  0  0
   17.6059   -1.2535   18.8188 C   0  0  2  0  0  0  0  0  0  0  0  0
   18.5539   -0.1777   19.3398 C   0  0  0  0  0  0  0  0  0  0  0  0
   18.4561   -2.6501   18.1472 S   0  0  0  0  0  0  0  0  0  0  0  0
   17.4859   -3.7326   18.1024 O   0  0  0  0  0  0  0  0  0  0  0  0
   19.6991   -2.8258   18.8732 O   0  0  0  0  0  0  0  0  0  0  0  0
   18.8919   -2.2612   16.4644 C   0  0  0  0  0  0  0  0  0  0  0  0
   18.1548   -2.8097   15.4064 C   0  0  0  0  0  0  0  0  0  0  0  0
   18.5149   -2.5153   14.0871 C   0  0  0  0  0  0  0  0  0  0  0  0
   19.6164   -1.6824   13.8395 C   0  0  0  0  0  0  0  0  0  0  0  0
   19.9950   -1.3581   12.4573 N   0  0  0  0  0  0  0  0  0  0  0  0
   19.2665   -1.7769   11.5492 O   0  0  0  0  0  0  0  0  0  0  0  0
   21.0183   -0.6800   12.2858 O   0  0  0  0  0  0  0  0  0  0  0  0
   20.3646   -1.1541   14.9008 C   0  0  0  0  0  0  0  0  0  0  0  0
   20.0061   -1.4535   16.2169 C   0  0  0  0  0  0  0  0  0  0  0  0
  1  2  1  0
  2  3  2  0
  3  4  1  0
  4  5  1  0
  4  6  2  0
  6  7  1  0
  7  8  1  0
  7  9  2  0
  9 10  1  0
 10 11  1  0
 11 12  2  0
 11 13  1  0
 13 14  1  6
 13 15  1  0
 15 16  2  0
 15 17  2  0
 15 18  1  0
 18 19  2  0
 19 20  1  0
 20 21  2  0
 21 22  1  0
 22 23  2  0
 22 24  1  0
 21 25  1  0
 25 26  2  0
  9  2  1  0
 26 18  1  0
M  CHG  2  22   1  24  -1
M  END
>  <ref_mols>  (1048) 
B1396a

>  <gnina_score>  (1048) 
5.25

>  <smina_score_min>  (1048) 
-2.729

>  <ref_pdb>  (1048) 
B1396a

>  <inspiration_score>  (1048) 
None

>  <inchikey>  (1048) 
XFWUBMGPWMQGDL-LBPRGKRZSA-N

>  <tags>  (1048) 
BulkDock Fragalysis export,openbind_d68ev3c_c2_elabs_scored,openbind_d68ev3c_c2_elabs_scored_4.5plus,openbind_d68ev3c_c2_elabs,openbind_d68ev3c_c2_elabs_scored_5plus,syndirella_product,openbind_d68ev3c_c2_elabs_scored_top80percent,syndirella_placed

>  <smiles>  (1048) 
Cc1cc(Br)cc(C)c1NC(=O)[C@H](C)S(=O)(=O)c1ccc([N+](=O)[O-])cc1

>  <subsites>  (1048) 
None

>  <rmsd(smina/fragmenstein)>  (1048) 
1.281

>  <alias>  (1048) 
None

>  <energy_score>  (1048) 
-33.882715

>  <HIPPO Pose ID>  (1048) 
95310

>  <distance_score>  (1048) 
0.622536

>  <HIPPO Compound ID>  (1048) 
129187

>  <gnina_score_min>  (1048) 
5.018

>  <name>  (1048) 
P95310

>  <exports>  (1048) 
['/opt/xchem-fragalysis-2/maxwin/BulkDock/OUTPUTS/openbind_d68ev3c_c2_elabs_1LOTQJ3.sdf', '/opt/xchem-fragalysis-2/maxwin/BulkDock/OUTPUTS/openbind_d68ev3c_c2_elabs_1LSYI5W.sdf']

$$$$
P95317
     RDKit          3D

 26 27  0  0  0  0  0  0  0  0999 V2000
   19.1531   -2.5987   11.3030 C   0  0  0  0  0  0  0  0  0  0  0  0
   19.7459   -1.7072   12.3625 C   0  0  0  0  0  0  0  0  0  0  0  0
   20.5286   -0.8043   12.0694 O   0  0  0  0  0  0  0  0  0  0  0  0
   19.3821   -1.9114   13.7919 C   0  0  0  0  0  0  0  0  0  0  0  0
   20.1276   -1.2396   14.7754 C   0  0  0  0  0  0  0  0  0  0  0  0
   19.8172   -1.3880   16.1313 C   0  0  0  0  0  0  0  0  0  0  0  0
   18.7497   -2.2073   16.5022 C   0  0  0  0  0  0  0  0  0  0  0  0
   18.3263   -2.3861   18.2158 S   0  0  0  0  0  0  0  0  0  0  0  0
   19.5667   -2.3671   18.9658 O   0  0  0  0  0  0  0  0  0  0  0  0
   17.4223   -3.5180   18.3269 O   0  0  0  0  0  0  0  0  0  0  0  0
   17.4027   -0.9526   18.6476 C   0  0  0  0  0  0  0  0  0  0  0  0
   16.4038   -0.6388   17.5678 C   0  0  0  0  0  0  0  0  0  0  0  0
   16.5994    0.2129   16.7881 O   0  0  0  0  0  0  0  0  0  0  0  0
   15.1700   -1.5781   17.7513 N   0  0  0  0  0  0  0  0  0  0  0  0
   14.0027   -1.7174   16.9740 C   0  0  0  0  0  0  0  0  0  0  0  0
   13.3895   -2.9973   16.9819 C   0  0  0  0  0  0  0  0  0  0  0  0
   13.9375   -4.1632   17.7654 C   0  0  0  0  0  0  0  0  0  0  0  0
   12.2333   -3.2188   16.2201 C   0  0  0  0  0  0  0  0  0  0  0  0
   11.6833   -2.1990   15.4668 C   0  0  0  0  0  0  0  0  0  0  0  0
   10.5587   -2.4271   14.7812 F   0  0  0  0  0  0  0  0  0  0  0  0
   12.2476   -0.9368   15.4669 C   0  0  0  0  0  0  0  0  0  0  0  0
   13.4005   -0.6746   16.2264 C   0  0  0  0  0  0  0  0  0  0  0  0
   13.8295    1.0619   16.3034 S   0  0  0  0  0  0  0  0  0  0  0  0
   18.0126   -2.8969   15.5399 C   0  0  0  0  0  0  0  0  0  0  0  0
   18.3259   -2.7302   14.1938 C   0  0  0  0  0  0  0  0  0  0  0  0
   17.5491   -3.3611   13.3047 F   0  0  0  0  0  0  0  0  0  0  0  0
  1  2  1  0
  2  3  2  0
  2  4  1  0
  4  5  2  0
  5  6  1  0
  6  7  2  0
  7  8  1  0
  8  9  2  0
  8 10  2  0
  8 11  1  0
 11 12  1  0
 12 13  2  0
 12 14  1  0
 14 15  1  0
 15 16  2  0
 16 17  1  0
 16 18  1  0
 18 19  2  0
 19 20  1  0
 19 21  1  0
 21 22  2  0
 22 23  1  0
  7 24  1  0
 24 25  2  0
 25 26  1  0
 25  4  1  0
 22 15  1  0
M  END
>  <ref_mols>  (1049) 
B1396a

>  <gnina_score>  (1049) 
5.201

>  <smina_score_min>  (1049) 
-3.945

>  <ref_pdb>  (1049) 
B1396a

>  <inspiration_score>  (1049) 
None

>  <inchikey>  (1049) 
ANWWJXPLJNCRLF-UHFFFAOYSA-N

>  <tags>  (1049) 
BulkDock Fragalysis export,openbind_d68ev3c_c2_elabs_scored,openbind_d68ev3c_c2_elabs_scored_4.5plus,openbind_d68ev3c_c2_elabs,openbind_d68ev3c_c2_elabs_scored_5plus,syndirella_product,openbind_d68ev3c_c2_elabs_scored_top80percent,syndirella_placed

>  <smiles>  (1049) 
CC(=O)c1ccc(S(=O)(=O)CC(=O)Nc2c(C)cc(F)cc2S)cc1F

>  <subsites>  (1049) 
None

>  <rmsd(smina/fragmenstein)>  (1049) 
2.349

>  <alias>  (1049) 
None

>  <energy_score>  (1049) 
-31.468508

>  <HIPPO Pose ID>  (1049) 
95317

>  <distance_score>  (1049) 
0.344611

>  <HIPPO Compound ID>  (1049) 
129199

>  <gnina_score_min>  (1049) 
5.06

>  <name>  (1049) 
P95317

>  <exports>  (1049) 
['/opt/xchem-fragalysis-2/maxwin/BulkDock/OUTPUTS/openbind_d68ev3c_c2_elabs_1LOTQJ3.sdf', '/opt/xchem-fragalysis-2/maxwin/BulkDock/OUTPUTS/openbind_d68ev3c_c2_elabs_1LSYI5W.sdf']

$$$$
P95321
     RDKit          3D

 26 28  0  0  0  0  0  0  0  0999 V2000
   14.1692   -5.0039   18.3168 N   0  0  0  0  0  0  0  0  0  0  0  0
   13.7681   -4.1279   17.6736 C   0  0  0  0  0  0  0  0  0  0  0  0
   13.3245   -3.0233   16.8765 C   0  0  0  0  0  0  0  0  0  0  0  0
   12.1563   -3.1703   16.1127 C   0  0  0  0  0  0  0  0  0  0  0  0
   11.6887   -2.1234   15.3195 C   0  0  0  0  0  0  0  0  0  0  0  0
   12.3938   -0.9249   15.2920 C   0  0  0  0  0  0  0  0  0  0  0  0
   11.7560    0.5024   14.2289 Br  0  0  0  0  0  0  0  0  0  0  0  0
   13.5651   -0.7681   16.0388 C   0  0  0  0  0  0  0  0  0  0  0  0
   14.0441   -1.8170   16.8337 C   0  0  0  0  0  0  0  0  0  0  0  0
   15.2194   -1.6512   17.5828 N   0  0  0  0  0  0  0  0  0  0  0  0
   16.2795   -0.5000   17.5678 C   0  0  0  0  0  0  0  0  0  0  0  0
   16.2878    0.5163   16.9838 O   0  0  0  0  0  0  0  0  0  0  0  0
   17.3922   -0.8283   18.5950 C   0  0  0  0  0  0  0  0  0  0  0  0
   18.2558   -2.3097   18.0762 S   0  0  0  0  0  0  0  0  0  0  0  0
   19.4807   -2.4384   18.8435 O   0  0  0  0  0  0  0  0  0  0  0  0
   17.2853   -3.3922   18.0945 O   0  0  0  0  0  0  0  0  0  0  0  0
   18.7269   -2.0613   16.3803 C   0  0  0  0  0  0  0  0  0  0  0  0
   19.8450   -1.2773   16.0857 C   0  0  0  0  0  0  0  0  0  0  0  0
   20.2318   -1.1058   14.7571 C   0  0  0  0  0  0  0  0  0  0  0  0
   19.5178   -1.7304   13.7345 C   0  0  0  0  0  0  0  0  0  0  0  0
   18.4189   -2.5356   14.0344 C   0  0  0  0  0  0  0  0  0  0  0  0
   18.0220   -2.7105   15.3605 C   0  0  0  0  0  0  0  0  0  0  0  0
   16.7814   -1.0014   20.0127 C   0  0  0  0  0  0  0  0  0  0  0  0
   17.5005   -0.0055   20.9165 C   0  0  0  0  0  0  0  0  0  0  0  0
   17.8900    1.1171   19.9772 C   0  0  0  0  0  0  0  0  0  0  0  0
   18.3780    0.3621   18.7502 C   0  0  0  0  0  0  0  0  0  0  0  0
  1  2  3  0
  2  3  1  0
  3  4  2  0
  4  5  1  0
  5  6  2  0
  6  7  1  0
  6  8  1  0
  8  9  2  0
  9 10  1  0
 10 11  1  0
 11 12  2  0
 11 13  1  0
 13 14  1  0
 14 15  2  0
 14 16  2  0
 14 17  1  0
 17 18  2  0
 18 19  1  0
 19 20  2  0
 20 21  1  0
 21 22  2  0
 13 23  1  0
 23 24  1  0
 24 25  1  0
 25 26  1  0
  9  3  1  0
 26 13  1  0
 22 17  1  0
M  END
>  <ref_mols>  (1050) 
B1396a

>  <gnina_score>  (1050) 
5.167

>  <smina_score_min>  (1050) 
-3.706

>  <ref_pdb>  (1050) 
B1396a

>  <inspiration_score>  (1050) 
None

>  <inchikey>  (1050) 
PQDWSKSHINETOZ-UHFFFAOYSA-N

>  <tags>  (1050) 
BulkDock Fragalysis export,openbind_d68ev3c_c2_elabs_scored,openbind_d68ev3c_c2_elabs_scored_4.5plus,openbind_d68ev3c_c2_elabs,openbind_d68ev3c_c2_elabs_scored_5plus,syndirella_product,openbind_d68ev3c_c2_elabs_scored_top80percent,syndirella_placed

>  <smiles>  (1050) 
N#Cc1ccc(Br)cc1NC(=O)C1(S(=O)(=O)c2ccccc2)CCCC1

>  <subsites>  (1050) 
None

>  <rmsd(smina/fragmenstein)>  (1050) 
1.405

>  <alias>  (1050) 
None

>  <energy_score>  (1050) 
-37.516799

>  <HIPPO Pose ID>  (1050) 
95321

>  <distance_score>  (1050) 
0.421365

>  <HIPPO Compound ID>  (1050) 
129205

>  <gnina_score_min>  (1050) 
5.007

>  <name>  (1050) 
P95321

>  <exports>  (1050) 
['/opt/xchem-fragalysis-2/maxwin/BulkDock/OUTPUTS/openbind_d68ev3c_c2_elabs_1LOTQJ3.sdf', '/opt/xchem-fragalysis-2/maxwin/BulkDock/OUTPUTS/openbind_d68ev3c_c2_elabs_1LSYI5W.sdf']

$$$$
P95326
     RDKit          3D

 26 27  0  0  0  0  0  0  0  0999 V2000
   20.4446   -0.3165   11.8983 C   0  0  0  0  0  0  0  0  0  0  0  0
   20.1183   -1.6950   12.4072 C   0  0  0  0  0  0  0  0  0  0  0  0
   20.1980   -2.6833   11.6811 O   0  0  0  0  0  0  0  0  0  0  0  0
   19.6965   -1.8744   13.8191 C   0  0  0  0  0  0  0  0  0  0  0  0
   18.9387   -3.0071   14.1559 C   0  0  0  0  0  0  0  0  0  0  0  0
   18.5467   -3.2264   15.4800 C   0  0  0  0  0  0  0  0  0  0  0  0
   18.9289   -2.3147   16.4695 C   0  0  0  0  0  0  0  0  0  0  0  0
   18.4777   -2.6054   18.1605 S   0  0  0  0  0  0  0  0  0  0  0  0
   19.7165   -2.7284   18.9021 O   0  0  0  0  0  0  0  0  0  0  0  0
   17.4930   -3.6739   18.1784 O   0  0  0  0  0  0  0  0  0  0  0  0
   17.6548   -1.1748   18.7449 C   0  0  0  0  0  0  0  0  0  0  0  0
   16.6596   -0.6940   17.7332 C   0  0  0  0  0  0  0  0  0  0  0  0
   16.8587    0.2692   17.0971 O   0  0  0  0  0  0  0  0  0  0  0  0
   15.3989   -1.6140   17.8094 N   0  0  0  0  0  0  0  0  0  0  0  0
   14.2044   -1.5873   17.0701 C   0  0  0  0  0  0  0  0  0  0  0  0
   13.6682   -0.4176   16.4904 C   0  0  0  0  0  0  0  0  0  0  0  0
   14.2455    0.9642   16.6257 C   0  0  0  0  0  0  0  0  0  0  0  0
   12.4561   -0.4969   15.7846 C   0  0  0  0  0  0  0  0  0  0  0  0
   11.7555   -1.6885   15.7042 C   0  0  0  0  0  0  0  0  0  0  0  0
   10.1866   -1.6635   15.0313 Cl  0  0  0  0  0  0  0  0  0  0  0  0
   12.2661   -2.8463   16.2687 C   0  0  0  0  0  0  0  0  0  0  0  0
   13.4821   -2.8079   16.9700 C   0  0  0  0  0  0  0  0  0  0  0  0
   13.9586   -4.0905   17.6081 C   0  0  0  0  0  0  0  0  0  0  0  0
   19.6985   -1.1951   16.1493 C   0  0  0  0  0  0  0  0  0  0  0  0
   20.0707   -0.9813   14.8239 C   0  0  0  0  0  0  0  0  0  0  0  0
   20.8295    0.0896   14.5540 F   0  0  0  0  0  0  0  0  0  0  0  0
  1  2  1  0
  2  3  2  0
  2  4  1  0
  4  5  2  0
  5  6  1  0
  6  7  2  0
  7  8  1  0
  8  9  2  0
  8 10  2  0
  8 11  1  0
 11 12  1  0
 12 13  2  0
 12 14  1  0
 14 15  1  0
 15 16  2  0
 16 17  1  0
 16 18  1  0
 18 19  2  0
 19 20  1  0
 19 21  1  0
 21 22  2  0
 22 23  1  0
  7 24  1  0
 24 25  2  0
 25 26  1  0
 25  4  1  0
 22 15  1  0
M  END
>  <ref_mols>  (1051) 
B1396a

>  <gnina_score>  (1051) 
5.145

>  <smina_score_min>  (1051) 
-3.427

>  <ref_pdb>  (1051) 
B1396a

>  <inspiration_score>  (1051) 
None

>  <inchikey>  (1051) 
UDPFBCOSPAKDOB-UHFFFAOYSA-N

>  <tags>  (1051) 
BulkDock Fragalysis export,openbind_d68ev3c_c2_elabs_scored,openbind_d68ev3c_c2_elabs_scored_4.5plus,openbind_d68ev3c_c2_elabs,openbind_d68ev3c_c2_elabs_scored_5plus,syndirella_product,openbind_d68ev3c_c2_elabs_scored_top80percent,syndirella_placed

>  <smiles>  (1051) 
CC(=O)c1ccc(S(=O)(=O)CC(=O)Nc2c(C)cc(Cl)cc2C)cc1F

>  <subsites>  (1051) 
None

>  <rmsd(smina/fragmenstein)>  (1051) 
2.167

>  <alias>  (1051) 
None

>  <energy_score>  (1051) 
-33.013292

>  <HIPPO Pose ID>  (1051) 
95326

>  <distance_score>  (1051) 
0.540699

>  <HIPPO Compound ID>  (1051) 
129212

>  <gnina_score_min>  (1051) 
5.057

>  <name>  (1051) 
P95326

>  <exports>  (1051) 
['/opt/xchem-fragalysis-2/maxwin/BulkDock/OUTPUTS/openbind_d68ev3c_c2_elabs_1LOTQJ3.sdf', '/opt/xchem-fragalysis-2/maxwin/BulkDock/OUTPUTS/openbind_d68ev3c_c2_elabs_1LSYI5W.sdf']

$$$$
P95330
     RDKit          3D

 26 27  0  0  0  0  0  0  0  0999 V2000
   20.4120   -0.3519   11.7935 C   0  0  0  0  0  0  0  0  0  0  0  0
   20.1003   -1.7077   12.3683 C   0  0  0  0  0  0  0  0  0  0  0  0
   20.2132   -2.7305   11.6964 O   0  0  0  0  0  0  0  0  0  0  0  0
   19.6514   -1.8218   13.7794 C   0  0  0  0  0  0  0  0  0  0  0  0
   18.9336   -2.9650   14.1650 C   0  0  0  0  0  0  0  0  0  0  0  0
   18.5195   -3.1244   15.4907 C   0  0  0  0  0  0  0  0  0  0  0  0
   18.8363   -2.1403   16.4337 C   0  0  0  0  0  0  0  0  0  0  0  0
   18.3700   -2.3660   18.1297 S   0  0  0  0  0  0  0  0  0  0  0  0
   17.4188   -3.4621   18.1735 O   0  0  0  0  0  0  0  0  0  0  0  0
   19.6017   -2.4191   18.8909 O   0  0  0  0  0  0  0  0  0  0  0  0
   17.4839   -0.9388   18.6348 C   0  0  0  0  0  0  0  0  0  0  0  0
   16.4452   -0.5416   17.6216 C   0  0  0  0  0  0  0  0  0  0  0  0
   16.5333    0.4661   17.0319 O   0  0  0  0  0  0  0  0  0  0  0  0
   15.3082   -1.6103   17.6325 N   0  0  0  0  0  0  0  0  0  0  0  0
   14.1330   -1.6965   16.8722 C   0  0  0  0  0  0  0  0  0  0  0  0
   13.7055   -0.5960   16.1165 C   0  0  0  0  0  0  0  0  0  0  0  0
   12.5390   -0.6610   15.3461 C   0  0  0  0  0  0  0  0  0  0  0  0
   11.7949   -1.8328   15.3140 C   0  0  0  0  0  0  0  0  0  0  0  0
   12.2223   -2.9235   16.0625 C   0  0  0  0  0  0  0  0  0  0  0  0
   11.4997   -4.0437   16.0097 F   0  0  0  0  0  0  0  0  0  0  0  0
   13.3702   -2.8727   16.8519 C   0  0  0  0  0  0  0  0  0  0  0  0
   13.7585   -4.0349   17.5873 C   0  0  0  0  0  0  0  0  0  0  0  0
   14.1552   -4.9412   18.1909 N   0  0  0  0  0  0  0  0  0  0  0  0
   19.5623   -1.0076   16.0659 C   0  0  0  0  0  0  0  0  0  0  0  0
   19.9603   -0.8563   14.7389 C   0  0  0  0  0  0  0  0  0  0  0  0
   20.6784    0.2303   14.4247 F   0  0  0  0  0  0  0  0  0  0  0  0
  1  2  1  0
  2  3  2  0
  2  4  1  0
  4  5  2  0
  5  6  1  0
  6  7  2  0
  7  8  1  0
  8  9  2  0
  8 10  2  0
  8 11  1  0
 11 12  1  0
 12 13  2  0
 12 14  1  0
 14 15  1  0
 15 16  2  0
 16 17  1  0
 17 18  2  0
 18 19  1  0
 19 20  1  0
 19 21  2  0
 21 22  1  0
 22 23  3  0
  7 24  1  0
 24 25  2  0
 25 26  1  0
 25  4  1  0
 21 15  1  0
M  END
>  <ref_mols>  (1052) 
B1396a

>  <gnina_score>  (1052) 
5.103

>  <smina_score_min>  (1052) 
-3.657

>  <ref_pdb>  (1052) 
B1396a

>  <inspiration_score>  (1052) 
None

>  <inchikey>  (1052) 
UFGUSPKLBZVYQT-UHFFFAOYSA-N

>  <tags>  (1052) 
BulkDock Fragalysis export,openbind_d68ev3c_c2_elabs_scored,openbind_d68ev3c_c2_elabs_scored_4.5plus,openbind_d68ev3c_c2_elabs,openbind_d68ev3c_c2_elabs_scored_5plus,syndirella_product,openbind_d68ev3c_c2_elabs_scored_top80percent,syndirella_placed

>  <smiles>  (1052) 
CC(=O)c1ccc(S(=O)(=O)CC(=O)Nc2cccc(F)c2C#N)cc1F

>  <subsites>  (1052) 
None

>  <rmsd(smina/fragmenstein)>  (1052) 
1.968

>  <alias>  (1052) 
None

>  <energy_score>  (1052) 
-41.365349

>  <HIPPO Pose ID>  (1052) 
95330

>  <distance_score>  (1052) 
0.460921

>  <HIPPO Compound ID>  (1052) 
129217

>  <gnina_score_min>  (1052) 
5.06

>  <name>  (1052) 
P95330

>  <exports>  (1052) 
['/opt/xchem-fragalysis-2/maxwin/BulkDock/OUTPUTS/openbind_d68ev3c_c2_elabs_1LOTQJ3.sdf', '/opt/xchem-fragalysis-2/maxwin/BulkDock/OUTPUTS/openbind_d68ev3c_c2_elabs_1LSYI5W.sdf']

$$$$
P95332
     RDKit          3D

 26 27  0  0  0  0  0  0  0  0999 V2000
   20.5685   -0.4322   11.8737 C   0  0  0  0  0  0  0  0  0  0  0  0
   20.2217   -1.8045   12.3858 C   0  0  0  0  0  0  0  0  0  0  0  0
   20.2982   -2.7978   11.6660 O   0  0  0  0  0  0  0  0  0  0  0  0
   19.7833   -1.9711   13.7937 C   0  0  0  0  0  0  0  0  0  0  0  0
   18.9929   -3.0831   14.1253 C   0  0  0  0  0  0  0  0  0  0  0  0
   18.5824   -3.2887   15.4459 C   0  0  0  0  0  0  0  0  0  0  0  0
   18.9782   -2.3837   16.4359 C   0  0  0  0  0  0  0  0  0  0  0  0
   18.4759   -2.6359   18.1189 S   0  0  0  0  0  0  0  0  0  0  0  0
   19.6892   -2.7349   18.9051 O   0  0  0  0  0  0  0  0  0  0  0  0
   17.4934   -3.7070   18.1336 O   0  0  0  0  0  0  0  0  0  0  0  0
   17.6290   -1.1911   18.6322 C   0  0  0  0  0  0  0  0  0  0  0  0
   16.6864   -0.7470   17.5562 C   0  0  0  0  0  0  0  0  0  0  0  0
   16.9535    0.1438   16.8450 O   0  0  0  0  0  0  0  0  0  0  0  0
   15.3910   -1.6143   17.6487 N   0  0  0  0  0  0  0  0  0  0  0  0
   14.1673   -1.5001   16.9695 C   0  0  0  0  0  0  0  0  0  0  0  0
   13.3747   -2.6709   16.8533 C   0  0  0  0  0  0  0  0  0  0  0  0
   13.7975   -3.9919   17.4503 C   0  0  0  0  0  0  0  0  0  0  0  0
   12.1280   -2.6056   16.2025 C   0  0  0  0  0  0  0  0  0  0  0  0
   11.6506   -1.3868   15.7310 C   0  0  0  0  0  0  0  0  0  0  0  0
    9.8641   -1.1783   15.1723 Br  0  0  0  0  0  0  0  0  0  0  0  0
   12.4229   -0.2420   15.8247 C   0  0  0  0  0  0  0  0  0  0  0  0
   13.6655   -0.2866   16.4567 C   0  0  0  0  0  0  0  0  0  0  0  0
   14.3451    1.2707   16.7823 Cl  0  0  0  0  0  0  0  0  0  0  0  0
   19.7843   -1.2879   16.1216 C   0  0  0  0  0  0  0  0  0  0  0  0
   20.1745   -1.0871   14.7998 C   0  0  0  0  0  0  0  0  0  0  0  0
   20.9669   -0.0397   14.5342 F   0  0  0  0  0  0  0  0  0  0  0  0
  1  2  1  0
  2  3  2  0
  2  4  1  0
  4  5  2  0
  5  6  1  0
  6  7  2  0
  7  8  1  0
  8  9  2  0
  8 10  2  0
  8 11  1  0
 11 12  1  0
 12 13  2  0
 12 14  1  0
 14 15  1  0
 15 16  2  0
 16 17  1  0
 16 18  1  0
 18 19  2  0
 19 20  1  0
 19 21  1  0
 21 22  2  0
 22 23  1  0
  7 24  1  0
 24 25  2  0
 25 26  1  0
 25  4  1  0
 22 15  1  0
M  END
>  <ref_mols>  (1053) 
B1396a

>  <gnina_score>  (1053) 
5.424

>  <smina_score_min>  (1053) 
-2.899

>  <ref_pdb>  (1053) 
B1396a

>  <inspiration_score>  (1053) 
None

>  <inchikey>  (1053) 
LXPJFZYCZGAYOO-UHFFFAOYSA-N

>  <tags>  (1053) 
BulkDock Fragalysis export,openbind_d68ev3c_c2_elabs_scored,openbind_d68ev3c_c2_elabs_scored_4.5plus,openbind_d68ev3c_c2_elabs,openbind_d68ev3c_c2_elabs_scored_5plus,syndirella_product,openbind_d68ev3c_c2_elabs_scored_top80percent,syndirella_placed

>  <smiles>  (1053) 
CC(=O)c1ccc(S(=O)(=O)CC(=O)Nc2c(C)cc(Br)cc2Cl)cc1F

>  <subsites>  (1053) 
None

>  <rmsd(smina/fragmenstein)>  (1053) 
2.256

>  <alias>  (1053) 
None

>  <energy_score>  (1053) 
-19.042239

>  <HIPPO Pose ID>  (1053) 
95332

>  <distance_score>  (1053) 
0.565912

>  <HIPPO Compound ID>  (1053) 
129219

>  <gnina_score_min>  (1053) 
5.107

>  <name>  (1053) 
P95332

>  <exports>  (1053) 
['/opt/xchem-fragalysis-2/maxwin/BulkDock/OUTPUTS/openbind_d68ev3c_c2_elabs_1LOTQJ3.sdf', '/opt/xchem-fragalysis-2/maxwin/BulkDock/OUTPUTS/openbind_d68ev3c_c2_elabs_1LSYI5W.sdf']

$$$$
P95342
     RDKit          3D

 26 28  0  0  0  0  0  0  0  0999 V2000
   14.2232    0.9975   16.5924 C   0  0  0  0  0  0  0  0  0  0  0  0
   13.6674   -0.3936   16.4708 C   0  0  0  0  0  0  0  0  0  0  0  0
   12.4355   -0.4798   15.7968 C   0  0  0  0  0  0  0  0  0  0  0  0
   11.7470   -1.6770   15.7117 C   0  0  0  0  0  0  0  0  0  0  0  0
   10.1721   -1.6625   15.0514 Cl  0  0  0  0  0  0  0  0  0  0  0  0
   12.2805   -2.8329   16.2557 C   0  0  0  0  0  0  0  0  0  0  0  0
   13.5143   -2.7880   16.9274 C   0  0  0  0  0  0  0  0  0  0  0  0
   14.0065   -4.0728   17.5525 C   0  0  0  0  0  0  0  0  0  0  0  0
   14.2378   -1.5633   17.0172 C   0  0  0  0  0  0  0  0  0  0  0  0
   15.4720   -1.6207   17.6932 N   0  0  0  0  0  0  0  0  0  0  0  0
   16.6438   -0.5823   17.7614 C   0  0  0  0  0  0  0  0  0  0  0  0
   16.7867    0.4392   17.2030 O   0  0  0  0  0  0  0  0  0  0  0  0
   17.6837   -1.0581   18.7938 C   0  0  0  0  0  0  0  0  0  0  0  0
   18.4426   -2.5431   18.1738 S   0  0  0  0  0  0  0  0  0  0  0  0
   17.4203   -3.5784   18.2022 O   0  0  0  0  0  0  0  0  0  0  0  0
   19.6942   -2.7584   18.8750 O   0  0  0  0  0  0  0  0  0  0  0  0
   18.8495   -2.2380   16.4698 C   0  0  0  0  0  0  0  0  0  0  0  0
   19.9735   -1.4666   16.1633 C   0  0  0  0  0  0  0  0  0  0  0  0
   20.3014   -1.2313   14.8285 C   0  0  0  0  0  0  0  0  0  0  0  0
   19.5213   -1.7784   13.8101 C   0  0  0  0  0  0  0  0  0  0  0  0
   18.4133   -2.5674   14.1202 C   0  0  0  0  0  0  0  0  0  0  0  0
   18.0752   -2.8068   15.4528 C   0  0  0  0  0  0  0  0  0  0  0  0
   18.7227    0.0448   19.0864 C   0  0  0  0  0  0  0  0  0  0  0  0
   18.0542    0.9687   20.1043 C   0  0  0  0  0  0  0  0  0  0  0  0
   16.9568    0.1443   20.7691 C   0  0  0  0  0  0  0  0  0  0  0  0
   17.0836   -1.2622   20.1936 C   0  0  0  0  0  0  0  0  0  0  0  0
  1  2  1  0
  2  3  2  0
  3  4  1  0
  4  5  1  0
  4  6  2  0
  6  7  1  0
  7  8  1  0
  7  9  2  0
  9 10  1  0
 10 11  1  0
 11 12  2  0
 11 13  1  0
 13 14  1  0
 14 15  2  0
 14 16  2  0
 14 17  1  0
 17 18  2  0
 18 19  1  0
 19 20  2  0
 20 21  1  0
 21 22  2  0
 13 23  1  0
 23 24  1  0
 24 25  1  0
 25 26  1  0
  9  2  1  0
 26 13  1  0
 22 17  1  0
M  END
>  <ref_mols>  (1054) 
B1396a

>  <gnina_score>  (1054) 
5.195

>  <smina_score_min>  (1054) 
-3.465

>  <ref_pdb>  (1054) 
B1396a

>  <inspiration_score>  (1054) 
None

>  <inchikey>  (1054) 
DMMXQGUQDXEAGW-UHFFFAOYSA-N

>  <tags>  (1054) 
BulkDock Fragalysis export,openbind_d68ev3c_c2_elabs_scored,openbind_d68ev3c_c2_elabs_scored_4.5plus,openbind_d68ev3c_c2_elabs,openbind_d68ev3c_c2_elabs_scored_5plus,syndirella_product,openbind_d68ev3c_c2_elabs_scored_top80percent,syndirella_placed

>  <smiles>  (1054) 
Cc1cc(Cl)cc(C)c1NC(=O)C1(S(=O)(=O)c2ccccc2)CCCC1

>  <subsites>  (1054) 
None

>  <rmsd(smina/fragmenstein)>  (1054) 
1.96

>  <alias>  (1054) 
None

>  <energy_score>  (1054) 
-30.815704

>  <HIPPO Pose ID>  (1054) 
95342

>  <distance_score>  (1054) 
0.583265

>  <HIPPO Compound ID>  (1054) 
129232

>  <gnina_score_min>  (1054) 
5.083

>  <name>  (1054) 
P95342

>  <exports>  (1054) 
['/opt/xchem-fragalysis-2/maxwin/BulkDock/OUTPUTS/openbind_d68ev3c_c2_elabs_1LOTQJ3.sdf', '/opt/xchem-fragalysis-2/maxwin/BulkDock/OUTPUTS/openbind_d68ev3c_c2_elabs_1LSYI5W.sdf']

$$$$
P95362
     RDKit          3D

 26 27  0  0  0  0  0  0  0  0999 V2000
   14.8073   -5.0487   17.5506 C   0  0  0  0  0  0  0  0  0  0  0  0
   13.8313   -4.0063   18.0611 C   0  0  0  0  0  0  0  0  0  0  0  0
   13.5642   -2.8553   17.1133 C   0  0  0  0  0  0  0  0  0  0  0  0
   12.3373   -2.8136   16.4266 C   0  0  0  0  0  0  0  0  0  0  0  0
   11.9651   -1.6660   15.7250 C   0  0  0  0  0  0  0  0  0  0  0  0
   10.2050   -1.4306   15.1115 Br  0  0  0  0  0  0  0  0  0  0  0  0
   12.8425   -0.6032   15.5823 C   0  0  0  0  0  0  0  0  0  0  0  0
   14.0858   -0.6605   16.1984 C   0  0  0  0  0  0  0  0  0  0  0  0
   14.4427   -1.7600   16.9854 C   0  0  0  0  0  0  0  0  0  0  0  0
   15.6517   -1.7367   17.6764 N   0  0  0  0  0  0  0  0  0  0  0  0
   16.7572   -0.6368   17.7472 C   0  0  0  0  0  0  0  0  0  0  0  0
   16.8530    0.3810   17.1746 O   0  0  0  0  0  0  0  0  0  0  0  0
   17.8029   -1.0370   18.7660 C   0  0  1  0  0  0  0  0  0  0  0  0
   17.2375   -1.1710   20.1730 C   0  0  0  0  0  0  0  0  0  0  0  0
   18.6449   -2.4896   18.2290 S   0  0  0  0  0  0  0  0  0  0  0  0
   17.6958   -3.5864   18.3182 O   0  0  0  0  0  0  0  0  0  0  0  0
   19.9121   -2.5547   18.9287 O   0  0  0  0  0  0  0  0  0  0  0  0
   19.0325   -2.2516   16.5073 C   0  0  0  0  0  0  0  0  0  0  0  0
   18.5860   -3.1757   15.5538 C   0  0  0  0  0  0  0  0  0  0  0  0
   18.9221   -2.9949   14.2080 C   0  0  0  0  0  0  0  0  0  0  0  0
   19.6946   -1.8862   13.8305 C   0  0  0  0  0  0  0  0  0  0  0  0
   20.0723   -1.7027   12.4235 N   0  0  0  0  0  0  0  0  0  0  0  0
   19.8996   -2.6571   11.6551 O   0  0  0  0  0  0  0  0  0  0  0  0
   20.5504   -0.6070   12.0970 O   0  0  0  0  0  0  0  0  0  0  0  0
   20.1366   -0.9620   14.7879 C   0  0  0  0  0  0  0  0  0  0  0  0
   19.8115   -1.1513   16.1328 C   0  0  0  0  0  0  0  0  0  0  0  0
  1  2  1  0
  2  3  1  0
  3  4  2  0
  4  5  1  0
  5  6  1  0
  5  7  2  0
  7  8  1  0
  8  9  2  0
  9 10  1  0
 10 11  1  0
 11 12  2  0
 11 13  1  0
 13 14  1  1
 13 15  1  0
 15 16  2  0
 15 17  2  0
 15 18  1  0
 18 19  2  0
 19 20  1  0
 20 21  2  0
 21 22  1  0
 22 23  2  0
 22 24  1  0
 21 25  1  0
 25 26  2  0
  9  3  1  0
 26 18  1  0
M  CHG  2  22   1  24  -1
M  END
>  <ref_mols>  (1055) 
B1396a

>  <gnina_score>  (1055) 
5.219

>  <smina_score_min>  (1055) 
-2.821

>  <ref_pdb>  (1055) 
B1396a

>  <inspiration_score>  (1055) 
None

>  <inchikey>  (1055) 
VFDSHYRWGWYPQI-LLVKDONJSA-N

>  <tags>  (1055) 
BulkDock Fragalysis export,openbind_d68ev3c_c2_elabs_scored,openbind_d68ev3c_c2_elabs_scored_4.5plus,openbind_d68ev3c_c2_elabs,openbind_d68ev3c_c2_elabs_scored_5plus,syndirella_product,openbind_d68ev3c_c2_elabs_scored_top80percent,syndirella_placed

>  <smiles>  (1055) 
CCc1cc(Br)ccc1NC(=O)[C@@H](C)S(=O)(=O)c1ccc([N+](=O)[O-])cc1

>  <subsites>  (1055) 
None

>  <rmsd(smina/fragmenstein)>  (1055) 
1.617

>  <alias>  (1055) 
None

>  <energy_score>  (1055) 
-33.354815

>  <HIPPO Pose ID>  (1055) 
95362

>  <distance_score>  (1055) 
0.651042

>  <HIPPO Compound ID>  (1055) 
129257

>  <gnina_score_min>  (1055) 
5.096

>  <name>  (1055) 
P95362

>  <exports>  (1055) 
['/opt/xchem-fragalysis-2/maxwin/BulkDock/OUTPUTS/openbind_d68ev3c_c2_elabs_1LOTQJ3.sdf', '/opt/xchem-fragalysis-2/maxwin/BulkDock/OUTPUTS/openbind_d68ev3c_c2_elabs_1LSYI5W.sdf']

$$$$
P95364
     RDKit          3D

 26 27  0  0  0  0  0  0  0  0999 V2000
   13.9034   -3.9894   17.4914 C   0  0  0  0  0  0  0  0  0  0  0  0
   13.4621   -2.6690   16.9065 C   0  0  0  0  0  0  0  0  0  0  0  0
   12.2275   -2.6299   16.2288 C   0  0  0  0  0  0  0  0  0  0  0  0
   11.7318   -1.4207   15.7539 C   0  0  0  0  0  0  0  0  0  0  0  0
    9.9592   -1.2541   15.1465 Br  0  0  0  0  0  0  0  0  0  0  0  0
   12.4702   -0.2575   15.8775 C   0  0  0  0  0  0  0  0  0  0  0  0
   13.6935   -0.2731   16.5481 C   0  0  0  0  0  0  0  0  0  0  0  0
   14.3031    1.3033   16.9171 Cl  0  0  0  0  0  0  0  0  0  0  0  0
   14.2205   -1.4776   17.0596 C   0  0  0  0  0  0  0  0  0  0  0  0
   15.4186   -1.5522   17.7947 N   0  0  0  0  0  0  0  0  0  0  0  0
   16.7048   -0.6649   17.7320 C   0  0  0  0  0  0  0  0  0  0  0  0
   16.9279    0.3059   17.1144 O   0  0  0  0  0  0  0  0  0  0  0  0
   17.7255   -1.1666   18.7302 C   0  0  1  0  0  0  0  0  0  0  0  0
   17.1899   -1.2963   20.1498 C   0  0  0  0  0  0  0  0  0  0  0  0
   18.4626   -2.6463   18.1359 S   0  0  0  0  0  0  0  0  0  0  0  0
   19.6950   -2.8500   18.8711 O   0  0  0  0  0  0  0  0  0  0  0  0
   17.4228   -3.6620   18.1319 O   0  0  0  0  0  0  0  0  0  0  0  0
   18.9346   -2.3520   16.4450 C   0  0  0  0  0  0  0  0  0  0  0  0
   18.5037   -3.2267   15.4397 C   0  0  0  0  0  0  0  0  0  0  0  0
   18.8980   -3.0042   14.1161 C   0  0  0  0  0  0  0  0  0  0  0  0
   19.7138   -1.9037   13.8119 C   0  0  0  0  0  0  0  0  0  0  0  0
   20.1499   -1.6763   12.4279 N   0  0  0  0  0  0  0  0  0  0  0  0
   19.9456   -2.5794   11.6068 O   0  0  0  0  0  0  0  0  0  0  0  0
   20.7044   -0.5982   12.1710 O   0  0  0  0  0  0  0  0  0  0  0  0
   20.1422   -1.0303   14.8214 C   0  0  0  0  0  0  0  0  0  0  0  0
   19.7588   -1.2617   16.1443 C   0  0  0  0  0  0  0  0  0  0  0  0
  1  2  1  0
  2  3  2  0
  3  4  1  0
  4  5  1  0
  4  6  2  0
  6  7  1  0
  7  8  1  0
  7  9  2  0
  9 10  1  0
 10 11  1  0
 11 12  2  0
 11 13  1  0
 13 14  1  1
 13 15  1  0
 15 16  2  0
 15 17  2  0
 15 18  1  0
 18 19  2  0
 19 20  1  0
 20 21  2  0
 21 22  1  0
 22 23  2  0
 22 24  1  0
 21 25  1  0
 25 26  2  0
  9  2  1  0
 26 18  1  0
M  CHG  2  22   1  24  -1
M  END
>  <ref_mols>  (1056) 
B1396a

>  <gnina_score>  (1056) 
5.416

>  <smina_score_min>  (1056) 
-2.826

>  <ref_pdb>  (1056) 
B1396a

>  <inspiration_score>  (1056) 
None

>  <inchikey>  (1056) 
YNKBRZZJPCPMTO-SNVBAGLBSA-N

>  <tags>  (1056) 
BulkDock Fragalysis export,openbind_d68ev3c_c2_elabs_scored,openbind_d68ev3c_c2_elabs_scored_4.5plus,openbind_d68ev3c_c2_elabs,openbind_d68ev3c_c2_elabs_scored_5plus,syndirella_product,openbind_d68ev3c_c2_elabs_scored_top80percent,syndirella_placed

>  <smiles>  (1056) 
Cc1cc(Br)cc(Cl)c1NC(=O)[C@@H](C)S(=O)(=O)c1ccc([N+](=O)[O-])cc1

>  <subsites>  (1056) 
None

>  <rmsd(smina/fragmenstein)>  (1056) 
1.184

>  <alias>  (1056) 
None

>  <energy_score>  (1056) 
-35.10802

>  <HIPPO Pose ID>  (1056) 
95364

>  <distance_score>  (1056) 
0.616161

>  <HIPPO Compound ID>  (1056) 
129258

>  <gnina_score_min>  (1056) 
5.11

>  <name>  (1056) 
P95364

>  <exports>  (1056) 
['/opt/xchem-fragalysis-2/maxwin/BulkDock/OUTPUTS/openbind_d68ev3c_c2_elabs_1LOTQJ3.sdf', '/opt/xchem-fragalysis-2/maxwin/BulkDock/OUTPUTS/openbind_d68ev3c_c2_elabs_1LSYI5W.sdf']

$$$$
P95367
     RDKit          3D

 26 27  0  0  0  0  0  0  0  0999 V2000
   16.9050   -1.0375   20.0392 C   0  0  0  0  0  0  0  0  0  0  0  0
   17.4903   -0.9111   18.6386 C   0  0  2  0  0  0  0  0  0  0  0  0
   16.4408   -0.5354   17.6067 C   0  0  0  0  0  0  0  0  0  0  0  0
   16.5134    0.4904   17.0453 O   0  0  0  0  0  0  0  0  0  0  0  0
   15.3638   -1.6617   17.5191 N   0  0  0  0  0  0  0  0  0  0  0  0
   14.1515   -1.7083   16.8179 C   0  0  0  0  0  0  0  0  0  0  0  0
   13.7072   -0.5890   16.1010 C   0  0  0  0  0  0  0  0  0  0  0  0
   12.5157   -0.6304   15.3679 C   0  0  0  0  0  0  0  0  0  0  0  0
   11.7631   -1.7967   15.3346 C   0  0  0  0  0  0  0  0  0  0  0  0
   12.2043   -2.9041   16.0496 C   0  0  0  0  0  0  0  0  0  0  0  0
   11.4735   -4.0190   15.9957 F   0  0  0  0  0  0  0  0  0  0  0  0
   13.3758   -2.8761   16.8044 C   0  0  0  0  0  0  0  0  0  0  0  0
   13.7724   -4.0518   17.5136 C   0  0  0  0  0  0  0  0  0  0  0  0
   14.1748   -4.9726   18.0910 N   0  0  0  0  0  0  0  0  0  0  0  0
   18.3742   -2.3577   18.1463 S   0  0  0  0  0  0  0  0  0  0  0  0
   17.4257   -3.4570   18.1819 O   0  0  0  0  0  0  0  0  0  0  0  0
   19.6080   -2.4150   18.9047 O   0  0  0  0  0  0  0  0  0  0  0  0
   18.8468   -2.1305   16.4457 C   0  0  0  0  0  0  0  0  0  0  0  0
   19.6145   -1.0168   16.0917 C   0  0  0  0  0  0  0  0  0  0  0  0
   20.0162   -0.8518   14.7640 C   0  0  0  0  0  0  0  0  0  0  0  0
   19.6601   -1.8115   13.8049 C   0  0  0  0  0  0  0  0  0  0  0  0
   20.1162   -1.6494   12.4183 N   0  0  0  0  0  0  0  0  0  0  0  0
   19.9983   -2.6195   11.6590 O   0  0  0  0  0  0  0  0  0  0  0  0
   20.5973   -0.5532   12.0982 O   0  0  0  0  0  0  0  0  0  0  0  0
   18.8981   -2.9334   14.1631 C   0  0  0  0  0  0  0  0  0  0  0  0
   18.4879   -3.0916   15.4906 C   0  0  0  0  0  0  0  0  0  0  0  0
  2  1  1  1
  2  3  1  0
  3  4  2  0
  3  5  1  0
  5  6  1  0
  6  7  2  0
  7  8  1  0
  8  9  2  0
  9 10  1  0
 10 11  1  0
 10 12  2  0
 12 13  1  0
 13 14  3  0
  2 15  1  0
 15 16  2  0
 15 17  2  0
 15 18  1  0
 18 19  2  0
 19 20  1  0
 20 21  2  0
 21 22  1  0
 22 23  2  0
 22 24  1  0
 21 25  1  0
 25 26  2  0
 12  6  1  0
 26 18  1  0
M  CHG  2  22   1  24  -1
M  END
>  <ref_mols>  (1057) 
B1396a

>  <gnina_score>  (1057) 
5.128

>  <smina_score_min>  (1057) 
-3.541

>  <ref_pdb>  (1057) 
B1396a

>  <inspiration_score>  (1057) 
None

>  <inchikey>  (1057) 
NQZQPFXCGFWABV-SNVBAGLBSA-N

>  <tags>  (1057) 
BulkDock Fragalysis export,openbind_d68ev3c_c2_elabs_scored,openbind_d68ev3c_c2_elabs_scored_4.5plus,openbind_d68ev3c_c2_elabs,openbind_d68ev3c_c2_elabs_scored_5plus,syndirella_product,openbind_d68ev3c_c2_elabs_scored_top80percent,syndirella_placed

>  <smiles>  (1057) 
C[C@H](C(=O)Nc1cccc(F)c1C#N)S(=O)(=O)c1ccc([N+](=O)[O-])cc1

>  <subsites>  (1057) 
None

>  <rmsd(smina/fragmenstein)>  (1057) 
1.842

>  <alias>  (1057) 
None

>  <energy_score>  (1057) 
-40.492871

>  <HIPPO Pose ID>  (1057) 
95367

>  <distance_score>  (1057) 
0.466859

>  <HIPPO Compound ID>  (1057) 
129260

>  <gnina_score_min>  (1057) 
5.019

>  <name>  (1057) 
P95367

>  <exports>  (1057) 
['/opt/xchem-fragalysis-2/maxwin/BulkDock/OUTPUTS/openbind_d68ev3c_c2_elabs_1LOTQJ3.sdf', '/opt/xchem-fragalysis-2/maxwin/BulkDock/OUTPUTS/openbind_d68ev3c_c2_elabs_1LSYI5W.sdf']

$$$$
P95373
     RDKit          3D

 26 27  0  0  0  0  0  0  0  0999 V2000
   13.9341   -4.1014   17.5565 C   0  0  0  0  0  0  0  0  0  0  0  0
   13.4687   -2.8087   16.9280 C   0  0  0  0  0  0  0  0  0  0  0  0
   12.2390   -2.8274   16.2490 C   0  0  0  0  0  0  0  0  0  0  0  0
   11.7309   -1.6590   15.7059 C   0  0  0  0  0  0  0  0  0  0  0  0
   10.1496   -1.6069   15.0609 Cl  0  0  0  0  0  0  0  0  0  0  0  0
   12.4486   -0.4778   15.7862 C   0  0  0  0  0  0  0  0  0  0  0  0
   13.6793   -0.4186   16.4645 C   0  0  0  0  0  0  0  0  0  0  0  0
   14.2741    0.9567   16.5837 C   0  0  0  0  0  0  0  0  0  0  0  0
   14.2129   -1.5986   17.0247 C   0  0  0  0  0  0  0  0  0  0  0  0
   15.4275   -1.6747   17.7296 N   0  0  0  0  0  0  0  0  0  0  0  0
   16.6441   -0.6898   17.7673 C   0  0  0  0  0  0  0  0  0  0  0  0
   16.8460    0.2904   17.1579 O   0  0  0  0  0  0  0  0  0  0  0  0
   17.6132   -1.1936   18.8183 C   0  0  2  0  0  0  0  0  0  0  0  0
   18.5528   -0.0874   19.2875 C   0  0  0  0  0  0  0  0  0  0  0  0
   18.4743   -2.5946   18.1660 S   0  0  0  0  0  0  0  0  0  0  0  0
   19.7213   -2.7474   18.8903 O   0  0  0  0  0  0  0  0  0  0  0  0
   17.5159   -3.6882   18.1424 O   0  0  0  0  0  0  0  0  0  0  0  0
   18.8998   -2.2276   16.4756 C   0  0  0  0  0  0  0  0  0  0  0  0
   18.1582   -2.7909   15.4286 C   0  0  0  0  0  0  0  0  0  0  0  0
   18.5132   -2.5152   14.1037 C   0  0  0  0  0  0  0  0  0  0  0  0
   19.6142   -1.6867   13.8396 C   0  0  0  0  0  0  0  0  0  0  0  0
   19.9878   -1.3830   12.4513 N   0  0  0  0  0  0  0  0  0  0  0  0
   19.2642   -1.8279   11.5518 O   0  0  0  0  0  0  0  0  0  0  0  0
   21.0022   -0.6952   12.2666 O   0  0  0  0  0  0  0  0  0  0  0  0
   20.3669   -1.1438   14.8902 C   0  0  0  0  0  0  0  0  0  0  0  0
   20.0136   -1.4245   16.2118 C   0  0  0  0  0  0  0  0  0  0  0  0
  1  2  1  0
  2  3  2  0
  3  4  1  0
  4  5  1  0
  4  6  2  0
  6  7  1  0
  7  8  1  0
  7  9  2  0
  9 10  1  0
 10 11  1  0
 11 12  2  0
 11 13  1  0
 13 14  1  6
 13 15  1  0
 15 16  2  0
 15 17  2  0
 15 18  1  0
 18 19  2  0
 19 20  1  0
 20 21  2  0
 21 22  1  0
 22 23  2  0
 22 24  1  0
 21 25  1  0
 25 26  2  0
  9  2  1  0
 26 18  1  0
M  CHG  2  22   1  24  -1
M  END
>  <ref_mols>  (1058) 
B1396a

>  <gnina_score>  (1058) 
5.224

>  <smina_score_min>  (1058) 
-3.504

>  <ref_pdb>  (1058) 
B1396a

>  <inspiration_score>  (1058) 
None

>  <inchikey>  (1058) 
YPCXYYXCXGYUKZ-LBPRGKRZSA-N

>  <tags>  (1058) 
BulkDock Fragalysis export,openbind_d68ev3c_c2_elabs_scored,openbind_d68ev3c_c2_elabs_scored_4.5plus,openbind_d68ev3c_c2_elabs,openbind_d68ev3c_c2_elabs_scored_5plus,syndirella_product,openbind_d68ev3c_c2_elabs_scored_top80percent,syndirella_placed

>  <smiles>  (1058) 
Cc1cc(Cl)cc(C)c1NC(=O)[C@H](C)S(=O)(=O)c1ccc([N+](=O)[O-])cc1

>  <subsites>  (1058) 
None

>  <rmsd(smina/fragmenstein)>  (1058) 
2.358

>  <alias>  (1058) 
None

>  <energy_score>  (1058) 
-40.919457

>  <HIPPO Pose ID>  (1058) 
95373

>  <distance_score>  (1058) 
0.568506

>  <HIPPO Compound ID>  (1058) 
129265

>  <gnina_score_min>  (1058) 
5.151

>  <name>  (1058) 
P95373

>  <exports>  (1058) 
['/opt/xchem-fragalysis-2/maxwin/BulkDock/OUTPUTS/openbind_d68ev3c_c2_elabs_1LOTQJ3.sdf', '/opt/xchem-fragalysis-2/maxwin/BulkDock/OUTPUTS/openbind_d68ev3c_c2_elabs_1LSYI5W.sdf']

$$$$
P95378
     RDKit          3D

 26 27  0  0  0  0  0  0  0  0999 V2000
    9.8382   -1.8067   15.0249 C   0  0  0  0  0  0  0  0  0  0  0  0
   11.2228   -3.0033   14.9637 S   0  0  0  0  0  0  0  0  0  0  0  0
   12.5395   -1.9450   15.5168 C   0  0  0  0  0  0  0  0  0  0  0  0
   12.6227   -0.7207   14.8363 C   0  0  0  0  0  0  0  0  0  0  0  0
   13.5321    0.2439   15.2111 C   0  0  0  0  0  0  0  0  0  0  0  0
   14.4261   -0.0365   16.2272 C   0  0  0  0  0  0  0  0  0  0  0  0
   14.4345   -1.2827   16.8637 C   0  0  0  0  0  0  0  0  0  0  0  0
   15.4566   -1.5283   17.7847 N   0  0  0  0  0  0  0  0  0  0  0  0
   16.6968   -0.6617   18.1790 C   0  0  0  0  0  0  0  0  0  0  0  0
   17.0038    0.4204   17.8469 O   0  0  0  0  0  0  0  0  0  0  0  0
   17.5865   -1.4233   19.1282 C   0  0  1  0  0  0  0  0  0  0  0  0
   16.8887   -1.8271   20.4188 C   0  0  0  0  0  0  0  0  0  0  0  0
   18.3433   -2.7771   18.2973 S   0  0  0  0  0  0  0  0  0  0  0  0
   19.6021   -3.0495   18.9632 O   0  0  0  0  0  0  0  0  0  0  0  0
   17.3277   -3.8095   18.1724 O   0  0  0  0  0  0  0  0  0  0  0  0
   18.7692   -2.2731   16.6408 C   0  0  0  0  0  0  0  0  0  0  0  0
   19.6369   -1.1941   16.4488 C   0  0  0  0  0  0  0  0  0  0  0  0
   20.0136   -0.8348   15.1512 C   0  0  0  0  0  0  0  0  0  0  0  0
   19.5313   -1.5675   14.0563 C   0  0  0  0  0  0  0  0  0  0  0  0
   19.9487   -1.1958   12.6979 N   0  0  0  0  0  0  0  0  0  0  0  0
   20.5884   -0.1431   12.5615 O   0  0  0  0  0  0  0  0  0  0  0  0
   19.6398   -1.9585   11.7735 O   0  0  0  0  0  0  0  0  0  0  0  0
   18.6691   -2.6561   14.2499 C   0  0  0  0  0  0  0  0  0  0  0  0
   18.2868   -3.0085   15.5484 C   0  0  0  0  0  0  0  0  0  0  0  0
   13.4637   -2.2590   16.5419 C   0  0  0  0  0  0  0  0  0  0  0  0
   13.4543   -3.5840   17.2703 C   0  0  0  0  0  0  0  0  0  0  0  0
  1  2  1  0
  2  3  1  0
  3  4  2  0
  4  5  1  0
  5  6  2  0
  6  7  1  0
  7  8  1  0
  8  9  1  0
  9 10  2  0
  9 11  1  0
 11 12  1  1
 11 13  1  0
 13 14  2  0
 13 15  2  0
 13 16  1  0
 16 17  2  0
 17 18  1  0
 18 19  2  0
 19 20  1  0
 20 21  2  0
 20 22  1  0
 19 23  1  0
 23 24  2  0
  7 25  2  0
 25 26  1  0
 25  3  1  0
 24 16  1  0
M  CHG  2  20   1  22  -1
M  END
>  <ref_mols>  (1059) 
B1396a

>  <gnina_score>  (1059) 
4.98

>  <smina_score_min>  (1059) 
-3.068

>  <ref_pdb>  (1059) 
B1396a

>  <inspiration_score>  (1059) 
None

>  <inchikey>  (1059) 
LFLLWXCIYHDXCL-GFCCVEGCSA-N

>  <tags>  (1059) 
BulkDock Fragalysis export,openbind_d68ev3c_c2_elabs_scored,openbind_d68ev3c_c2_elabs_scored_4.5plus,openbind_d68ev3c_c2_elabs,openbind_d68ev3c_c2_elabs_scored_5plus,syndirella_product,openbind_d68ev3c_c2_elabs_scored_top80percent,syndirella_placed

>  <smiles>  (1059) 
CSc1cccc(NC(=O)[C@@H](C)S(=O)(=O)c2ccc([N+](=O)[O-])cc2)c1C

>  <subsites>  (1059) 
None

>  <rmsd(smina/fragmenstein)>  (1059) 
1.318

>  <alias>  (1059) 
None

>  <energy_score>  (1059) 
-64.906614

>  <HIPPO Pose ID>  (1059) 
95378

>  <distance_score>  (1059) 
1.051056

>  <HIPPO Compound ID>  (1059) 
129267

>  <gnina_score_min>  (1059) 
5.094

>  <name>  (1059) 
P95378

>  <exports>  (1059) 
['/opt/xchem-fragalysis-2/maxwin/BulkDock/OUTPUTS/openbind_d68ev3c_c2_elabs_1LOTQJ3.sdf', '/opt/xchem-fragalysis-2/maxwin/BulkDock/OUTPUTS/openbind_d68ev3c_c2_elabs_1LSYI5W.sdf']

$$$$
P95397
     RDKit          3D

 26 27  0  0  0  0  0  0  0  0999 V2000
   17.0799   -1.2582   20.1191 C   0  0  0  0  0  0  0  0  0  0  0  0
   17.6467   -1.0749   18.7173 C   0  0  2  0  0  0  0  0  0  0  0  0
   16.5879   -0.6369   17.7240 C   0  0  0  0  0  0  0  0  0  0  0  0
   16.6524    0.4262   17.2350 O   0  0  0  0  0  0  0  0  0  0  0  0
   15.4981   -1.7478   17.5895 N   0  0  0  0  0  0  0  0  0  0  0  0
   14.2668   -1.7361   16.9255 C   0  0  0  0  0  0  0  0  0  0  0  0
   13.8251   -0.5555   16.3197 C   0  0  0  0  0  0  0  0  0  0  0  0
   12.5694   -0.4929   15.7191 C   0  0  0  0  0  0  0  0  0  0  0  0
   11.7564   -1.6177   15.7044 C   0  0  0  0  0  0  0  0  0  0  0  0
   10.1543   -1.4599   15.1236 Cl  0  0  0  0  0  0  0  0  0  0  0  0
   12.2012   -2.8230   16.2416 C   0  0  0  0  0  0  0  0  0  0  0  0
   13.4485   -2.8793   16.8785 C   0  0  0  0  0  0  0  0  0  0  0  0
   13.8575   -4.1126   17.4807 C   0  0  0  0  0  0  0  0  0  0  0  0
   14.2332   -5.1004   17.9546 N   0  0  0  0  0  0  0  0  0  0  0  0
   18.4945   -2.5070   18.1410 S   0  0  0  0  0  0  0  0  0  0  0  0
   17.5268   -3.5902   18.1530 O   0  0  0  0  0  0  0  0  0  0  0  0
   19.7433   -2.6115   18.8679 O   0  0  0  0  0  0  0  0  0  0  0  0
   18.9274   -2.2129   16.4404 C   0  0  0  0  0  0  0  0  0  0  0  0
   18.5435   -3.1360   15.4578 C   0  0  0  0  0  0  0  0  0  0  0  0
   18.9148   -2.9231   14.1266 C   0  0  0  0  0  0  0  0  0  0  0  0
   19.6631   -1.7846   13.7927 C   0  0  0  0  0  0  0  0  0  0  0  0
   20.0770   -1.5633   12.4013 N   0  0  0  0  0  0  0  0  0  0  0  0
   20.5295   -0.4471   12.1096 O   0  0  0  0  0  0  0  0  0  0  0  0
   19.9537   -2.5063   11.6097 O   0  0  0  0  0  0  0  0  0  0  0  0
   20.0440   -0.8628   14.7792 C   0  0  0  0  0  0  0  0  0  0  0  0
   19.6811   -1.0824   16.1101 C   0  0  0  0  0  0  0  0  0  0  0  0
  2  1  1  1
  2  3  1  0
  3  4  2  0
  3  5  1  0
  5  6  1  0
  6  7  2  0
  7  8  1  0
  8  9  2  0
  9 10  1  0
  9 11  1  0
 11 12  2  0
 12 13  1  0
 13 14  3  0
  2 15  1  0
 15 16  2  0
 15 17  2  0
 15 18  1  0
 18 19  2  0
 19 20  1  0
 20 21  2  0
 21 22  1  0
 22 23  2  0
 22 24  1  0
 21 25  1  0
 25 26  2  0
 12  6  1  0
 26 18  1  0
M  CHG  2  22   1  24  -1
M  END
>  <ref_mols>  (1060) 
B1396a

>  <gnina_score>  (1060) 
5.317

>  <smina_score_min>  (1060) 
-3.109

>  <ref_pdb>  (1060) 
B1396a

>  <inspiration_score>  (1060) 
None

>  <inchikey>  (1060) 
KZJXUXSVNUJKMZ-SNVBAGLBSA-N

>  <tags>  (1060) 
BulkDock Fragalysis export,openbind_d68ev3c_c2_elabs_scored,openbind_d68ev3c_c2_elabs_scored_4.5plus,openbind_d68ev3c_c2_elabs,openbind_d68ev3c_c2_elabs_scored_5plus,syndirella_product,openbind_d68ev3c_c2_elabs_scored_top80percent,syndirella_placed

>  <smiles>  (1060) 
C[C@H](C(=O)Nc1ccc(Cl)cc1C#N)S(=O)(=O)c1ccc([N+](=O)[O-])cc1

>  <subsites>  (1060) 
None

>  <rmsd(smina/fragmenstein)>  (1060) 
1.756

>  <alias>  (1060) 
None

>  <energy_score>  (1060) 
-37.43527

>  <HIPPO Pose ID>  (1060) 
95397

>  <distance_score>  (1060) 
0.547063

>  <HIPPO Compound ID>  (1060) 
129280

>  <gnina_score_min>  (1060) 
5.234

>  <name>  (1060) 
P95397

>  <exports>  (1060) 
['/opt/xchem-fragalysis-2/maxwin/BulkDock/OUTPUTS/openbind_d68ev3c_c2_elabs_1LOTQJ3.sdf', '/opt/xchem-fragalysis-2/maxwin/BulkDock/OUTPUTS/openbind_d68ev3c_c2_elabs_1LSYI5W.sdf']

$$$$
P95426
     RDKit          3D

 26 28  0  0  0  0  0  0  0  0999 V2000
   13.8718   -3.9952   17.5759 C   0  0  0  0  0  0  0  0  0  0  0  0
   13.3720   -2.7786   16.8398 C   0  0  0  0  0  0  0  0  0  0  0  0
   12.2358   -2.9180   16.0288 C   0  0  0  0  0  0  0  0  0  0  0  0
   11.6302   -4.1036   15.9361 F   0  0  0  0  0  0  0  0  0  0  0  0
   11.6945   -1.8613   15.3152 C   0  0  0  0  0  0  0  0  0  0  0  0
   12.2743   -0.6092   15.4374 C   0  0  0  0  0  0  0  0  0  0  0  0
   13.4110   -0.4271   16.2420 C   0  0  0  0  0  0  0  0  0  0  0  0
   13.8430    1.2259   16.5006 Cl  0  0  0  0  0  0  0  0  0  0  0  0
   14.0121   -1.5189   16.9091 C   0  0  0  0  0  0  0  0  0  0  0  0
   15.2018   -1.4391   17.6642 N   0  0  0  0  0  0  0  0  0  0  0  0
   16.4116   -0.4473   17.5552 C   0  0  0  0  0  0  0  0  0  0  0  0
   16.5614    0.4951   16.8740 O   0  0  0  0  0  0  0  0  0  0  0  0
   17.4661   -0.8195   18.6228 C   0  0  0  0  0  0  0  0  0  0  0  0
   18.2332   -2.3614   18.1262 S   0  0  0  0  0  0  0  0  0  0  0  0
   17.2025   -3.3876   18.1575 O   0  0  0  0  0  0  0  0  0  0  0  0
   19.4455   -2.5568   18.9005 O   0  0  0  0  0  0  0  0  0  0  0  0
   18.7249   -2.1522   16.4293 C   0  0  0  0  0  0  0  0  0  0  0  0
   17.9503   -2.7067   15.4049 C   0  0  0  0  0  0  0  0  0  0  0  0
   18.3491   -2.5388   14.0781 C   0  0  0  0  0  0  0  0  0  0  0  0
   19.5187   -1.8383   13.7819 C   0  0  0  0  0  0  0  0  0  0  0  0
   20.3000   -1.3095   14.8088 C   0  0  0  0  0  0  0  0  0  0  0  0
   19.9108   -1.4728   16.1378 C   0  0  0  0  0  0  0  0  0  0  0  0
   16.8325   -0.9260   20.0354 C   0  0  0  0  0  0  0  0  0  0  0  0
   17.6448   -0.0082   20.9415 C   0  0  0  0  0  0  0  0  0  0  0  0
   18.1135    1.0863   20.0059 C   0  0  0  0  0  0  0  0  0  0  0  0
   18.5329    0.3034   18.7709 C   0  0  0  0  0  0  0  0  0  0  0  0
  1  2  1  0
  2  3  2  0
  3  4  1  0
  3  5  1  0
  5  6  2  0
  6  7  1  0
  7  8  1  0
  7  9  2  0
  9 10  1  0
 10 11  1  0
 11 12  2  0
 11 13  1  0
 13 14  1  0
 14 15  2  0
 14 16  2  0
 14 17  1  0
 17 18  2  0
 18 19  1  0
 19 20  2  0
 20 21  1  0
 21 22  2  0
 13 23  1  0
 23 24  1  0
 24 25  1  0
 25 26  1  0
  9  2  1  0
 26 13  1  0
 22 17  1  0
M  END
>  <ref_mols>  (1061) 
B1396a

>  <gnina_score>  (1061) 
5.172

>  <smina_score_min>  (1061) 
-3.536

>  <ref_pdb>  (1061) 
B1396a

>  <inspiration_score>  (1061) 
None

>  <inchikey>  (1061) 
BLLRVGZBCFPROL-UHFFFAOYSA-N

>  <tags>  (1061) 
BulkDock Fragalysis export,openbind_d68ev3c_c2_elabs_scored,openbind_d68ev3c_c2_elabs_scored_4.5plus,openbind_d68ev3c_c2_elabs,openbind_d68ev3c_c2_elabs_scored_5plus,syndirella_product,openbind_d68ev3c_c2_elabs_scored_top80percent,syndirella_placed

>  <smiles>  (1061) 
Cc1c(F)ccc(Cl)c1NC(=O)C1(S(=O)(=O)c2ccccc2)CCCC1

>  <subsites>  (1061) 
None

>  <rmsd(smina/fragmenstein)>  (1061) 
1.218

>  <alias>  (1061) 
None

>  <energy_score>  (1061) 
-21.42339

>  <HIPPO Pose ID>  (1061) 
95426

>  <distance_score>  (1061) 
0.478811

>  <HIPPO Compound ID>  (1061) 
129300

>  <gnina_score_min>  (1061) 
5.115

>  <name>  (1061) 
P95426

>  <exports>  (1061) 
['/opt/xchem-fragalysis-2/maxwin/BulkDock/OUTPUTS/openbind_d68ev3c_c2_elabs_1LOTQJ3.sdf', '/opt/xchem-fragalysis-2/maxwin/BulkDock/OUTPUTS/openbind_d68ev3c_c2_elabs_1LSYI5W.sdf']

$$$$
P95431
     RDKit          3D

 26 28  0  0  0  0  0  0  0  0999 V2000
   13.9860   -4.1661   17.6850 C   0  0  0  0  0  0  0  0  0  0  0  0
   13.4134   -2.9921   16.9311 C   0  0  0  0  0  0  0  0  0  0  0  0
   12.2423   -3.2120   16.1888 C   0  0  0  0  0  0  0  0  0  0  0  0
   11.6622   -2.1848   15.4670 C   0  0  0  0  0  0  0  0  0  0  0  0
   10.5300   -2.4161   14.7951 F   0  0  0  0  0  0  0  0  0  0  0  0
   12.2013   -0.9140   15.4912 C   0  0  0  0  0  0  0  0  0  0  0  0
   13.3590   -0.6630   16.2392 C   0  0  0  0  0  0  0  0  0  0  0  0
   13.7495    1.0118   16.3982 Cl  0  0  0  0  0  0  0  0  0  0  0  0
   14.0140   -1.7068   16.9322 C   0  0  0  0  0  0  0  0  0  0  0  0
   15.2102   -1.5667   17.6663 N   0  0  0  0  0  0  0  0  0  0  0  0
   16.3749   -0.5288   17.5237 C   0  0  0  0  0  0  0  0  0  0  0  0
   16.4752    0.4084   16.8267 O   0  0  0  0  0  0  0  0  0  0  0  0
   17.4592   -0.8342   18.5829 C   0  0  0  0  0  0  0  0  0  0  0  0
   18.2794   -2.3490   18.1227 S   0  0  0  0  0  0  0  0  0  0  0  0
   17.2867   -3.4105   18.1865 O   0  0  0  0  0  0  0  0  0  0  0  0
   19.5019   -2.4782   18.8946 O   0  0  0  0  0  0  0  0  0  0  0  0
   18.7585   -2.1579   16.4212 C   0  0  0  0  0  0  0  0  0  0  0  0
   19.9243   -1.4492   16.1173 C   0  0  0  0  0  0  0  0  0  0  0  0
   20.3059   -1.2929   14.7857 C   0  0  0  0  0  0  0  0  0  0  0  0
   19.5370   -1.8572   13.7687 C   0  0  0  0  0  0  0  0  0  0  0  0
   18.3882   -2.5865   14.0779 C   0  0  0  0  0  0  0  0  0  0  0  0
   17.9969   -2.7484   15.4078 C   0  0  0  0  0  0  0  0  0  0  0  0
   18.4551    0.3387   18.7095 C   0  0  0  0  0  0  0  0  0  0  0  0
   17.7713    1.3501   19.6292 C   0  0  0  0  0  0  0  0  0  0  0  0
   16.7270    0.5675   20.4185 C   0  0  0  0  0  0  0  0  0  0  0  0
   16.9091   -0.8922   20.0167 C   0  0  0  0  0  0  0  0  0  0  0  0
  1  2  1  0
  2  3  2  0
  3  4  1  0
  4  5  1  0
  4  6  2  0
  6  7  1  0
  7  8  1  0
  7  9  2  0
  9 10  1  0
 10 11  1  0
 11 12  2  0
 11 13  1  0
 13 14  1  0
 14 15  2  0
 14 16  2  0
 14 17  1  0
 17 18  2  0
 18 19  1  0
 19 20  2  0
 20 21  1  0
 21 22  2  0
 13 23  1  0
 23 24  1  0
 24 25  1  0
 25 26  1  0
  9  2  1  0
 26 13  1  0
 22 17  1  0
M  END
>  <ref_mols>  (1062) 
B1396a

>  <gnina_score>  (1062) 
5.188

>  <smina_score_min>  (1062) 
-3.831

>  <ref_pdb>  (1062) 
B1396a

>  <inspiration_score>  (1062) 
None

>  <inchikey>  (1062) 
DPUDNCMKTFIAOZ-UHFFFAOYSA-N

>  <tags>  (1062) 
BulkDock Fragalysis export,openbind_d68ev3c_c2_elabs_scored,openbind_d68ev3c_c2_elabs_scored_4.5plus,openbind_d68ev3c_c2_elabs,openbind_d68ev3c_c2_elabs_scored_5plus,syndirella_product,openbind_d68ev3c_c2_elabs_scored_top80percent,syndirella_placed

>  <smiles>  (1062) 
Cc1cc(F)cc(Cl)c1NC(=O)C1(S(=O)(=O)c2ccccc2)CCCC1

>  <subsites>  (1062) 
None

>  <rmsd(smina/fragmenstein)>  (1062) 
1.311

>  <alias>  (1062) 
None

>  <energy_score>  (1062) 
-24.590532

>  <HIPPO Pose ID>  (1062) 
95431

>  <distance_score>  (1062) 
0.399236

>  <HIPPO Compound ID>  (1062) 
129306

>  <gnina_score_min>  (1062) 
5.095

>  <name>  (1062) 
P95431

>  <exports>  (1062) 
['/opt/xchem-fragalysis-2/maxwin/BulkDock/OUTPUTS/openbind_d68ev3c_c2_elabs_1LOTQJ3.sdf', '/opt/xchem-fragalysis-2/maxwin/BulkDock/OUTPUTS/openbind_d68ev3c_c2_elabs_1LSYI5W.sdf']

$$$$
P95434
     RDKit          3D

 26 28  0  0  0  0  0  0  0  0999 V2000
   11.7937    0.1365   14.5407 C   0  0  0  0  0  0  0  0  0  0  0  0
   12.3490   -0.9706   15.3832 C   0  0  0  0  0  0  0  0  0  0  0  0
   13.5759   -0.8354   16.0487 C   0  0  0  0  0  0  0  0  0  0  0  0
   14.0996   -1.8861   16.8156 C   0  0  0  0  0  0  0  0  0  0  0  0
   15.3119   -1.7385   17.4891 N   0  0  0  0  0  0  0  0  0  0  0  0
   16.3245   -0.5469   17.5071 C   0  0  0  0  0  0  0  0  0  0  0  0
   16.3283    0.4549   16.8989 O   0  0  0  0  0  0  0  0  0  0  0  0
   17.4092   -0.8358   18.5725 C   0  0  0  0  0  0  0  0  0  0  0  0
   18.3094   -2.3158   18.1049 S   0  0  0  0  0  0  0  0  0  0  0  0
   19.5333   -2.3940   18.8812 O   0  0  0  0  0  0  0  0  0  0  0  0
   17.3700   -3.4264   18.1571 O   0  0  0  0  0  0  0  0  0  0  0  0
   18.7812   -2.0980   16.4049 C   0  0  0  0  0  0  0  0  0  0  0  0
   18.0693   -2.7517   15.3932 C   0  0  0  0  0  0  0  0  0  0  0  0
   18.4607   -2.5855   14.0643 C   0  0  0  0  0  0  0  0  0  0  0  0
   19.5605   -1.7855   13.7537 C   0  0  0  0  0  0  0  0  0  0  0  0
   20.2805   -1.1556   14.7685 C   0  0  0  0  0  0  0  0  0  0  0  0
   19.8989   -1.3171   16.0998 C   0  0  0  0  0  0  0  0  0  0  0  0
   18.3711    0.3727   18.7301 C   0  0  0  0  0  0  0  0  0  0  0  0
   17.8321    1.1465   19.9237 C   0  0  0  0  0  0  0  0  0  0  0  0
   17.4301    0.0391   20.8760 C   0  0  0  0  0  0  0  0  0  0  0  0
   16.7594   -0.9915   19.9738 C   0  0  0  0  0  0  0  0  0  0  0  0
   13.4019   -3.1020   16.9095 C   0  0  0  0  0  0  0  0  0  0  0  0
   13.9090   -4.2656   17.7152 C   0  0  0  0  0  0  0  0  0  0  0  0
   12.1870   -3.2355   16.2256 C   0  0  0  0  0  0  0  0  0  0  0  0
   11.6745   -2.1834   15.4779 C   0  0  0  0  0  0  0  0  0  0  0  0
   10.4950   -2.3468   14.8666 F   0  0  0  0  0  0  0  0  0  0  0  0
  1  2  1  0
  2  3  2  0
  3  4  1  0
  4  5  1  0
  5  6  1  0
  6  7  2  0
  6  8  1  0
  8  9  1  0
  9 10  2  0
  9 11  2  0
  9 12  1  0
 12 13  2  0
 13 14  1  0
 14 15  2  0
 15 16  1  0
 16 17  2  0
  8 18  1  0
 18 19  1  0
 19 20  1  0
 20 21  1  0
  4 22  2  0
 22 23  1  0
 22 24  1  0
 24 25  2  0
 25 26  1  0
 25  2  1  0
 21  8  1  0
 17 12  1  0
M  END
>  <ref_mols>  (1063) 
B1396a

>  <gnina_score>  (1063) 
5.05

>  <smina_score_min>  (1063) 
-3.863

>  <ref_pdb>  (1063) 
B1396a

>  <inspiration_score>  (1063) 
None

>  <inchikey>  (1063) 
LTBFJZQAFCEGGE-UHFFFAOYSA-N

>  <tags>  (1063) 
BulkDock Fragalysis export,openbind_d68ev3c_c2_elabs_scored,openbind_d68ev3c_c2_elabs_scored_4.5plus,openbind_d68ev3c_c2_elabs,openbind_d68ev3c_c2_elabs_scored_5plus,syndirella_product,openbind_d68ev3c_c2_elabs_scored_top80percent,syndirella_placed

>  <smiles>  (1063) 
Cc1cc(NC(=O)C2(S(=O)(=O)c3ccccc3)CCCC2)c(C)cc1F

>  <subsites>  (1063) 
None

>  <rmsd(smina/fragmenstein)>  (1063) 
1.324

>  <alias>  (1063) 
None

>  <energy_score>  (1063) 
-45.475448

>  <HIPPO Pose ID>  (1063) 
95434

>  <distance_score>  (1063) 
0.400556

>  <HIPPO Compound ID>  (1063) 
129311

>  <gnina_score_min>  (1063) 
5.015

>  <name>  (1063) 
P95434

>  <exports>  (1063) 
['/opt/xchem-fragalysis-2/maxwin/BulkDock/OUTPUTS/openbind_d68ev3c_c2_elabs_1LOTQJ3.sdf', '/opt/xchem-fragalysis-2/maxwin/BulkDock/OUTPUTS/openbind_d68ev3c_c2_elabs_1LSYI5W.sdf']

$$$$
P95439
     RDKit          3D

 27 29  0  0  0  0  0  0  0  0999 V2000
   13.8405   -4.0766   17.5943 C   0  0  0  0  0  0  0  0  0  0  0  0
   13.3050   -2.8961   16.8197 C   0  0  0  0  0  0  0  0  0  0  0  0
   12.1637   -3.1082   16.0228 C   0  0  0  0  0  0  0  0  0  0  0  0
   11.6145   -2.0780   15.2736 C   0  0  0  0  0  0  0  0  0  0  0  0
   12.1747   -0.8140   15.3564 C   0  0  0  0  0  0  0  0  0  0  0  0
   11.5674    0.1799   14.6891 F   0  0  0  0  0  0  0  0  0  0  0  0
   13.3038   -0.5611   16.1498 C   0  0  0  0  0  0  0  0  0  0  0  0
   13.7136    1.2818   16.3952 Br  0  0  0  0  0  0  0  0  0  0  0  0
   13.9231   -1.6181   16.8497 C   0  0  0  0  0  0  0  0  0  0  0  0
   15.1043   -1.4991   17.6130 N   0  0  0  0  0  0  0  0  0  0  0  0
   16.3263   -0.5304   17.4519 C   0  0  0  0  0  0  0  0  0  0  0  0
   16.4954    0.3609   16.7096 O   0  0  0  0  0  0  0  0  0  0  0  0
   17.3665   -0.8393   18.5540 C   0  0  0  0  0  0  0  0  0  0  0  0
   18.1883   -2.3687   18.1040 S   0  0  0  0  0  0  0  0  0  0  0  0
   17.1876   -3.4235   18.1205 O   0  0  0  0  0  0  0  0  0  0  0  0
   19.3849   -2.5187   18.9118 O   0  0  0  0  0  0  0  0  0  0  0  0
   18.7223   -2.1677   16.4165 C   0  0  0  0  0  0  0  0  0  0  0  0
   17.9765   -2.7329   15.3759 C   0  0  0  0  0  0  0  0  0  0  0  0
   18.4056   -2.5687   14.0562 C   0  0  0  0  0  0  0  0  0  0  0  0
   19.5775   -1.8598   13.7898 C   0  0  0  0  0  0  0  0  0  0  0  0
   20.1533   -1.6360   12.0035 Br  0  0  0  0  0  0  0  0  0  0  0  0
   20.3324   -1.3192   14.8298 C   0  0  0  0  0  0  0  0  0  0  0  0
   19.9108   -1.4811   16.1504 C   0  0  0  0  0  0  0  0  0  0  0  0
   16.7181   -0.9311   19.9605 C   0  0  0  0  0  0  0  0  0  0  0  0
   17.5206   -0.0036   20.8642 C   0  0  0  0  0  0  0  0  0  0  0  0
   17.9665    1.0963   19.9243 C   0  0  0  0  0  0  0  0  0  0  0  0
   18.3992    0.3183   18.6904 C   0  0  0  0  0  0  0  0  0  0  0  0
  1  2  1  0
  2  3  2  0
  3  4  1  0
  4  5  2  0
  5  6  1  0
  5  7  1  0
  7  8  1  0
  7  9  2  0
  9 10  1  0
 10 11  1  0
 11 12  2  0
 11 13  1  0
 13 14  1  0
 14 15  2  0
 14 16  2  0
 14 17  1  0
 17 18  2  0
 18 19  1  0
 19 20  2  0
 20 21  1  0
 20 22  1  0
 22 23  2  0
 13 24  1  0
 24 25  1  0
 25 26  1  0
 26 27  1  0
  9  2  1  0
 27 13  1  0
 23 17  1  0
M  END
>  <ref_mols>  (1064) 
B1396a

>  <gnina_score>  (1064) 
5.42

>  <smina_score_min>  (1064) 
-4.029

>  <ref_pdb>  (1064) 
B1396a

>  <inspiration_score>  (1064) 
None

>  <inchikey>  (1064) 
MERCBHGXEHUINV-UHFFFAOYSA-N

>  <tags>  (1064) 
BulkDock Fragalysis export,openbind_d68ev3c_c2_elabs_scored,openbind_d68ev3c_c2_elabs_scored_4.5plus,openbind_d68ev3c_c2_elabs,openbind_d68ev3c_c2_elabs_scored_5plus,syndirella_product,openbind_d68ev3c_c2_elabs_scored_top80percent,syndirella_placed

>  <smiles>  (1064) 
Cc1ccc(F)c(Br)c1NC(=O)C1(S(=O)(=O)c2ccc(Br)cc2)CCCC1

>  <subsites>  (1064) 
None

>  <rmsd(smina/fragmenstein)>  (1064) 
1.999

>  <alias>  (1064) 
None

>  <energy_score>  (1064) 
-32.0468

>  <HIPPO Pose ID>  (1064) 
95439

>  <distance_score>  (1064) 
0.392694

>  <HIPPO Compound ID>  (1064) 
129320

>  <gnina_score_min>  (1064) 
5.234

>  <name>  (1064) 
P95439

>  <exports>  (1064) 
['/opt/xchem-fragalysis-2/maxwin/BulkDock/OUTPUTS/openbind_d68ev3c_c2_elabs_1LOTQJ3.sdf', '/opt/xchem-fragalysis-2/maxwin/BulkDock/OUTPUTS/openbind_d68ev3c_c2_elabs_1LSYI5W.sdf']

$$$$
P95441
     RDKit          3D

 27 29  0  0  0  0  0  0  0  0999 V2000
   13.9435   -4.1903   17.6561 C   0  0  0  0  0  0  0  0  0  0  0  0
   13.3869   -3.0055   16.9064 C   0  0  0  0  0  0  0  0  0  0  0  0
   12.2053   -3.1979   16.1750 C   0  0  0  0  0  0  0  0  0  0  0  0
   11.6412   -2.1545   15.4638 C   0  0  0  0  0  0  0  0  0  0  0  0
   10.4975   -2.3576   14.8025 F   0  0  0  0  0  0  0  0  0  0  0  0
   12.2093   -0.8957   15.4858 C   0  0  0  0  0  0  0  0  0  0  0  0
   13.3806   -0.6728   16.2211 C   0  0  0  0  0  0  0  0  0  0  0  0
   13.8185    0.9902   16.3738 Cl  0  0  0  0  0  0  0  0  0  0  0  0
   14.0143   -1.7331   16.9066 C   0  0  0  0  0  0  0  0  0  0  0  0
   15.2241   -1.6411   17.6214 N   0  0  0  0  0  0  0  0  0  0  0  0
   16.3828   -0.5920   17.5276 C   0  0  0  0  0  0  0  0  0  0  0  0
   16.5365    0.3047   16.7890 O   0  0  0  0  0  0  0  0  0  0  0  0
   17.4092   -0.8867   18.6337 C   0  0  0  0  0  0  0  0  0  0  0  0
   18.3159   -2.3552   18.1538 S   0  0  0  0  0  0  0  0  0  0  0  0
   17.3839   -3.4714   18.2050 O   0  0  0  0  0  0  0  0  0  0  0  0
   19.5504   -2.4292   18.9127 O   0  0  0  0  0  0  0  0  0  0  0  0
   18.7819   -2.1425   16.4456 C   0  0  0  0  0  0  0  0  0  0  0  0
   18.0041   -2.7128   15.4310 C   0  0  0  0  0  0  0  0  0  0  0  0
   18.3875   -2.5485   14.0972 C   0  0  0  0  0  0  0  0  0  0  0  0
   19.5484   -1.8383   13.7900 C   0  0  0  0  0  0  0  0  0  0  0  0
   20.0621   -1.6150   11.9848 Br  0  0  0  0  0  0  0  0  0  0  0  0
   20.3383   -1.2972   14.8030 C   0  0  0  0  0  0  0  0  0  0  0  0
   19.9618   -1.4585   16.1372 C   0  0  0  0  0  0  0  0  0  0  0  0
   16.7614   -1.0302   20.0214 C   0  0  0  0  0  0  0  0  0  0  0  0
   17.8554   -0.6915   21.0256 C   0  0  0  0  0  0  0  0  0  0  0  0
   18.8042    0.2586   20.3101 C   0  0  0  0  0  0  0  0  0  0  0  0
   18.3325    0.3281   18.8598 C   0  0  0  0  0  0  0  0  0  0  0  0
  1  2  1  0
  2  3  2  0
  3  4  1  0
  4  5  1  0
  4  6  2  0
  6  7  1  0
  7  8  1  0
  7  9  2  0
  9 10  1  0
 10 11  1  0
 11 12  2  0
 11 13  1  0
 13 14  1  0
 14 15  2  0
 14 16  2  0
 14 17  1  0
 17 18  2  0
 18 19  1  0
 19 20  2  0
 20 21  1  0
 20 22  1  0
 22 23  2  0
 13 24  1  0
 24 25  1  0
 25 26  1  0
 26 27  1  0
  9  2  1  0
 27 13  1  0
 23 17  1  0
M  END
>  <ref_mols>  (1065) 
B1396a

>  <gnina_score>  (1065) 
5.493

>  <smina_score_min>  (1065) 
-3.835

>  <ref_pdb>  (1065) 
B1396a

>  <inspiration_score>  (1065) 
None

>  <inchikey>  (1065) 
DVCQVZXHNRFQPR-UHFFFAOYSA-N

>  <tags>  (1065) 
BulkDock Fragalysis export,openbind_d68ev3c_c2_elabs_scored,openbind_d68ev3c_c2_elabs_scored_4.5plus,openbind_d68ev3c_c2_elabs,openbind_d68ev3c_c2_elabs_scored_5plus,syndirella_product,openbind_d68ev3c_c2_elabs_scored_top80percent,syndirella_placed

>  <smiles>  (1065) 
Cc1cc(F)cc(Cl)c1NC(=O)C1(S(=O)(=O)c2ccc(Br)cc2)CCCC1

>  <subsites>  (1065) 
None

>  <rmsd(smina/fragmenstein)>  (1065) 
1.584

>  <alias>  (1065) 
None

>  <energy_score>  (1065) 
-41.027093

>  <HIPPO Pose ID>  (1065) 
95441

>  <distance_score>  (1065) 
0.380379

>  <HIPPO Compound ID>  (1065) 
129322

>  <gnina_score_min>  (1065) 
5.377

>  <name>  (1065) 
P95441

>  <exports>  (1065) 
['/opt/xchem-fragalysis-2/maxwin/BulkDock/OUTPUTS/openbind_d68ev3c_c2_elabs_1LOTQJ3.sdf', '/opt/xchem-fragalysis-2/maxwin/BulkDock/OUTPUTS/openbind_d68ev3c_c2_elabs_1LSYI5W.sdf']

$$$$
P95444
     RDKit          3D

 27 29  0  0  0  0  0  0  0  0999 V2000
   13.8288   -4.0189   17.5284 C   0  0  0  0  0  0  0  0  0  0  0  0
   13.3474   -2.7887   16.8015 C   0  0  0  0  0  0  0  0  0  0  0  0
   12.2065   -2.8992   15.9939 C   0  0  0  0  0  0  0  0  0  0  0  0
   11.5877   -4.0756   15.8787 F   0  0  0  0  0  0  0  0  0  0  0  0
   11.6790   -1.8228   15.3001 C   0  0  0  0  0  0  0  0  0  0  0  0
   12.2807   -0.5822   15.4374 C   0  0  0  0  0  0  0  0  0  0  0  0
   13.4268   -0.4303   16.2351 C   0  0  0  0  0  0  0  0  0  0  0  0
   13.8940    1.2105   16.5056 Cl  0  0  0  0  0  0  0  0  0  0  0  0
   14.0104   -1.5413   16.8837 C   0  0  0  0  0  0  0  0  0  0  0  0
   15.2116   -1.5150   17.6214 N   0  0  0  0  0  0  0  0  0  0  0  0
   16.4020   -0.4966   17.5903 C   0  0  0  0  0  0  0  0  0  0  0  0
   16.5936    0.4258   16.8927 O   0  0  0  0  0  0  0  0  0  0  0  0
   17.4091   -0.8668   18.6958 C   0  0  0  0  0  0  0  0  0  0  0  0
   18.2507   -2.3675   18.1675 S   0  0  0  0  0  0  0  0  0  0  0  0
   19.4799   -2.5111   18.9256 O   0  0  0  0  0  0  0  0  0  0  0  0
   17.2716   -3.4435   18.1935 O   0  0  0  0  0  0  0  0  0  0  0  0
   18.7233   -2.1373   16.4627 C   0  0  0  0  0  0  0  0  0  0  0  0
   19.9359   -1.5095   16.1626 C   0  0  0  0  0  0  0  0  0  0  0  0
   20.3174   -1.3434   14.8299 C   0  0  0  0  0  0  0  0  0  0  0  0
   19.4994   -1.8256   13.8094 C   0  0  0  0  0  0  0  0  0  0  0  0
   20.0195   -1.5957   12.0070 Br  0  0  0  0  0  0  0  0  0  0  0  0
   18.3051   -2.4819   14.1073 C   0  0  0  0  0  0  0  0  0  0  0  0
   17.9170   -2.6501   15.4394 C   0  0  0  0  0  0  0  0  0  0  0  0
   16.7414   -1.0642   20.0853 C   0  0  0  0  0  0  0  0  0  0  0  0
   17.3329   -0.0090   21.0155 C   0  0  0  0  0  0  0  0  0  0  0  0
   18.6968    0.2814   20.4306 C   0  0  0  0  0  0  0  0  0  0  0  0
   18.4211    0.2853   18.9348 C   0  0  0  0  0  0  0  0  0  0  0  0
  1  2  1  0
  2  3  2  0
  3  4  1  0
  3  5  1  0
  5  6  2  0
  6  7  1  0
  7  8  1  0
  7  9  2  0
  9 10  1  0
 10 11  1  0
 11 12  2  0
 11 13  1  0
 13 14  1  0
 14 15  2  0
 14 16  2  0
 14 17  1  0
 17 18  2  0
 18 19  1  0
 19 20  2  0
 20 21  1  0
 20 22  1  0
 22 23  2  0
 13 24  1  0
 24 25  1  0
 25 26  1  0
 26 27  1  0
  9  2  1  0
 27 13  1  0
 23 17  1  0
M  END
>  <ref_mols>  (1066) 
B1396a

>  <gnina_score>  (1066) 
5.464

>  <smina_score_min>  (1066) 
-4.271

>  <ref_pdb>  (1066) 
B1396a

>  <inspiration_score>  (1066) 
None

>  <inchikey>  (1066) 
IUPAJJRVSKDYJT-UHFFFAOYSA-N

>  <tags>  (1066) 
BulkDock Fragalysis export,openbind_d68ev3c_c2_elabs_scored,openbind_d68ev3c_c2_elabs_scored_4.5plus,openbind_d68ev3c_c2_elabs,openbind_d68ev3c_c2_elabs_scored_5plus,syndirella_product,openbind_d68ev3c_c2_elabs_scored_top80percent,syndirella_placed

>  <smiles>  (1066) 
Cc1c(F)ccc(Cl)c1NC(=O)C1(S(=O)(=O)c2ccc(Br)cc2)CCCC1

>  <subsites>  (1066) 
None

>  <rmsd(smina/fragmenstein)>  (1066) 
2.789

>  <alias>  (1066) 
None

>  <energy_score>  (1066) 
-34.914906

>  <HIPPO Pose ID>  (1066) 
95444

>  <distance_score>  (1066) 
0.475321

>  <HIPPO Compound ID>  (1066) 
129325

>  <gnina_score_min>  (1066) 
5.167

>  <name>  (1066) 
P95444

>  <exports>  (1066) 
['/opt/xchem-fragalysis-2/maxwin/BulkDock/OUTPUTS/openbind_d68ev3c_c2_elabs_1LOTQJ3.sdf', '/opt/xchem-fragalysis-2/maxwin/BulkDock/OUTPUTS/openbind_d68ev3c_c2_elabs_1LSYI5W.sdf']

$$$$
P95445
     RDKit          3D

 27 29  0  0  0  0  0  0  0  0999 V2000
   13.6889   -3.6750   17.2692 C   0  0  0  0  0  0  0  0  0  0  0  0
   13.4195   -2.3104   16.6741 C   0  0  0  0  0  0  0  0  0  0  0  0
   12.3825   -2.1041   15.7374 C   0  0  0  0  0  0  0  0  0  0  0  0
   11.4254   -3.4773   14.8924 Br  0  0  0  0  0  0  0  0  0  0  0  0
   12.0399   -0.8357   15.2773 C   0  0  0  0  0  0  0  0  0  0  0  0
   12.7715    0.2547   15.6943 C   0  0  0  0  0  0  0  0  0  0  0  0
   13.8712    0.0775   16.5304 C   0  0  0  0  0  0  0  0  0  0  0  0
   14.4930    1.2577   16.8250 O   0  0  0  0  0  0  0  0  0  0  0  0
   14.2285   -1.1955   17.0212 C   0  0  0  0  0  0  0  0  0  0  0  0
   15.3674   -1.4155   17.8233 N   0  0  0  0  0  0  0  0  0  0  0  0
   16.5542   -0.4678   18.1786 C   0  0  0  0  0  0  0  0  0  0  0  0
   16.7255    0.6627   17.9217 O   0  0  0  0  0  0  0  0  0  0  0  0
   17.5576   -1.2009   19.0932 C   0  0  0  0  0  0  0  0  0  0  0  0
   18.2318   -2.6118   18.2441 S   0  0  0  0  0  0  0  0  0  0  0  0
   17.1617   -3.5942   18.1636 O   0  0  0  0  0  0  0  0  0  0  0  0
   19.4910   -2.9753   18.8656 O   0  0  0  0  0  0  0  0  0  0  0  0
   18.6235   -2.1331   16.5750 C   0  0  0  0  0  0  0  0  0  0  0  0
   19.7463   -1.3368   16.3336 C   0  0  0  0  0  0  0  0  0  0  0  0
   20.1027   -1.0294   15.0182 C   0  0  0  0  0  0  0  0  0  0  0  0
   19.3492   -1.5321   13.9572 C   0  0  0  0  0  0  0  0  0  0  0  0
   19.8410   -1.1139   12.1811 Br  0  0  0  0  0  0  0  0  0  0  0  0
   18.2392   -2.3420   14.1961 C   0  0  0  0  0  0  0  0  0  0  0  0
   17.8754   -2.6500   15.5095 C   0  0  0  0  0  0  0  0  0  0  0  0
   18.6664   -0.2422   19.5824 C   0  0  0  0  0  0  0  0  0  0  0  0
   18.0612    0.5189   20.7626 C   0  0  0  0  0  0  0  0  0  0  0  0
   16.8839   -0.3180   21.2510 C   0  0  0  0  0  0  0  0  0  0  0  0
   16.9178   -1.6042   20.4329 C   0  0  0  0  0  0  0  0  0  0  0  0
  1  2  1  0
  2  3  2  0
  3  4  1  0
  3  5  1  0
  5  6  2  0
  6  7  1  0
  7  8  1  0
  7  9  2  0
  9 10  1  0
 10 11  1  0
 11 12  2  0
 11 13  1  0
 13 14  1  0
 14 15  2  0
 14 16  2  0
 14 17  1  0
 17 18  2  0
 18 19  1  0
 19 20  2  0
 20 21  1  0
 20 22  1  0
 22 23  2  0
 13 24  1  0
 24 25  1  0
 25 26  1  0
 26 27  1  0
  9  2  1  0
 27 13  1  0
 23 17  1  0
M  END
>  <ref_mols>  (1067) 
B1396a

>  <gnina_score>  (1067) 
5.28

>  <smina_score_min>  (1067) 
-3.613

>  <ref_pdb>  (1067) 
B1396a

>  <inspiration_score>  (1067) 
None

>  <inchikey>  (1067) 
FUEVSGBDZSVXTQ-UHFFFAOYSA-N

>  <tags>  (1067) 
BulkDock Fragalysis export,openbind_d68ev3c_c2_elabs_scored,openbind_d68ev3c_c2_elabs_scored_4.5plus,openbind_d68ev3c_c2_elabs,openbind_d68ev3c_c2_elabs_scored_5plus,syndirella_product,openbind_d68ev3c_c2_elabs_scored_top80percent,syndirella_placed

>  <smiles>  (1067) 
Cc1c(Br)ccc(O)c1NC(=O)C1(S(=O)(=O)c2ccc(Br)cc2)CCCC1

>  <subsites>  (1067) 
None

>  <rmsd(smina/fragmenstein)>  (1067) 
2.106

>  <alias>  (1067) 
None

>  <energy_score>  (1067) 
-54.230251

>  <HIPPO Pose ID>  (1067) 
95445

>  <distance_score>  (1067) 
0.935542

>  <HIPPO Compound ID>  (1067) 
129326

>  <gnina_score_min>  (1067) 
5.033

>  <name>  (1067) 
P95445

>  <exports>  (1067) 
['/opt/xchem-fragalysis-2/maxwin/BulkDock/OUTPUTS/openbind_d68ev3c_c2_elabs_1LOTQJ3.sdf', '/opt/xchem-fragalysis-2/maxwin/BulkDock/OUTPUTS/openbind_d68ev3c_c2_elabs_1LSYI5W.sdf']

$$$$
P95446
     RDKit          3D

 27 29  0  0  0  0  0  0  0  0999 V2000
   14.3368    1.1092   16.6980 C   0  0  0  0  0  0  0  0  0  0  0  0
   13.7377   -0.2607   16.5365 C   0  0  0  0  0  0  0  0  0  0  0  0
   12.5053   -0.2856   15.8614 C   0  0  0  0  0  0  0  0  0  0  0  0
   11.7642   -1.4498   15.7656 C   0  0  0  0  0  0  0  0  0  0  0  0
    9.9982   -1.3006   15.1397 Br  0  0  0  0  0  0  0  0  0  0  0  0
   12.2648   -2.6432   16.2620 C   0  0  0  0  0  0  0  0  0  0  0  0
   13.5022   -2.6589   16.9348 C   0  0  0  0  0  0  0  0  0  0  0  0
   13.9483   -3.9740   17.5306 C   0  0  0  0  0  0  0  0  0  0  0  0
   14.2601   -1.4592   17.0697 C   0  0  0  0  0  0  0  0  0  0  0  0
   15.4541   -1.5330   17.8170 N   0  0  0  0  0  0  0  0  0  0  0  0
   16.6970   -0.5754   17.8481 C   0  0  0  0  0  0  0  0  0  0  0  0
   16.8760    0.4543   17.3151 O   0  0  0  0  0  0  0  0  0  0  0  0
   17.7402   -1.1282   18.8389 C   0  0  0  0  0  0  0  0  0  0  0  0
   18.4166   -2.6255   18.1437 S   0  0  0  0  0  0  0  0  0  0  0  0
   17.3467   -3.6108   18.1306 O   0  0  0  0  0  0  0  0  0  0  0  0
   19.6612   -2.9344   18.8215 O   0  0  0  0  0  0  0  0  0  0  0  0
   18.8244   -2.2646   16.4488 C   0  0  0  0  0  0  0  0  0  0  0  0
   19.9816   -1.5356   16.1610 C   0  0  0  0  0  0  0  0  0  0  0  0
   20.3111   -1.2634   14.8320 C   0  0  0  0  0  0  0  0  0  0  0  0
   19.4957   -1.7353   13.8039 C   0  0  0  0  0  0  0  0  0  0  0  0
   19.9473   -1.3610   12.0072 Br  0  0  0  0  0  0  0  0  0  0  0  0
   18.3529   -2.4826   14.0894 C   0  0  0  0  0  0  0  0  0  0  0  0
   18.0153   -2.7554   15.4173 C   0  0  0  0  0  0  0  0  0  0  0  0
   18.8606   -0.0825   19.1087 C   0  0  0  0  0  0  0  0  0  0  0  0
   18.4709    0.5813   20.4207 C   0  0  0  0  0  0  0  0  0  0  0  0
   17.9544   -0.5867   21.2342 C   0  0  0  0  0  0  0  0  0  0  0  0
   17.1120   -1.3744   20.2368 C   0  0  0  0  0  0  0  0  0  0  0  0
  1  2  1  0
  2  3  2  0
  3  4  1  0
  4  5  1  0
  4  6  2  0
  6  7  1  0
  7  8  1  0
  7  9  2  0
  9 10  1  0
 10 11  1  0
 11 12  2  0
 11 13  1  0
 13 14  1  0
 14 15  2  0
 14 16  2  0
 14 17  1  0
 17 18  2  0
 18 19  1  0
 19 20  2  0
 20 21  1  0
 20 22  1  0
 22 23  2  0
 13 24  1  0
 24 25  1  0
 25 26  1  0
 26 27  1  0
  9  2  1  0
 27 13  1  0
 23 17  1  0
M  END
>  <ref_mols>  (1068) 
B1396a

>  <gnina_score>  (1068) 
5.618

>  <smina_score_min>  (1068) 
-3.804

>  <ref_pdb>  (1068) 
B1396a

>  <inspiration_score>  (1068) 
None

>  <inchikey>  (1068) 
WZZYPRUENKGCKJ-UHFFFAOYSA-N

>  <tags>  (1068) 
BulkDock Fragalysis export,openbind_d68ev3c_c2_elabs_scored,openbind_d68ev3c_c2_elabs_scored_4.5plus,openbind_d68ev3c_c2_elabs,openbind_d68ev3c_c2_elabs_scored_5plus,syndirella_product,openbind_d68ev3c_c2_elabs_scored_top80percent,syndirella_placed

>  <smiles>  (1068) 
Cc1cc(Br)cc(C)c1NC(=O)C1(S(=O)(=O)c2ccc(Br)cc2)CCCC1

>  <subsites>  (1068) 
None

>  <rmsd(smina/fragmenstein)>  (1068) 
3.137

>  <alias>  (1068) 
None

>  <energy_score>  (1068) 
-31.933099

>  <HIPPO Pose ID>  (1068) 
95446

>  <distance_score>  (1068) 
0.678836

>  <HIPPO Compound ID>  (1068) 
129327

>  <gnina_score_min>  (1068) 
5.164

>  <name>  (1068) 
P95446

>  <exports>  (1068) 
['/opt/xchem-fragalysis-2/maxwin/BulkDock/OUTPUTS/openbind_d68ev3c_c2_elabs_1LOTQJ3.sdf', '/opt/xchem-fragalysis-2/maxwin/BulkDock/OUTPUTS/openbind_d68ev3c_c2_elabs_1LSYI5W.sdf']

$$$$
P95447
     RDKit          3D

 27 29  0  0  0  0  0  0  0  0999 V2000
   11.8461    0.1121   14.4888 C   0  0  0  0  0  0  0  0  0  0  0  0
   12.3834   -0.9874   15.3528 C   0  0  0  0  0  0  0  0  0  0  0  0
   13.6137   -0.8602   16.0139 C   0  0  0  0  0  0  0  0  0  0  0  0
   14.1224   -1.9059   16.7976 C   0  0  0  0  0  0  0  0  0  0  0  0
   15.3374   -1.7662   17.4696 N   0  0  0  0  0  0  0  0  0  0  0  0
   16.3115   -0.5469   17.5618 C   0  0  0  0  0  0  0  0  0  0  0  0
   16.2770    0.4942   17.0249 O   0  0  0  0  0  0  0  0  0  0  0  0
   17.4006   -0.8601   18.6166 C   0  0  0  0  0  0  0  0  0  0  0  0
   18.3097   -2.3259   18.1218 S   0  0  0  0  0  0  0  0  0  0  0  0
   17.3831   -3.4470   18.1631 O   0  0  0  0  0  0  0  0  0  0  0  0
   19.5407   -2.4037   18.8863 O   0  0  0  0  0  0  0  0  0  0  0  0
   18.7730   -2.0813   16.4211 C   0  0  0  0  0  0  0  0  0  0  0  0
   19.8758   -1.2756   16.1229 C   0  0  0  0  0  0  0  0  0  0  0  0
   20.2598   -1.0988   14.7928 C   0  0  0  0  0  0  0  0  0  0  0  0
   19.5542   -1.7407   13.7757 C   0  0  0  0  0  0  0  0  0  0  0  0
   20.0806   -1.4969   11.9768 Br  0  0  0  0  0  0  0  0  0  0  0  0
   18.4694   -2.5655   14.0743 C   0  0  0  0  0  0  0  0  0  0  0  0
   18.0778   -2.7448   15.4035 C   0  0  0  0  0  0  0  0  0  0  0  0
   16.7488   -1.0492   20.0132 C   0  0  0  0  0  0  0  0  0  0  0  0
   17.4066   -0.0295   20.9373 C   0  0  0  0  0  0  0  0  0  0  0  0
   17.8073    1.0977   20.0080 C   0  0  0  0  0  0  0  0  0  0  0  0
   18.3562    0.3495   18.8026 C   0  0  0  0  0  0  0  0  0  0  0  0
   13.4095   -3.1119   16.9065 C   0  0  0  0  0  0  0  0  0  0  0  0
   13.9046   -4.2742   17.7216 C   0  0  0  0  0  0  0  0  0  0  0  0
   12.1906   -3.2372   16.2284 C   0  0  0  0  0  0  0  0  0  0  0  0
   11.6907   -2.1882   15.4679 C   0  0  0  0  0  0  0  0  0  0  0  0
   10.5075   -2.3430   14.8621 F   0  0  0  0  0  0  0  0  0  0  0  0
  1  2  1  0
  2  3  2  0
  3  4  1  0
  4  5  1  0
  5  6  1  0
  6  7  2  0
  6  8  1  0
  8  9  1  0
  9 10  2  0
  9 11  2  0
  9 12  1  0
 12 13  2  0
 13 14  1  0
 14 15  2  0
 15 16  1  0
 15 17  1  0
 17 18  2  0
  8 19  1  0
 19 20  1  0
 20 21  1  0
 21 22  1  0
  4 23  2  0
 23 24  1  0
 23 25  1  0
 25 26  2  0
 26 27  1  0
 26  2  1  0
 22  8  1  0
 18 12  1  0
M  END
>  <ref_mols>  (1069) 
B1396a

>  <gnina_score>  (1069) 
5.357

>  <smina_score_min>  (1069) 
-3.893

>  <ref_pdb>  (1069) 
B1396a

>  <inspiration_score>  (1069) 
None

>  <inchikey>  (1069) 
OYKFKVVDEMOZDB-UHFFFAOYSA-N

>  <tags>  (1069) 
BulkDock Fragalysis export,openbind_d68ev3c_c2_elabs_scored,openbind_d68ev3c_c2_elabs_scored_4.5plus,openbind_d68ev3c_c2_elabs,openbind_d68ev3c_c2_elabs_scored_5plus,syndirella_product,openbind_d68ev3c_c2_elabs_scored_top80percent,syndirella_placed

>  <smiles>  (1069) 
Cc1cc(NC(=O)C2(S(=O)(=O)c3ccc(Br)cc3)CCCC2)c(C)cc1F

>  <subsites>  (1069) 
None

>  <rmsd(smina/fragmenstein)>  (1069) 
1.542

>  <alias>  (1069) 
None

>  <energy_score>  (1069) 
-53.083807

>  <HIPPO Pose ID>  (1069) 
95447

>  <distance_score>  (1069) 
0.423473

>  <HIPPO Compound ID>  (1069) 
129329

>  <gnina_score_min>  (1069) 
5.252

>  <name>  (1069) 
P95447

>  <exports>  (1069) 
['/opt/xchem-fragalysis-2/maxwin/BulkDock/OUTPUTS/openbind_d68ev3c_c2_elabs_1LOTQJ3.sdf', '/opt/xchem-fragalysis-2/maxwin/BulkDock/OUTPUTS/openbind_d68ev3c_c2_elabs_1LSYI5W.sdf']

$$$$
P95448
     RDKit          3D

 27 29  0  0  0  0  0  0  0  0999 V2000
   10.5206   -1.7042   14.9072 C   0  0  0  0  0  0  0  0  0  0  0  0
   11.8266   -1.7281   15.6291 C   0  0  0  0  0  0  0  0  0  0  0  0
   12.3001   -2.8884   16.2496 C   0  0  0  0  0  0  0  0  0  0  0  0
   13.4962   -2.8799   16.9938 C   0  0  0  0  0  0  0  0  0  0  0  0
   13.9275   -4.1565   17.6658 C   0  0  0  0  0  0  0  0  0  0  0  0
   14.2373   -1.6837   17.0950 C   0  0  0  0  0  0  0  0  0  0  0  0
   15.4230   -1.6645   17.8444 N   0  0  0  0  0  0  0  0  0  0  0  0
   16.5667   -0.5951   17.9110 C   0  0  0  0  0  0  0  0  0  0  0  0
   16.6486    0.4610   17.4087 O   0  0  0  0  0  0  0  0  0  0  0  0
   17.6545   -1.0819   18.8884 C   0  0  0  0  0  0  0  0  0  0  0  0
   18.4095   -2.5478   18.1991 S   0  0  0  0  0  0  0  0  0  0  0  0
   19.6688   -2.7921   18.8767 O   0  0  0  0  0  0  0  0  0  0  0  0
   17.3939   -3.5902   18.1913 O   0  0  0  0  0  0  0  0  0  0  0  0
   18.8004   -2.1844   16.5001 C   0  0  0  0  0  0  0  0  0  0  0  0
   18.0178   -2.7254   15.4727 C   0  0  0  0  0  0  0  0  0  0  0  0
   18.3550   -2.4670   14.1417 C   0  0  0  0  0  0  0  0  0  0  0  0
   19.4724   -1.6851   13.8486 C   0  0  0  0  0  0  0  0  0  0  0  0
   19.9256   -1.3338   12.0476 Br  0  0  0  0  0  0  0  0  0  0  0  0
   20.2618   -1.1624   14.8726 C   0  0  0  0  0  0  0  0  0  0  0  0
   19.9320   -1.4191   16.2049 C   0  0  0  0  0  0  0  0  0  0  0  0
   17.0515   -1.3556   20.2920 C   0  0  0  0  0  0  0  0  0  0  0  0
   17.8428   -0.4999   21.2756 C   0  0  0  0  0  0  0  0  0  0  0  0
   18.2908    0.6840   20.4439 C   0  0  0  0  0  0  0  0  0  0  0  0
   18.7157    0.0253   19.1403 C   0  0  0  0  0  0  0  0  0  0  0  0
   13.7434   -0.5327   16.4682 C   0  0  0  0  0  0  0  0  0  0  0  0
   14.3531    0.6519   16.5865 F   0  0  0  0  0  0  0  0  0  0  0  0
   12.5555   -0.5495   15.7491 C   0  0  0  0  0  0  0  0  0  0  0  0
  1  2  1  0
  2  3  2  0
  3  4  1  0
  4  5  1  0
  4  6  2  0
  6  7  1  0
  7  8  1  0
  8  9  2  0
  8 10  1  0
 10 11  1  0
 11 12  2  0
 11 13  2  0
 11 14  1  0
 14 15  2  0
 15 16  1  0
 16 17  2  0
 17 18  1  0
 17 19  1  0
 19 20  2  0
 10 21  1  0
 21 22  1  0
 22 23  1  0
 23 24  1  0
  6 25  1  0
 25 26  1  0
 25 27  2  0
 27  2  1  0
 24 10  1  0
 20 14  1  0
M  END
>  <ref_mols>  (1070) 
B1396a

>  <gnina_score>  (1070) 
5.454

>  <smina_score_min>  (1070) 
-3.568

>  <ref_pdb>  (1070) 
B1396a

>  <inspiration_score>  (1070) 
None

>  <inchikey>  (1070) 
OSSQNGCNNNHGJX-UHFFFAOYSA-N

>  <tags>  (1070) 
BulkDock Fragalysis export,openbind_d68ev3c_c2_elabs_scored,openbind_d68ev3c_c2_elabs_scored_4.5plus,openbind_d68ev3c_c2_elabs,openbind_d68ev3c_c2_elabs_scored_5plus,syndirella_product,openbind_d68ev3c_c2_elabs_scored_top80percent,syndirella_placed

>  <smiles>  (1070) 
Cc1cc(C)c(NC(=O)C2(S(=O)(=O)c3ccc(Br)cc3)CCCC2)c(F)c1

>  <subsites>  (1070) 
None

>  <rmsd(smina/fragmenstein)>  (1070) 
1.913

>  <alias>  (1070) 
None

>  <energy_score>  (1070) 
-44.950978

>  <HIPPO Pose ID>  (1070) 
95448

>  <distance_score>  (1070) 
0.599203

>  <HIPPO Compound ID>  (1070) 
129330

>  <gnina_score_min>  (1070) 
5.214

>  <name>  (1070) 
P95448

>  <exports>  (1070) 
['/opt/xchem-fragalysis-2/maxwin/BulkDock/OUTPUTS/openbind_d68ev3c_c2_elabs_1LOTQJ3.sdf', '/opt/xchem-fragalysis-2/maxwin/BulkDock/OUTPUTS/openbind_d68ev3c_c2_elabs_1LSYI5W.sdf']

$$$$
P95449
     RDKit          3D

 27 29  0  0  0  0  0  0  0  0999 V2000
   14.3969    1.0946   14.9151 C   0  0  0  0  0  0  0  0  0  0  0  0
   13.9015    0.6137   16.1673 O   0  0  0  0  0  0  0  0  0  0  0  0
   13.4037   -0.6580   16.0606 C   0  0  0  0  0  0  0  0  0  0  0  0
   12.2413   -0.8422   15.2961 C   0  0  0  0  0  0  0  0  0  0  0  0
   11.6096   -2.0773   15.2602 C   0  0  0  0  0  0  0  0  0  0  0  0
   12.1197   -3.1243   16.0182 C   0  0  0  0  0  0  0  0  0  0  0  0
   13.2711   -2.9585   16.8101 C   0  0  0  0  0  0  0  0  0  0  0  0
   13.7499   -4.1404   17.6147 C   0  0  0  0  0  0  0  0  0  0  0  0
   13.9382   -1.7116   16.8245 C   0  0  0  0  0  0  0  0  0  0  0  0
   15.0850   -1.5972   17.6350 N   0  0  0  0  0  0  0  0  0  0  0  0
   16.2573   -0.5569   17.5980 C   0  0  0  0  0  0  0  0  0  0  0  0
   16.4013    0.4020   16.9380 O   0  0  0  0  0  0  0  0  0  0  0  0
   17.2779   -0.9205   18.6897 C   0  0  0  0  0  0  0  0  0  0  0  0
   18.1776   -2.3730   18.1518 S   0  0  0  0  0  0  0  0  0  0  0  0
   19.4158   -2.4776   18.9021 O   0  0  0  0  0  0  0  0  0  0  0  0
   17.2456   -3.4895   18.1639 O   0  0  0  0  0  0  0  0  0  0  0  0
   18.6436   -2.1057   16.4511 C   0  0  0  0  0  0  0  0  0  0  0  0
   19.8385   -1.4383   16.1635 C   0  0  0  0  0  0  0  0  0  0  0  0
   20.2258   -1.2561   14.8348 C   0  0  0  0  0  0  0  0  0  0  0  0
   19.4303   -1.7586   13.8062 C   0  0  0  0  0  0  0  0  0  0  0  0
   19.9560   -1.5040   12.0087 Br  0  0  0  0  0  0  0  0  0  0  0  0
   18.2528   -2.4504   14.0919 C   0  0  0  0  0  0  0  0  0  0  0  0
   17.8594   -2.6359   15.4200 C   0  0  0  0  0  0  0  0  0  0  0  0
   16.6182   -1.1223   20.0650 C   0  0  0  0  0  0  0  0  0  0  0  0
   17.7113   -0.8522   21.0903 C   0  0  0  0  0  0  0  0  0  0  0  0
   18.6693    0.1301   20.4328 C   0  0  0  0  0  0  0  0  0  0  0  0
   18.2167    0.2697   18.9809 C   0  0  0  0  0  0  0  0  0  0  0  0
  1  2  1  0
  2  3  1  0
  3  4  2  0
  4  5  1  0
  5  6  2  0
  6  7  1  0
  7  8  1  0
  7  9  2  0
  9 10  1  0
 10 11  1  0
 11 12  2  0
 11 13  1  0
 13 14  1  0
 14 15  2  0
 14 16  2  0
 14 17  1  0
 17 18  2  0
 18 19  1  0
 19 20  2  0
 20 21  1  0
 20 22  1  0
 22 23  2  0
 13 24  1  0
 24 25  1  0
 25 26  1  0
 26 27  1  0
  9  3  1  0
 27 13  1  0
 23 17  1  0
M  END
>  <ref_mols>  (1071) 
B1396a

>  <gnina_score>  (1071) 
5.096

>  <smina_score_min>  (1071) 
-3.72

>  <ref_pdb>  (1071) 
B1396a

>  <inspiration_score>  (1071) 
None

>  <inchikey>  (1071) 
RVWVUFCCICHERJ-UHFFFAOYSA-N

>  <tags>  (1071) 
BulkDock Fragalysis export,openbind_d68ev3c_c2_elabs_scored,openbind_d68ev3c_c2_elabs_scored_4.5plus,openbind_d68ev3c_c2_elabs,openbind_d68ev3c_c2_elabs_scored_5plus,syndirella_product,openbind_d68ev3c_c2_elabs_scored_top80percent,syndirella_placed

>  <smiles>  (1071) 
COc1cccc(C)c1NC(=O)C1(S(=O)(=O)c2ccc(Br)cc2)CCCC1

>  <subsites>  (1071) 
None

>  <rmsd(smina/fragmenstein)>  (1071) 
1.689

>  <alias>  (1071) 
None

>  <energy_score>  (1071) 
-28.479053

>  <HIPPO Pose ID>  (1071) 
95449

>  <distance_score>  (1071) 
0.408924

>  <HIPPO Compound ID>  (1071) 
129331

>  <gnina_score_min>  (1071) 
5.042

>  <name>  (1071) 
P95449

>  <exports>  (1071) 
['/opt/xchem-fragalysis-2/maxwin/BulkDock/OUTPUTS/openbind_d68ev3c_c2_elabs_1LOTQJ3.sdf', '/opt/xchem-fragalysis-2/maxwin/BulkDock/OUTPUTS/openbind_d68ev3c_c2_elabs_1LSYI5W.sdf']

$$$$
P95451
     RDKit          3D

 27 29  0  0  0  0  0  0  0  0999 V2000
   13.9306   -4.1525   17.7441 C   0  0  0  0  0  0  0  0  0  0  0  0
   13.4972   -2.9481   16.9575 C   0  0  0  0  0  0  0  0  0  0  0  0
   14.2286   -1.7497   16.9351 C   0  0  0  0  0  0  0  0  0  0  0  0
   15.4006   -1.6393   17.6834 N   0  0  0  0  0  0  0  0  0  0  0  0
   16.4438   -0.4774   17.7701 C   0  0  0  0  0  0  0  0  0  0  0  0
   16.4332    0.5896   17.2853 O   0  0  0  0  0  0  0  0  0  0  0  0
   17.5673   -0.8859   18.7520 C   0  0  0  0  0  0  0  0  0  0  0  0
   18.3749   -2.3707   18.1582 S   0  0  0  0  0  0  0  0  0  0  0  0
   17.3923   -3.4432   18.1949 O   0  0  0  0  0  0  0  0  0  0  0  0
   19.6297   -2.5407   18.8665 O   0  0  0  0  0  0  0  0  0  0  0  0
   18.7818   -2.0847   16.4496 C   0  0  0  0  0  0  0  0  0  0  0  0
   19.9074   -1.3183   16.1339 C   0  0  0  0  0  0  0  0  0  0  0  0
   20.2521   -1.1185   14.7961 C   0  0  0  0  0  0  0  0  0  0  0  0
   19.4841   -1.6992   13.7876 C   0  0  0  0  0  0  0  0  0  0  0  0
   19.9565   -1.4245   11.9784 Br  0  0  0  0  0  0  0  0  0  0  0  0
   18.3748   -2.4846   14.1021 C   0  0  0  0  0  0  0  0  0  0  0  0
   18.0228   -2.6868   15.4391 C   0  0  0  0  0  0  0  0  0  0  0  0
   18.5908    0.2681   18.9348 C   0  0  0  0  0  0  0  0  0  0  0  0
   18.1417    0.9921   20.1950 C   0  0  0  0  0  0  0  0  0  0  0  0
   17.7319   -0.1517   21.0998 C   0  0  0  0  0  0  0  0  0  0  0  0
   16.9770   -1.0988   20.1727 C   0  0  0  0  0  0  0  0  0  0  0  0
   13.7697   -0.6631   16.1749 C   0  0  0  0  0  0  0  0  0  0  0  0
   12.5789   -0.7487   15.4499 C   0  0  0  0  0  0  0  0  0  0  0  0
   11.8556   -1.9276   15.4783 C   0  0  0  0  0  0  0  0  0  0  0  0
   10.6985   -2.0121   14.8122 F   0  0  0  0  0  0  0  0  0  0  0  0
   12.3149   -3.0110   16.2137 C   0  0  0  0  0  0  0  0  0  0  0  0
   11.5940   -4.1351   16.2218 F   0  0  0  0  0  0  0  0  0  0  0  0
  1  2  1  0
  2  3  2  0
  3  4  1  0
  4  5  1  0
  5  6  2  0
  5  7  1  0
  7  8  1  0
  8  9  2  0
  8 10  2  0
  8 11  1  0
 11 12  2  0
 12 13  1  0
 13 14  2  0
 14 15  1  0
 14 16  1  0
 16 17  2  0
  7 18  1  0
 18 19  1  0
 19 20  1  0
 20 21  1  0
  3 22  1  0
 22 23  2  0
 23 24  1  0
 24 25  1  0
 24 26  2  0
 26 27  1  0
 26  2  1  0
 21  7  1  0
 17 11  1  0
M  END
>  <ref_mols>  (1072) 
B1396a

>  <gnina_score>  (1072) 
5.358

>  <smina_score_min>  (1072) 
-4.247

>  <ref_pdb>  (1072) 
B1396a

>  <inspiration_score>  (1072) 
None

>  <inchikey>  (1072) 
SDZBFJDTXXIXJW-UHFFFAOYSA-N

>  <tags>  (1072) 
BulkDock Fragalysis export,openbind_d68ev3c_c2_elabs_scored,openbind_d68ev3c_c2_elabs_scored_4.5plus,openbind_d68ev3c_c2_elabs,openbind_d68ev3c_c2_elabs_scored_5plus,syndirella_product,openbind_d68ev3c_c2_elabs_scored_top80percent,syndirella_placed

>  <smiles>  (1072) 
Cc1c(NC(=O)C2(S(=O)(=O)c3ccc(Br)cc3)CCCC2)ccc(F)c1F

>  <subsites>  (1072) 
None

>  <rmsd(smina/fragmenstein)>  (1072) 
3.252

>  <alias>  (1072) 
None

>  <energy_score>  (1072) 
-36.108529

>  <HIPPO Pose ID>  (1072) 
95451

>  <distance_score>  (1072) 
0.540445

>  <HIPPO Compound ID>  (1072) 
129334

>  <gnina_score_min>  (1072) 
5.082

>  <name>  (1072) 
P95451

>  <exports>  (1072) 
['/opt/xchem-fragalysis-2/maxwin/BulkDock/OUTPUTS/openbind_d68ev3c_c2_elabs_1LOTQJ3.sdf', '/opt/xchem-fragalysis-2/maxwin/BulkDock/OUTPUTS/openbind_d68ev3c_c2_elabs_1LSYI5W.sdf']

$$$$
P95452
     RDKit          3D

 27 29  0  0  0  0  0  0  0  0999 V2000
   14.4920   -3.9916   18.6354 O   0  0  0  0  0  0  0  0  0  0  0  0
   13.6532   -4.1256   17.7527 C   0  0  0  0  0  0  0  0  0  0  0  0
   13.2808   -3.0059   16.8583 C   0  0  0  0  0  0  0  0  0  0  0  0
   12.1265   -3.1645   16.0759 C   0  0  0  0  0  0  0  0  0  0  0  0
   11.6926   -2.1334   15.2470 C   0  0  0  0  0  0  0  0  0  0  0  0
   12.4159   -0.9465   15.2044 C   0  0  0  0  0  0  0  0  0  0  0  0
   13.5791   -0.7992   15.9659 C   0  0  0  0  0  0  0  0  0  0  0  0
   14.2068    0.3784   15.8846 F   0  0  0  0  0  0  0  0  0  0  0  0
   14.0453   -1.8258   16.7926 C   0  0  0  0  0  0  0  0  0  0  0  0
   15.2252   -1.7448   17.5476 N   0  0  0  0  0  0  0  0  0  0  0  0
   16.3239   -0.6348   17.5968 C   0  0  0  0  0  0  0  0  0  0  0  0
   16.4468    0.3397   16.9583 O   0  0  0  0  0  0  0  0  0  0  0  0
   17.3437   -0.9885   18.6977 C   0  0  0  0  0  0  0  0  0  0  0  0
   18.3334   -2.3761   18.1097 S   0  0  0  0  0  0  0  0  0  0  0  0
   17.4869   -3.5560   18.0930 O   0  0  0  0  0  0  0  0  0  0  0  0
   19.5840   -2.4126   18.8469 O   0  0  0  0  0  0  0  0  0  0  0  0
   18.7616   -2.0538   16.4079 C   0  0  0  0  0  0  0  0  0  0  0  0
   19.8916   -1.2869   16.1120 C   0  0  0  0  0  0  0  0  0  0  0  0
   20.2580   -1.0849   14.7800 C   0  0  0  0  0  0  0  0  0  0  0  0
   19.5103   -1.6685   13.7576 C   0  0  0  0  0  0  0  0  0  0  0  0
   20.0151   -1.3927   11.9570 Br  0  0  0  0  0  0  0  0  0  0  0  0
   18.4002   -2.4602   14.0516 C   0  0  0  0  0  0  0  0  0  0  0  0
   18.0265   -2.6624   15.3821 C   0  0  0  0  0  0  0  0  0  0  0  0
   16.6779   -1.3220   20.0621 C   0  0  0  0  0  0  0  0  0  0  0  0
   17.1667   -0.2785   21.0628 C   0  0  0  0  0  0  0  0  0  0  0  0
   18.5064    0.1633   20.5182 C   0  0  0  0  0  0  0  0  0  0  0  0
   18.2477    0.2326   19.0209 C   0  0  0  0  0  0  0  0  0  0  0  0
  1  2  2  0
  2  3  1  0
  3  4  2  0
  4  5  1  0
  5  6  2  0
  6  7  1  0
  7  8  1  0
  7  9  2  0
  9 10  1  0
 10 11  1  0
 11 12  2  0
 11 13  1  0
 13 14  1  0
 14 15  2  0
 14 16  2  0
 14 17  1  0
 17 18  2  0
 18 19  1  0
 19 20  2  0
 20 21  1  0
 20 22  1  0
 22 23  2  0
 13 24  1  0
 24 25  1  0
 25 26  1  0
 26 27  1  0
  9  3  1  0
 27 13  1  0
 23 17  1  0
M  END
>  <ref_mols>  (1073) 
B1396a

>  <gnina_score>  (1073) 
5.133

>  <smina_score_min>  (1073) 
-3.677

>  <ref_pdb>  (1073) 
B1396a

>  <inspiration_score>  (1073) 
None

>  <inchikey>  (1073) 
WWCUSXCXGLCIST-UHFFFAOYSA-N

>  <tags>  (1073) 
BulkDock Fragalysis export,openbind_d68ev3c_c2_elabs_scored,openbind_d68ev3c_c2_elabs_scored_4.5plus,openbind_d68ev3c_c2_elabs,openbind_d68ev3c_c2_elabs_scored_5plus,syndirella_product,openbind_d68ev3c_c2_elabs_scored_top80percent,syndirella_placed

>  <smiles>  (1073) 
O=Cc1cccc(F)c1NC(=O)C1(S(=O)(=O)c2ccc(Br)cc2)CCCC1

>  <subsites>  (1073) 
None

>  <rmsd(smina/fragmenstein)>  (1073) 
1.644

>  <alias>  (1073) 
None

>  <energy_score>  (1073) 
-39.197982

>  <HIPPO Pose ID>  (1073) 
95452

>  <distance_score>  (1073) 
0.40928

>  <HIPPO Compound ID>  (1073) 
129335

>  <gnina_score_min>  (1073) 
5.002

>  <name>  (1073) 
P95452

>  <exports>  (1073) 
['/opt/xchem-fragalysis-2/maxwin/BulkDock/OUTPUTS/openbind_d68ev3c_c2_elabs_1LOTQJ3.sdf', '/opt/xchem-fragalysis-2/maxwin/BulkDock/OUTPUTS/openbind_d68ev3c_c2_elabs_1LSYI5W.sdf']

$$$$
P95453
     RDKit          3D

 27 29  0  0  0  0  0  0  0  0999 V2000
   13.8599   -4.0572   17.5159 C   0  0  0  0  0  0  0  0  0  0  0  0
   13.4979   -2.7467   16.8732 C   0  0  0  0  0  0  0  0  0  0  0  0
   14.3342   -1.6199   16.9324 C   0  0  0  0  0  0  0  0  0  0  0  0
   15.5464   -1.6664   17.6186 N   0  0  0  0  0  0  0  0  0  0  0  0
   16.6590   -0.5782   17.7905 C   0  0  0  0  0  0  0  0  0  0  0  0
   16.7557    0.4899   17.3167 O   0  0  0  0  0  0  0  0  0  0  0  0
   17.7001   -1.0821   18.8110 C   0  0  0  0  0  0  0  0  0  0  0  0
   18.4727   -2.5521   18.1498 S   0  0  0  0  0  0  0  0  0  0  0  0
   17.4530   -3.5908   18.1333 O   0  0  0  0  0  0  0  0  0  0  0  0
   19.7213   -2.7875   18.8478 O   0  0  0  0  0  0  0  0  0  0  0  0
   18.8853   -2.2025   16.4535 C   0  0  0  0  0  0  0  0  0  0  0  0
   19.9627   -1.3602   16.1678 C   0  0  0  0  0  0  0  0  0  0  0  0
   20.2979   -1.1001   14.8377 C   0  0  0  0  0  0  0  0  0  0  0  0
   19.5700   -1.6959   13.8077 C   0  0  0  0  0  0  0  0  0  0  0  0
   20.0329   -1.3398   12.0101 Br  0  0  0  0  0  0  0  0  0  0  0  0
   18.5096   -2.5561   14.0922 C   0  0  0  0  0  0  0  0  0  0  0  0
   18.1655   -2.8165   15.4207 C   0  0  0  0  0  0  0  0  0  0  0  0
   18.7527    0.0167   19.1221 C   0  0  0  0  0  0  0  0  0  0  0  0
   18.2555    0.6823   20.3963 C   0  0  0  0  0  0  0  0  0  0  0  0
   17.7553   -0.4962   21.2054 C   0  0  0  0  0  0  0  0  0  0  0  0
   17.0253   -1.3596   20.1814 C   0  0  0  0  0  0  0  0  0  0  0  0
   13.9334   -0.4173   16.3377 C   0  0  0  0  0  0  0  0  0  0  0  0
   12.6778   -0.2926   15.7510 C   0  0  0  0  0  0  0  0  0  0  0  0
   11.8236   -1.3832   15.7381 C   0  0  0  0  0  0  0  0  0  0  0  0
   10.0446   -1.0997   15.1859 Br  0  0  0  0  0  0  0  0  0  0  0  0
   12.2517   -2.6097   16.2451 C   0  0  0  0  0  0  0  0  0  0  0  0
   11.4355   -3.6691   16.1861 F   0  0  0  0  0  0  0  0  0  0  0  0
  1  2  1  0
  2  3  2  0
  3  4  1  0
  4  5  1  0
  5  6  2  0
  5  7  1  0
  7  8  1  0
  8  9  2  0
  8 10  2  0
  8 11  1  0
 11 12  2  0
 12 13  1  0
 13 14  2  0
 14 15  1  0
 14 16  1  0
 16 17  2  0
  7 18  1  0
 18 19  1  0
 19 20  1  0
 20 21  1  0
  3 22  1  0
 22 23  2  0
 23 24  1  0
 24 25  1  0
 24 26  2  0
 26 27  1  0
 26  2  1  0
 21  7  1  0
 17 11  1  0
M  END
>  <ref_mols>  (1074) 
B1396a

>  <gnina_score>  (1074) 
5.658

>  <smina_score_min>  (1074) 
-4.285

>  <ref_pdb>  (1074) 
B1396a

>  <inspiration_score>  (1074) 
None

>  <inchikey>  (1074) 
KAYYUQCGAWZRJE-UHFFFAOYSA-N

>  <tags>  (1074) 
BulkDock Fragalysis export,openbind_d68ev3c_c2_elabs_scored,openbind_d68ev3c_c2_elabs_scored_4.5plus,openbind_d68ev3c_c2_elabs,openbind_d68ev3c_c2_elabs_scored_5plus,syndirella_product,openbind_d68ev3c_c2_elabs_scored_top80percent,syndirella_placed

>  <smiles>  (1074) 
Cc1c(NC(=O)C2(S(=O)(=O)c3ccc(Br)cc3)CCCC2)ccc(Br)c1F

>  <subsites>  (1074) 
None

>  <rmsd(smina/fragmenstein)>  (1074) 
3.651

>  <alias>  (1074) 
None

>  <energy_score>  (1074) 
-40.798057

>  <HIPPO Pose ID>  (1074) 
95453

>  <distance_score>  (1074) 
0.654945

>  <HIPPO Compound ID>  (1074) 
129336

>  <gnina_score_min>  (1074) 
5.258

>  <name>  (1074) 
P95453

>  <exports>  (1074) 
['/opt/xchem-fragalysis-2/maxwin/BulkDock/OUTPUTS/openbind_d68ev3c_c2_elabs_1LOTQJ3.sdf', '/opt/xchem-fragalysis-2/maxwin/BulkDock/OUTPUTS/openbind_d68ev3c_c2_elabs_1LSYI5W.sdf']

$$$$
P95455
     RDKit          3D

 27 29  0  0  0  0  0  0  0  0999 V2000
   14.2636   -5.0959   18.0035 N   0  0  0  0  0  0  0  0  0  0  0  0
   13.8926   -4.1111   17.5197 C   0  0  0  0  0  0  0  0  0  0  0  0
   13.4783   -2.8855   16.9059 C   0  0  0  0  0  0  0  0  0  0  0  0
   12.2337   -2.8454   16.2615 C   0  0  0  0  0  0  0  0  0  0  0  0
   11.7823   -1.6500   15.7080 C   0  0  0  0  0  0  0  0  0  0  0  0
   10.1860   -1.5142   15.1082 Cl  0  0  0  0  0  0  0  0  0  0  0  0
   12.5842   -0.5178   15.7173 C   0  0  0  0  0  0  0  0  0  0  0  0
   13.8353   -0.5636   16.3281 C   0  0  0  0  0  0  0  0  0  0  0  0
   14.2849   -1.7342   16.9483 C   0  0  0  0  0  0  0  0  0  0  0  0
   15.5121   -1.7216   17.6201 N   0  0  0  0  0  0  0  0  0  0  0  0
   16.5854   -0.5894   17.7543 C   0  0  0  0  0  0  0  0  0  0  0  0
   16.6353    0.4717   17.2582 O   0  0  0  0  0  0  0  0  0  0  0  0
   17.6564   -1.0287   18.7768 C   0  0  0  0  0  0  0  0  0  0  0  0
   18.4847   -2.4806   18.1440 S   0  0  0  0  0  0  0  0  0  0  0  0
   17.4964   -3.5474   18.1388 O   0  0  0  0  0  0  0  0  0  0  0  0
   19.7366   -2.6618   18.8518 O   0  0  0  0  0  0  0  0  0  0  0  0
   18.8944   -2.1533   16.4428 C   0  0  0  0  0  0  0  0  0  0  0  0
   18.2399   -2.8561   15.4228 C   0  0  0  0  0  0  0  0  0  0  0  0
   18.5846   -2.6169   14.0905 C   0  0  0  0  0  0  0  0  0  0  0  0
   19.5798   -1.6874   13.7895 C   0  0  0  0  0  0  0  0  0  0  0  0
   20.0439   -1.3601   11.9868 Br  0  0  0  0  0  0  0  0  0  0  0  0
   20.2446   -1.0033   14.8072 C   0  0  0  0  0  0  0  0  0  0  0  0
   19.9102   -1.2431   16.1414 C   0  0  0  0  0  0  0  0  0  0  0  0
   17.0019   -1.3050   20.1580 C   0  0  0  0  0  0  0  0  0  0  0  0
   17.7094   -0.3992   21.1606 C   0  0  0  0  0  0  0  0  0  0  0  0
   18.1536    0.7848   20.3275 C   0  0  0  0  0  0  0  0  0  0  0  0
   18.6642    0.1188   19.0588 C   0  0  0  0  0  0  0  0  0  0  0  0
  1  2  3  0
  2  3  1  0
  3  4  2  0
  4  5  1  0
  5  6  1  0
  5  7  2  0
  7  8  1  0
  8  9  2  0
  9 10  1  0
 10 11  1  0
 11 12  2  0
 11 13  1  0
 13 14  1  0
 14 15  2  0
 14 16  2  0
 14 17  1  0
 17 18  2  0
 18 19  1  0
 19 20  2  0
 20 21  1  0
 20 22  1  0
 22 23  2  0
 13 24  1  0
 24 25  1  0
 25 26  1  0
 26 27  1  0
  9  3  1  0
 27 13  1  0
 23 17  1  0
M  END
>  <ref_mols>  (1075) 
B1396a

>  <gnina_score>  (1075) 
5.707

>  <smina_score_min>  (1075) 
-3.04

>  <ref_pdb>  (1075) 
B1396a

>  <inspiration_score>  (1075) 
None

>  <inchikey>  (1075) 
RUQCHQUSLUGSHG-UHFFFAOYSA-N

>  <tags>  (1075) 
BulkDock Fragalysis export,openbind_d68ev3c_c2_elabs_scored,openbind_d68ev3c_c2_elabs_scored_4.5plus,openbind_d68ev3c_c2_elabs,openbind_d68ev3c_c2_elabs_scored_5plus,syndirella_product,openbind_d68ev3c_c2_elabs_scored_top80percent,syndirella_placed

>  <smiles>  (1075) 
N#Cc1cc(Cl)ccc1NC(=O)C1(S(=O)(=O)c2ccc(Br)cc2)CCCC1

>  <subsites>  (1075) 
None

>  <rmsd(smina/fragmenstein)>  (1075) 
1.393

>  <alias>  (1075) 
None

>  <energy_score>  (1075) 
-35.205939

>  <HIPPO Pose ID>  (1075) 
95455

>  <distance_score>  (1075) 
0.565294

>  <HIPPO Compound ID>  (1075) 
129338

>  <gnina_score_min>  (1075) 
5.469

>  <name>  (1075) 
P95455

>  <exports>  (1075) 
['/opt/xchem-fragalysis-2/maxwin/BulkDock/OUTPUTS/openbind_d68ev3c_c2_elabs_1LOTQJ3.sdf', '/opt/xchem-fragalysis-2/maxwin/BulkDock/OUTPUTS/openbind_d68ev3c_c2_elabs_1LSYI5W.sdf']

$$$$
P95457
     RDKit          3D

 27 30  0  0  0  0  0  0  0  0999 V2000
   16.5911    0.8044   16.5492 O   0  0  0  0  0  0  0  0  0  0  0  0
   16.5668   -0.1451   17.2347 C   0  0  0  0  0  0  0  0  0  0  0  0
   15.4964   -1.2728   17.3609 N   0  0  0  0  0  0  0  0  0  0  0  0
   14.3273   -1.5018   16.6272 C   0  0  0  0  0  0  0  0  0  0  0  0
   13.9187   -0.6364   15.6120 C   0  0  0  0  0  0  0  0  0  0  0  0
   12.7354   -0.8813   14.9097 C   0  0  0  0  0  0  0  0  0  0  0  0
   11.9641   -1.9990   15.2057 C   0  0  0  0  0  0  0  0  0  0  0  0
   12.3714   -2.8637   16.2205 C   0  0  0  0  0  0  0  0  0  0  0  0
   13.5476   -2.6309   16.9627 C   0  0  0  0  0  0  0  0  0  0  0  0
   13.9244   -3.5031   18.1357 C   0  0  0  0  0  0  0  0  0  0  0  0
   13.6183   -4.9623   18.1606 C   0  0  0  0  0  0  0  0  0  0  0  0
   15.0330   -4.5249   18.0191 C   0  0  0  0  0  0  0  0  0  0  0  0
   17.6688   -0.3831   18.3020 C   0  0  0  0  0  0  0  0  0  0  0  0
   18.4911   -1.9450   17.9924 S   0  0  0  0  0  0  0  0  0  0  0  0
   17.5232   -3.0083   18.1921 O   0  0  0  0  0  0  0  0  0  0  0  0
   19.7334   -1.9884   18.7415 O   0  0  0  0  0  0  0  0  0  0  0  0
   18.9254   -1.9299   16.2703 C   0  0  0  0  0  0  0  0  0  0  0  0
   18.1417   -2.6192   15.3388 C   0  0  0  0  0  0  0  0  0  0  0  0
   18.4993   -2.5873   13.9889 C   0  0  0  0  0  0  0  0  0  0  0  0
   19.6377   -1.8875   13.5875 C   0  0  0  0  0  0  0  0  0  0  0  0
   20.1160   -1.8443   11.7594 Br  0  0  0  0  0  0  0  0  0  0  0  0
   20.4304   -1.2235   14.5223 C   0  0  0  0  0  0  0  0  0  0  0  0
   20.0801   -1.2509   15.8717 C   0  0  0  0  0  0  0  0  0  0  0  0
   17.1120   -0.3223   19.7342 C   0  0  0  0  0  0  0  0  0  0  0  0
   16.9504    1.1659   20.0220 C   0  0  0  0  0  0  0  0  0  0  0  0
   18.0183    1.8696   19.1916 C   0  0  0  0  0  0  0  0  0  0  0  0
   18.6729    0.7891   18.3304 C   0  0  0  0  0  0  0  0  0  0  0  0
  1  2  2  0
  2  3  1  0
  3  4  1  0
  4  5  2  0
  5  6  1  0
  6  7  2  0
  7  8  1  0
  8  9  2  0
  9 10  1  0
 10 11  1  0
 11 12  1  0
  2 13  1  0
 13 14  1  0
 14 15  2  0
 14 16  2  0
 14 17  1  0
 17 18  2  0
 18 19  1  0
 19 20  2  0
 20 21  1  0
 20 22  1  0
 22 23  2  0
 13 24  1  0
 24 25  1  0
 25 26  1  0
 26 27  1  0
  9  4  1  0
 12 10  1  0
 27 13  1  0
 23 17  1  0
M  END
>  <ref_mols>  (1076) 
B1396a

>  <gnina_score>  (1076) 
5.314

>  <smina_score_min>  (1076) 
-3.773

>  <ref_pdb>  (1076) 
B1396a

>  <inspiration_score>  (1076) 
None

>  <inchikey>  (1076) 
NSSCACKNUDKJAL-UHFFFAOYSA-N

>  <tags>  (1076) 
BulkDock Fragalysis export,openbind_d68ev3c_c2_elabs_scored,openbind_d68ev3c_c2_elabs_scored_4.5plus,openbind_d68ev3c_c2_elabs,openbind_d68ev3c_c2_elabs_scored_5plus,syndirella_product,openbind_d68ev3c_c2_elabs_scored_top80percent,syndirella_placed

>  <smiles>  (1076) 
O=C(Nc1ccccc1C1CC1)C1(S(=O)(=O)c2ccc(Br)cc2)CCCC1

>  <subsites>  (1076) 
None

>  <rmsd(smina/fragmenstein)>  (1076) 
2.043

>  <alias>  (1076) 
None

>  <energy_score>  (1076) 
-41.217486

>  <HIPPO Pose ID>  (1076) 
95457

>  <distance_score>  (1076) 
0.730533

>  <HIPPO Compound ID>  (1076) 
129340

>  <gnina_score_min>  (1076) 
5.116

>  <name>  (1076) 
P95457

>  <exports>  (1076) 
['/opt/xchem-fragalysis-2/maxwin/BulkDock/OUTPUTS/openbind_d68ev3c_c2_elabs_1LOTQJ3.sdf', '/opt/xchem-fragalysis-2/maxwin/BulkDock/OUTPUTS/openbind_d68ev3c_c2_elabs_1LSYI5W.sdf']

$$$$
P95459
     RDKit          3D

 27 29  0  0  0  0  0  0  0  0999 V2000
   14.2326    0.9908   16.5879 C   0  0  0  0  0  0  0  0  0  0  0  0
   13.6716   -0.3984   16.4682 C   0  0  0  0  0  0  0  0  0  0  0  0
   12.4398   -0.4812   15.7935 C   0  0  0  0  0  0  0  0  0  0  0  0
   11.7467   -1.6760   15.7100 C   0  0  0  0  0  0  0  0  0  0  0  0
   10.1705   -1.6561   15.0525 Cl  0  0  0  0  0  0  0  0  0  0  0  0
   12.2766   -2.8334   16.2544 C   0  0  0  0  0  0  0  0  0  0  0  0
   13.5099   -2.7919   16.9272 C   0  0  0  0  0  0  0  0  0  0  0  0
   13.9973   -4.0777   17.5538 C   0  0  0  0  0  0  0  0  0  0  0  0
   14.2365   -1.5692   17.0180 C   0  0  0  0  0  0  0  0  0  0  0  0
   15.4662   -1.6288   17.7018 N   0  0  0  0  0  0  0  0  0  0  0  0
   16.6417   -0.5954   17.7725 C   0  0  0  0  0  0  0  0  0  0  0  0
   16.7924    0.4228   17.2106 O   0  0  0  0  0  0  0  0  0  0  0  0
   17.6762   -1.0736   18.8089 C   0  0  0  0  0  0  0  0  0  0  0  0
   18.4425   -2.5509   18.1799 S   0  0  0  0  0  0  0  0  0  0  0  0
   17.4249   -3.5905   18.1940 O   0  0  0  0  0  0  0  0  0  0  0  0
   19.6942   -2.7666   18.8801 O   0  0  0  0  0  0  0  0  0  0  0  0
   18.8549   -2.2314   16.4777 C   0  0  0  0  0  0  0  0  0  0  0  0
   19.9760   -1.4507   16.1816 C   0  0  0  0  0  0  0  0  0  0  0  0
   20.3111   -1.2042   14.8492 C   0  0  0  0  0  0  0  0  0  0  0  0
   19.5381   -1.7525   13.8264 C   0  0  0  0  0  0  0  0  0  0  0  0
   19.9972   -1.4134   12.0246 Br  0  0  0  0  0  0  0  0  0  0  0  0
   18.4332   -2.5518   14.1211 C   0  0  0  0  0  0  0  0  0  0  0  0
   18.0900   -2.8001   15.4526 C   0  0  0  0  0  0  0  0  0  0  0  0
   18.7102    0.0309   19.1132 C   0  0  0  0  0  0  0  0  0  0  0  0
   18.0322    0.9472   20.1315 C   0  0  0  0  0  0  0  0  0  0  0  0
   16.9377    0.1133   20.7894 C   0  0  0  0  0  0  0  0  0  0  0  0
   17.0721   -1.2890   20.2052 C   0  0  0  0  0  0  0  0  0  0  0  0
  1  2  1  0
  2  3  2  0
  3  4  1  0
  4  5  1  0
  4  6  2  0
  6  7  1  0
  7  8  1  0
  7  9  2  0
  9 10  1  0
 10 11  1  0
 11 12  2  0
 11 13  1  0
 13 14  1  0
 14 15  2  0
 14 16  2  0
 14 17  1  0
 17 18  2  0
 18 19  1  0
 19 20  2  0
 20 21  1  0
 20 22  1  0
 22 23  2  0
 13 24  1  0
 24 25  1  0
 25 26  1  0
 26 27  1  0
  9  2  1  0
 27 13  1  0
 23 17  1  0
M  END
>  <ref_mols>  (1077) 
B1396a

>  <gnina_score>  (1077) 
5.512

>  <smina_score_min>  (1077) 
-3.489

>  <ref_pdb>  (1077) 
B1396a

>  <inspiration_score>  (1077) 
None

>  <inchikey>  (1077) 
RLDYIZQUQCQTFY-UHFFFAOYSA-N

>  <tags>  (1077) 
BulkDock Fragalysis export,openbind_d68ev3c_c2_elabs_scored,openbind_d68ev3c_c2_elabs_scored_4.5plus,openbind_d68ev3c_c2_elabs,openbind_d68ev3c_c2_elabs_scored_5plus,syndirella_product,openbind_d68ev3c_c2_elabs_scored_top80percent,syndirella_placed

>  <smiles>  (1077) 
Cc1cc(Cl)cc(C)c1NC(=O)C1(S(=O)(=O)c2ccc(Br)cc2)CCCC1

>  <subsites>  (1077) 
None

>  <rmsd(smina/fragmenstein)>  (1077) 
2.15

>  <alias>  (1077) 
None

>  <energy_score>  (1077) 
-48.213985

>  <HIPPO Pose ID>  (1077) 
95459

>  <distance_score>  (1077) 
0.583838

>  <HIPPO Compound ID>  (1077) 
129342

>  <gnina_score_min>  (1077) 
5.338

>  <name>  (1077) 
P95459

>  <exports>  (1077) 
['/opt/xchem-fragalysis-2/maxwin/BulkDock/OUTPUTS/openbind_d68ev3c_c2_elabs_1LOTQJ3.sdf', '/opt/xchem-fragalysis-2/maxwin/BulkDock/OUTPUTS/openbind_d68ev3c_c2_elabs_1LSYI5W.sdf']

$$$$
P95460
     RDKit          3D

 27 29  0  0  0  0  0  0  0  0999 V2000
   13.9091   -3.9705   17.4490 C   0  0  0  0  0  0  0  0  0  0  0  0
   13.4591   -2.6505   16.8686 C   0  0  0  0  0  0  0  0  0  0  0  0
   12.2103   -2.6112   16.2168 C   0  0  0  0  0  0  0  0  0  0  0  0
   11.7042   -1.4022   15.7535 C   0  0  0  0  0  0  0  0  0  0  0  0
    9.9249   -1.2368   15.1642 Br  0  0  0  0  0  0  0  0  0  0  0  0
   12.4407   -0.2377   15.8747 C   0  0  0  0  0  0  0  0  0  0  0  0
   13.6780   -0.2531   16.5204 C   0  0  0  0  0  0  0  0  0  0  0  0
   14.2791    1.3254   16.8933 Cl  0  0  0  0  0  0  0  0  0  0  0  0
   14.2239   -1.4599   17.0048 C   0  0  0  0  0  0  0  0  0  0  0  0
   15.4579   -1.5590   17.6753 N   0  0  0  0  0  0  0  0  0  0  0  0
   16.6963   -0.5993   17.6730 C   0  0  0  0  0  0  0  0  0  0  0  0
   16.9010    0.3743   17.0528 O   0  0  0  0  0  0  0  0  0  0  0  0
   17.7084   -1.0688   18.7350 C   0  0  0  0  0  0  0  0  0  0  0  0
   18.4398   -2.5773   18.1439 S   0  0  0  0  0  0  0  0  0  0  0  0
   17.3924   -3.5871   18.1594 O   0  0  0  0  0  0  0  0  0  0  0  0
   19.6748   -2.8161   18.8659 O   0  0  0  0  0  0  0  0  0  0  0  0
   18.8833   -2.2917   16.4431 C   0  0  0  0  0  0  0  0  0  0  0  0
   18.1123   -2.8462   15.4152 C   0  0  0  0  0  0  0  0  0  0  0  0
   18.4685   -2.6073   14.0853 C   0  0  0  0  0  0  0  0  0  0  0  0
   19.5914   -1.8314   13.7957 C   0  0  0  0  0  0  0  0  0  0  0  0
   20.0673   -1.5050   11.9958 Br  0  0  0  0  0  0  0  0  0  0  0  0
   20.3704   -1.2983   14.8217 C   0  0  0  0  0  0  0  0  0  0  0  0
   20.0230   -1.5364   16.1523 C   0  0  0  0  0  0  0  0  0  0  0  0
   18.7673    0.0204   19.0108 C   0  0  0  0  0  0  0  0  0  0  0  0
   18.1036    0.9844   19.9937 C   0  0  0  0  0  0  0  0  0  0  0  0
   16.9931    0.1933   20.6768 C   0  0  0  0  0  0  0  0  0  0  0  0
   17.1016   -1.2290   20.1374 C   0  0  0  0  0  0  0  0  0  0  0  0
  1  2  1  0
  2  3  2  0
  3  4  1  0
  4  5  1  0
  4  6  2  0
  6  7  1  0
  7  8  1  0
  7  9  2  0
  9 10  1  0
 10 11  1  0
 11 12  2  0
 11 13  1  0
 13 14  1  0
 14 15  2  0
 14 16  2  0
 14 17  1  0
 17 18  2  0
 18 19  1  0
 19 20  2  0
 20 21  1  0
 20 22  1  0
 22 23  2  0
 13 24  1  0
 24 25  1  0
 25 26  1  0
 26 27  1  0
  9  2  1  0
 27 13  1  0
 23 17  1  0
M  END
>  <ref_mols>  (1078) 
B1396a

>  <gnina_score>  (1078) 
5.793

>  <smina_score_min>  (1078) 
-3.176

>  <ref_pdb>  (1078) 
B1396a

>  <inspiration_score>  (1078) 
None

>  <inchikey>  (1078) 
WWAKSGPWAARVLQ-UHFFFAOYSA-N

>  <tags>  (1078) 
BulkDock Fragalysis export,openbind_d68ev3c_c2_elabs_scored,openbind_d68ev3c_c2_elabs_scored_4.5plus,openbind_d68ev3c_c2_elabs,openbind_d68ev3c_c2_elabs_scored_5plus,syndirella_product,openbind_d68ev3c_c2_elabs_scored_top80percent,syndirella_placed

>  <smiles>  (1078) 
Cc1cc(Br)cc(Cl)c1NC(=O)C1(S(=O)(=O)c2ccc(Br)cc2)CCCC1

>  <subsites>  (1078) 
None

>  <rmsd(smina/fragmenstein)>  (1078) 
2.462

>  <alias>  (1078) 
None

>  <energy_score>  (1078) 
-27.526751

>  <HIPPO Pose ID>  (1078) 
95460

>  <distance_score>  (1078) 
0.62892

>  <HIPPO Compound ID>  (1078) 
129343

>  <gnina_score_min>  (1078) 
5.312

>  <name>  (1078) 
P95460

>  <exports>  (1078) 
['/opt/xchem-fragalysis-2/maxwin/BulkDock/OUTPUTS/openbind_d68ev3c_c2_elabs_1LOTQJ3.sdf', '/opt/xchem-fragalysis-2/maxwin/BulkDock/OUTPUTS/openbind_d68ev3c_c2_elabs_1LSYI5W.sdf']

$$$$
P95462
     RDKit          3D

 27 29  0  0  0  0  0  0  0  0999 V2000
   13.6528   -4.1647   17.5335 C   0  0  0  0  0  0  0  0  0  0  0  0
   13.2320   -2.9681   16.7217 C   0  0  0  0  0  0  0  0  0  0  0  0
   12.0591   -3.0461   15.9522 C   0  0  0  0  0  0  0  0  0  0  0  0
   11.6163   -1.9563   15.2014 C   0  0  0  0  0  0  0  0  0  0  0  0
   12.3479   -0.7689   15.2069 C   0  0  0  0  0  0  0  0  0  0  0  0
   11.8834    0.3646   14.4578 C   0  0  0  0  0  0  0  0  0  0  0  0
   11.4918    1.2875   13.8719 N   0  0  0  0  0  0  0  0  0  0  0  0
   13.5307   -0.6855   15.9538 C   0  0  0  0  0  0  0  0  0  0  0  0
   13.9766   -1.7767   16.7089 C   0  0  0  0  0  0  0  0  0  0  0  0
   15.1568   -1.6937   17.4503 N   0  0  0  0  0  0  0  0  0  0  0  0
   16.2223   -0.5527   17.5376 C   0  0  0  0  0  0  0  0  0  0  0  0
   16.3073    0.4530   16.9424 O   0  0  0  0  0  0  0  0  0  0  0  0
   17.2350   -0.9088   18.6420 C   0  0  0  0  0  0  0  0  0  0  0  0
   18.1790   -2.3426   18.1241 S   0  0  0  0  0  0  0  0  0  0  0  0
   19.4058   -2.4199   18.8949 O   0  0  0  0  0  0  0  0  0  0  0  0
   17.2658   -3.4756   18.1238 O   0  0  0  0  0  0  0  0  0  0  0  0
   18.6653   -2.0726   16.4304 C   0  0  0  0  0  0  0  0  0  0  0  0
   17.9372   -2.6652   15.3917 C   0  0  0  0  0  0  0  0  0  0  0  0
   18.3523   -2.4845   14.0696 C   0  0  0  0  0  0  0  0  0  0  0  0
   19.4959   -1.7332   13.7978 C   0  0  0  0  0  0  0  0  0  0  0  0
   20.0542   -1.4879   12.0089 Br  0  0  0  0  0  0  0  0  0  0  0  0
   20.2364   -1.1671   14.8346 C   0  0  0  0  0  0  0  0  0  0  0  0
   19.8280   -1.3456   16.1576 C   0  0  0  0  0  0  0  0  0  0  0  0
   18.1404    0.2936   18.9801 C   0  0  0  0  0  0  0  0  0  0  0  0
   18.5429    0.1436   20.4463 C   0  0  0  0  0  0  0  0  0  0  0  0
   17.5857   -0.8707   21.0555 C   0  0  0  0  0  0  0  0  0  0  0  0
   16.5309   -1.1411   19.9914 C   0  0  0  0  0  0  0  0  0  0  0  0
  1  2  1  0
  2  3  2  0
  3  4  1  0
  4  5  2  0
  5  6  1  0
  6  7  3  0
  5  8  1  0
  8  9  2  0
  9 10  1  0
 10 11  1  0
 11 12  2  0
 11 13  1  0
 13 14  1  0
 14 15  2  0
 14 16  2  0
 14 17  1  0
 17 18  2  0
 18 19  1  0
 19 20  2  0
 20 21  1  0
 20 22  1  0
 22 23  2  0
 13 24  1  0
 24 25  1  0
 25 26  1  0
 26 27  1  0
  9  2  1  0
 27 13  1  0
 23 17  1  0
M  END
>  <ref_mols>  (1079) 
B1396a

>  <gnina_score>  (1079) 
5.246

>  <smina_score_min>  (1079) 
-4.005

>  <ref_pdb>  (1079) 
B1396a

>  <inspiration_score>  (1079) 
None

>  <inchikey>  (1079) 
FDEAPZWWECGUSJ-UHFFFAOYSA-N

>  <tags>  (1079) 
BulkDock Fragalysis export,openbind_d68ev3c_c2_elabs_scored,openbind_d68ev3c_c2_elabs_scored_4.5plus,openbind_d68ev3c_c2_elabs,openbind_d68ev3c_c2_elabs_scored_5plus,syndirella_product,openbind_d68ev3c_c2_elabs_scored_top80percent,syndirella_placed

>  <smiles>  (1079) 
Cc1ccc(C#N)cc1NC(=O)C1(S(=O)(=O)c2ccc(Br)cc2)CCCC1

>  <subsites>  (1079) 
None

>  <rmsd(smina/fragmenstein)>  (1079) 
1.868

>  <alias>  (1079) 
None

>  <energy_score>  (1079) 
-39.774534

>  <HIPPO Pose ID>  (1079) 
95462

>  <distance_score>  (1079) 
0.417774

>  <HIPPO Compound ID>  (1079) 
129347

>  <gnina_score_min>  (1079) 
5.131

>  <name>  (1079) 
P95462

>  <exports>  (1079) 
['/opt/xchem-fragalysis-2/maxwin/BulkDock/OUTPUTS/openbind_d68ev3c_c2_elabs_1LOTQJ3.sdf', '/opt/xchem-fragalysis-2/maxwin/BulkDock/OUTPUTS/openbind_d68ev3c_c2_elabs_1LSYI5W.sdf']

$$$$
P95463
     RDKit          3D

 27 30  0  0  0  0  0  0  0  0999 V2000
   11.2620   -3.4706   15.1421 C   0  0  0  0  0  0  0  0  0  0  0  0
   11.9779   -2.2762   15.6570 C   0  0  0  0  0  0  0  0  0  0  0  0
   11.6715   -1.0219   15.1261 C   0  0  0  0  0  0  0  0  0  0  0  0
   12.4532    0.0852   15.4485 C   0  0  0  0  0  0  0  0  0  0  0  0
   13.5663   -0.0606   16.2773 C   0  0  0  0  0  0  0  0  0  0  0  0
   13.8773   -1.3093   16.8136 C   0  0  0  0  0  0  0  0  0  0  0  0
   13.0445   -2.3804   16.5419 C   0  0  0  0  0  0  0  0  0  0  0  0
   13.6186   -3.5330   17.2184 C   0  0  0  0  0  0  0  0  0  0  0  0
   14.9892   -2.9050   17.1192 C   0  0  0  0  0  0  0  0  0  0  0  0
   15.0738   -1.4240   17.6674 N   0  0  0  0  0  0  0  0  0  0  0  0
   16.4704   -0.8507   17.4954 C   0  0  0  0  0  0  0  0  0  0  0  0
   16.9420   -0.2473   16.5985 O   0  0  0  0  0  0  0  0  0  0  0  0
   17.3277   -1.1517   18.7382 C   0  0  0  0  0  0  0  0  0  0  0  0
   18.5130   -2.4375   18.3066 S   0  0  0  0  0  0  0  0  0  0  0  0
   17.8375   -3.7218   18.3965 O   0  0  0  0  0  0  0  0  0  0  0  0
   19.7288   -2.2405   19.0763 O   0  0  0  0  0  0  0  0  0  0  0  0
   18.9889   -2.2482   16.5964 C   0  0  0  0  0  0  0  0  0  0  0  0
   19.8418   -1.2018   16.2326 C   0  0  0  0  0  0  0  0  0  0  0  0
   20.2130   -1.0508   14.8948 C   0  0  0  0  0  0  0  0  0  0  0  0
   19.7551   -1.9584   13.9390 C   0  0  0  0  0  0  0  0  0  0  0  0
   20.2729   -1.7537   12.1326 Br  0  0  0  0  0  0  0  0  0  0  0  0
   18.9366   -3.0265   14.3069 C   0  0  0  0  0  0  0  0  0  0  0  0
   18.5531   -3.1774   15.6417 C   0  0  0  0  0  0  0  0  0  0  0  0
   18.0296    0.1526   19.1770 C   0  0  0  0  0  0  0  0  0  0  0  0
   16.9653    0.9032   19.9742 C   0  0  0  0  0  0  0  0  0  0  0  0
   16.0699   -0.1725   20.5828 C   0  0  0  0  0  0  0  0  0  0  0  0
   16.5796   -1.5037   20.0341 C   0  0  0  0  0  0  0  0  0  0  0  0
  1  2  1  0
  2  3  2  0
  3  4  1  0
  4  5  2  0
  5  6  1  0
  6  7  2  0
  7  8  1  0
  8  9  1  0
  9 10  1  0
 10 11  1  0
 11 12  2  0
 11 13  1  0
 13 14  1  0
 14 15  2  0
 14 16  2  0
 14 17  1  0
 17 18  2  0
 18 19  1  0
 19 20  2  0
 20 21  1  0
 20 22  1  0
 22 23  2  0
 13 24  1  0
 24 25  1  0
 25 26  1  0
 26 27  1  0
  7  2  1  0
 27 13  1  0
 10  6  1  0
 23 17  1  0
M  END
>  <ref_mols>  (1080) 
B1396a

>  <gnina_score>  (1080) 
5.155

>  <smina_score_min>  (1080) 
-4.056

>  <ref_pdb>  (1080) 
B1396a

>  <inspiration_score>  (1080) 
None

>  <inchikey>  (1080) 
VMLOYXANKXMTEV-UHFFFAOYSA-N

>  <tags>  (1080) 
BulkDock Fragalysis export,openbind_d68ev3c_c2_elabs_scored,openbind_d68ev3c_c2_elabs_scored_4.5plus,openbind_d68ev3c_c2_elabs,openbind_d68ev3c_c2_elabs_scored_5plus,syndirella_product,openbind_d68ev3c_c2_elabs_scored_top80percent,syndirella_placed

>  <smiles>  (1080) 
Cc1cccc2c1CCN2C(=O)C1(S(=O)(=O)c2ccc(Br)cc2)CCCC1

>  <subsites>  (1080) 
None

>  <rmsd(smina/fragmenstein)>  (1080) 
1.594

>  <alias>  (1080) 
None

>  <energy_score>  (1080) 
-7.476327

>  <HIPPO Pose ID>  (1080) 
95463

>  <distance_score>  (1080) 
0.653094

>  <HIPPO Compound ID>  (1080) 
129348

>  <gnina_score_min>  (1080) 
5.04

>  <name>  (1080) 
P95463

>  <exports>  (1080) 
['/opt/xchem-fragalysis-2/maxwin/BulkDock/OUTPUTS/openbind_d68ev3c_c2_elabs_1LOTQJ3.sdf', '/opt/xchem-fragalysis-2/maxwin/BulkDock/OUTPUTS/openbind_d68ev3c_c2_elabs_1LSYI5W.sdf']

$$$$
P95464
     RDKit          3D

 27 30  0  0  0  0  0  0  0  0999 V2000
   16.6907   -0.5758   16.2974 O   0  0  0  0  0  0  0  0  0  0  0  0
   16.2697   -1.0733   17.2803 C   0  0  0  0  0  0  0  0  0  0  0  0
   14.9184   -1.7150   17.5572 N   0  0  0  0  0  0  0  0  0  0  0  0
   14.9400   -3.2658   17.2320 C   0  0  0  0  0  0  0  0  0  0  0  0
   13.6197   -3.9718   17.4597 C   0  0  0  0  0  0  0  0  0  0  0  0
   12.9370   -2.9589   16.6725 C   0  0  0  0  0  0  0  0  0  0  0  0
   11.7984   -3.0584   15.8939 C   0  0  0  0  0  0  0  0  0  0  0  0
   11.3858   -1.9414   15.1719 C   0  0  0  0  0  0  0  0  0  0  0  0
   12.1332   -0.7625   15.2284 C   0  0  0  0  0  0  0  0  0  0  0  0
   11.6084    0.6154   14.3410 Cl  0  0  0  0  0  0  0  0  0  0  0  0
   13.2987   -0.6923   15.9941 C   0  0  0  0  0  0  0  0  0  0  0  0
   13.7118   -1.8133   16.7150 C   0  0  0  0  0  0  0  0  0  0  0  0
   17.1479   -1.1359   18.5372 C   0  0  0  0  0  0  0  0  0  0  0  0
   18.4603   -2.3521   18.2396 S   0  0  0  0  0  0  0  0  0  0  0  0
   17.8962   -3.6823   18.3998 O   0  0  0  0  0  0  0  0  0  0  0  0
   19.6308   -1.9964   19.0227 O   0  0  0  0  0  0  0  0  0  0  0  0
   18.9722   -2.2399   16.5307 C   0  0  0  0  0  0  0  0  0  0  0  0
   18.5588   -3.2147   15.6124 C   0  0  0  0  0  0  0  0  0  0  0  0
   18.9657   -3.1230   14.2790 C   0  0  0  0  0  0  0  0  0  0  0  0
   19.7867   -2.0695   13.8766 C   0  0  0  0  0  0  0  0  0  0  0  0
   20.3368   -1.9463   12.0725 Br  0  0  0  0  0  0  0  0  0  0  0  0
   20.2269   -1.1192   14.7979 C   0  0  0  0  0  0  0  0  0  0  0  0
   19.8324   -1.2113   16.1342 C   0  0  0  0  0  0  0  0  0  0  0  0
   16.4135   -1.4117   19.8608 C   0  0  0  0  0  0  0  0  0  0  0  0
   17.3186   -0.8425   20.9428 C   0  0  0  0  0  0  0  0  0  0  0  0
   17.9723    0.3773   20.3115 C   0  0  0  0  0  0  0  0  0  0  0  0
   17.7312    0.2699   18.8046 C   0  0  0  0  0  0  0  0  0  0  0  0
  1  2  2  0
  2  3  1  0
  3  4  1  0
  4  5  1  0
  5  6  1  0
  6  7  2  0
  7  8  1  0
  8  9  2  0
  9 10  1  0
  9 11  1  0
 11 12  2  0
  2 13  1  0
 13 14  1  0
 14 15  2  0
 14 16  2  0
 14 17  1  0
 17 18  2  0
 18 19  1  0
 19 20  2  0
 20 21  1  0
 20 22  1  0
 22 23  2  0
 13 24  1  0
 24 25  1  0
 25 26  1  0
 26 27  1  0
 12  3  1  0
 27 13  1  0
 12  6  1  0
 23 17  1  0
M  END
>  <ref_mols>  (1081) 
B1396a

>  <gnina_score>  (1081) 
5.391

>  <smina_score_min>  (1081) 
-4.086

>  <ref_pdb>  (1081) 
B1396a

>  <inspiration_score>  (1081) 
None

>  <inchikey>  (1081) 
ASQITMQNZSZZKI-UHFFFAOYSA-N

>  <tags>  (1081) 
BulkDock Fragalysis export,openbind_d68ev3c_c2_elabs_scored,openbind_d68ev3c_c2_elabs_scored_4.5plus,openbind_d68ev3c_c2_elabs,openbind_d68ev3c_c2_elabs_scored_5plus,syndirella_product,openbind_d68ev3c_c2_elabs_scored_top80percent,syndirella_placed

>  <smiles>  (1081) 
O=C(N1CCc2ccc(Cl)cc21)C1(S(=O)(=O)c2ccc(Br)cc2)CCCC1

>  <subsites>  (1081) 
None

>  <rmsd(smina/fragmenstein)>  (1081) 
1.786

>  <alias>  (1081) 
None

>  <energy_score>  (1081) 
-8.551066

>  <HIPPO Pose ID>  (1081) 
95464

>  <distance_score>  (1081) 
0.326209

>  <HIPPO Compound ID>  (1081) 
129349

>  <gnina_score_min>  (1081) 
5.158

>  <name>  (1081) 
P95464

>  <exports>  (1081) 
['/opt/xchem-fragalysis-2/maxwin/BulkDock/OUTPUTS/openbind_d68ev3c_c2_elabs_1LOTQJ3.sdf', '/opt/xchem-fragalysis-2/maxwin/BulkDock/OUTPUTS/openbind_d68ev3c_c2_elabs_1LSYI5W.sdf']

$$$$
P95465
     RDKit          3D

 27 29  0  0  0  0  0  0  0  0999 V2000
   16.3330    0.5689   16.9776 O   0  0  0  0  0  0  0  0  0  0  0  0
   16.2851   -0.4294   17.5888 C   0  0  0  0  0  0  0  0  0  0  0  0
   15.1880   -1.5434   17.6242 N   0  0  0  0  0  0  0  0  0  0  0  0
   14.0136   -1.6915   16.8666 C   0  0  0  0  0  0  0  0  0  0  0  0
   13.4702   -0.6536   16.0976 C   0  0  0  0  0  0  0  0  0  0  0  0
   14.0079    0.5714   16.0956 F   0  0  0  0  0  0  0  0  0  0  0  0
   12.3137   -0.8355   15.3388 C   0  0  0  0  0  0  0  0  0  0  0  0
   11.6718   -2.0663   15.3332 C   0  0  0  0  0  0  0  0  0  0  0  0
   12.1838   -3.1059   16.1070 C   0  0  0  0  0  0  0  0  0  0  0  0
   13.3448   -2.9354   16.8890 C   0  0  0  0  0  0  0  0  0  0  0  0
   13.8485   -4.1075   17.6929 C   0  0  0  0  0  0  0  0  0  0  0  0
   15.0484   -4.5751   17.1000 O   0  0  0  0  0  0  0  0  0  0  0  0
   17.3737   -0.7681   18.6360 C   0  0  0  0  0  0  0  0  0  0  0  0
   18.1915   -2.2894   18.1727 S   0  0  0  0  0  0  0  0  0  0  0  0
   17.2011   -3.3562   18.2502 O   0  0  0  0  0  0  0  0  0  0  0  0
   19.4162   -2.4216   18.9404 O   0  0  0  0  0  0  0  0  0  0  0  0
   18.6718   -2.1008   16.4704 C   0  0  0  0  0  0  0  0  0  0  0  0
   19.8499   -1.4069   16.1727 C   0  0  0  0  0  0  0  0  0  0  0  0
   20.2479   -1.2587   14.8433 C   0  0  0  0  0  0  0  0  0  0  0  0
   19.4779   -1.8168   13.8246 C   0  0  0  0  0  0  0  0  0  0  0  0
   20.0177   -1.6100   12.0252 Br  0  0  0  0  0  0  0  0  0  0  0  0
   18.3155   -2.5291   14.1221 C   0  0  0  0  0  0  0  0  0  0  0  0
   17.9111   -2.6831   15.4516 C   0  0  0  0  0  0  0  0  0  0  0  0
   18.3767    0.3935   18.7928 C   0  0  0  0  0  0  0  0  0  0  0  0
   17.7078    1.3840   19.7464 C   0  0  0  0  0  0  0  0  0  0  0  0
   16.6342    0.5997   20.4938 C   0  0  0  0  0  0  0  0  0  0  0  0
   16.8007   -0.8523   20.0601 C   0  0  0  0  0  0  0  0  0  0  0  0
  1  2  2  0
  2  3  1  0
  3  4  1  0
  4  5  2  0
  5  6  1  0
  5  7  1  0
  7  8  2  0
  8  9  1  0
  9 10  2  0
 10 11  1  0
 11 12  1  0
  2 13  1  0
 13 14  1  0
 14 15  2  0
 14 16  2  0
 14 17  1  0
 17 18  2  0
 18 19  1  0
 19 20  2  0
 20 21  1  0
 20 22  1  0
 22 23  2  0
 13 24  1  0
 24 25  1  0
 25 26  1  0
 26 27  1  0
 10  4  1  0
 27 13  1  0
 23 17  1  0
M  END
>  <ref_mols>  (1082) 
B1396a

>  <gnina_score>  (1082) 
5.057

>  <smina_score_min>  (1082) 
-3.54

>  <ref_pdb>  (1082) 
B1396a

>  <inspiration_score>  (1082) 
None

>  <inchikey>  (1082) 
RPTUXTAQFOILQS-UHFFFAOYSA-N

>  <tags>  (1082) 
BulkDock Fragalysis export,openbind_d68ev3c_c2_elabs_scored,openbind_d68ev3c_c2_elabs_scored_4.5plus,openbind_d68ev3c_c2_elabs,openbind_d68ev3c_c2_elabs_scored_5plus,syndirella_product,openbind_d68ev3c_c2_elabs_scored_top80percent,syndirella_placed

>  <smiles>  (1082) 
O=C(Nc1c(F)cccc1CO)C1(S(=O)(=O)c2ccc(Br)cc2)CCCC1

>  <subsites>  (1082) 
None

>  <rmsd(smina/fragmenstein)>  (1082) 
1.501

>  <alias>  (1082) 
None

>  <energy_score>  (1082) 
-52.08455

>  <HIPPO Pose ID>  (1082) 
95465

>  <distance_score>  (1082) 
0.448966

>  <HIPPO Compound ID>  (1082) 
129353

>  <gnina_score_min>  (1082) 
5.042

>  <name>  (1082) 
P95465

>  <exports>  (1082) 
['/opt/xchem-fragalysis-2/maxwin/BulkDock/OUTPUTS/openbind_d68ev3c_c2_elabs_1LOTQJ3.sdf', '/opt/xchem-fragalysis-2/maxwin/BulkDock/OUTPUTS/openbind_d68ev3c_c2_elabs_1LSYI5W.sdf']

$$$$
P95468
     RDKit          3D

 27 30  0  0  0  0  0  0  0  0999 V2000
   14.0494   -5.1489   17.5689 C   0  0  0  0  0  0  0  0  0  0  0  0
   13.8716   -3.6722   17.8075 C   0  0  1  0  0  0  0  0  0  0  0  0
   15.1544   -2.9463   17.4807 C   0  0  0  0  0  0  0  0  0  0  0  0
   15.0960   -1.3967   17.5563 N   0  0  0  0  0  0  0  0  0  0  0  0
   16.4282   -0.7752   17.1750 C   0  0  0  0  0  0  0  0  0  0  0  0
   16.8351   -0.4287   16.1238 O   0  0  0  0  0  0  0  0  0  0  0  0
   17.3636   -0.7187   18.4035 C   0  0  0  0  0  0  0  0  0  0  0  0
   18.6224   -2.0290   18.1856 S   0  0  0  0  0  0  0  0  0  0  0  0
   18.0202   -3.3238   18.4585 O   0  0  0  0  0  0  0  0  0  0  0  0
   19.8115   -1.6609   18.9341 O   0  0  0  0  0  0  0  0  0  0  0  0
   19.1086   -2.0691   16.4678 C   0  0  0  0  0  0  0  0  0  0  0  0
   19.9785   -1.0936   15.9739 C   0  0  0  0  0  0  0  0  0  0  0  0
   20.3390   -1.1120   14.6253 C   0  0  0  0  0  0  0  0  0  0  0  0
   19.8549   -2.1185   13.7895 C   0  0  0  0  0  0  0  0  0  0  0  0
   20.3584   -2.1424   11.9677 Br  0  0  0  0  0  0  0  0  0  0  0  0
   19.0244   -3.1205   14.2905 C   0  0  0  0  0  0  0  0  0  0  0  0
   18.6521   -3.1021   15.6366 C   0  0  0  0  0  0  0  0  0  0  0  0
   18.0238    0.6935   18.4383 C   0  0  0  0  0  0  0  0  0  0  0  0
   17.8236    1.2312   19.8511 C   0  0  0  0  0  0  0  0  0  0  0  0
   16.5434    0.5661   20.3078 C   0  0  0  0  0  0  0  0  0  0  0  0
   16.7175   -0.8577   19.8048 C   0  0  0  0  0  0  0  0  0  0  0  0
   13.8835   -1.6571   16.7422 C   0  0  0  0  0  0  0  0  0  0  0  0
   13.4237   -0.6665   15.8758 C   0  0  0  0  0  0  0  0  0  0  0  0
   12.2648   -0.8861   15.1236 C   0  0  0  0  0  0  0  0  0  0  0  0
   11.5695   -2.0946   15.2311 C   0  0  0  0  0  0  0  0  0  0  0  0
   12.0218   -3.0851   16.0998 C   0  0  0  0  0  0  0  0  0  0  0  0
   13.1588   -2.8379   16.8512 C   0  0  0  0  0  0  0  0  0  0  0  0
  2  1  1  6
  2  3  1  0
  3  4  1  0
  4  5  1  0
  5  6  2  0
  5  7  1  0
  7  8  1  0
  8  9  2  0
  8 10  2  0
  8 11  1  0
 11 12  2  0
 12 13  1  0
 13 14  2  0
 14 15  1  0
 14 16  1  0
 16 17  2  0
  7 18  1  0
 18 19  1  0
 19 20  1  0
 20 21  1  0
  4 22  1  0
 22 23  2  0
 23 24  1  0
 24 25  2  0
 25 26  1  0
 26 27  2  0
 27  2  1  0
 21  7  1  0
 27 22  1  0
 17 11  1  0
M  END
>  <ref_mols>  (1083) 
B1396a

>  <gnina_score>  (1083) 
5.262

>  <smina_score_min>  (1083) 
-3.697

>  <ref_pdb>  (1083) 
B1396a

>  <inspiration_score>  (1083) 
None

>  <inchikey>  (1083) 
XNGOMZMKEZTNMB-HNNXBMFYSA-N

>  <tags>  (1083) 
BulkDock Fragalysis export,openbind_d68ev3c_c2_elabs_scored,openbind_d68ev3c_c2_elabs_scored_4.5plus,openbind_d68ev3c_c2_elabs,openbind_d68ev3c_c2_elabs_scored_5plus,syndirella_product,openbind_d68ev3c_c2_elabs_scored_top80percent,syndirella_placed

>  <smiles>  (1083) 
C[C@H]1CN(C(=O)C2(S(=O)(=O)c3ccc(Br)cc3)CCCC2)c2ccccc21

>  <subsites>  (1083) 
None

>  <rmsd(smina/fragmenstein)>  (1083) 
1.22

>  <alias>  (1083) 
None

>  <energy_score>  (1083) 
-5.167076

>  <HIPPO Pose ID>  (1083) 
95468

>  <distance_score>  (1083) 
0.47883

>  <HIPPO Compound ID>  (1083) 
129355

>  <gnina_score_min>  (1083) 
5.044

>  <name>  (1083) 
P95468

>  <exports>  (1083) 
['/opt/xchem-fragalysis-2/maxwin/BulkDock/OUTPUTS/openbind_d68ev3c_c2_elabs_1LOTQJ3.sdf', '/opt/xchem-fragalysis-2/maxwin/BulkDock/OUTPUTS/openbind_d68ev3c_c2_elabs_1LSYI5W.sdf']

$$$$
P95469
     RDKit          3D

 27 29  0  0  0  0  0  0  0  0999 V2000
   16.9018    0.7694   17.9135 O   0  0  0  0  0  0  0  0  0  0  0  0
   16.7316   -0.3465   18.2313 C   0  0  0  0  0  0  0  0  0  0  0  0
   15.5144   -1.2981   17.9785 N   0  0  0  0  0  0  0  0  0  0  0  0
   14.3469   -1.1015   17.2287 C   0  0  0  0  0  0  0  0  0  0  0  0
   14.0470    0.2089   16.8299 C   0  0  0  0  0  0  0  0  0  0  0  0
   12.9679    0.4867   16.0043 C   0  0  0  0  0  0  0  0  0  0  0  0
   12.2219   -0.5583   15.5050 C   0  0  0  0  0  0  0  0  0  0  0  0
   12.5294   -1.8766   15.8678 C   0  0  0  0  0  0  0  0  0  0  0  0
   11.5448   -3.2280   14.6681 I   0  0  0  0  0  0  0  0  0  0  0  0
   13.5240   -2.1792   16.8262 C   0  0  0  0  0  0  0  0  0  0  0  0
   13.7975   -3.5708   17.3592 C   0  0  0  0  0  0  0  0  0  0  0  0
   12.6353   -4.3689   17.4440 O   0  0  0  0  0  0  0  0  0  0  0  0
   17.7716   -1.0699   19.1087 C   0  0  0  0  0  0  0  0  0  0  0  0
   18.3547   -2.5254   18.2650 S   0  0  0  0  0  0  0  0  0  0  0  0
   19.6104   -2.9403   18.8595 O   0  0  0  0  0  0  0  0  0  0  0  0
   17.2348   -3.4560   18.2298 O   0  0  0  0  0  0  0  0  0  0  0  0
   18.7178   -2.0933   16.5771 C   0  0  0  0  0  0  0  0  0  0  0  0
   19.8545   -1.3327   16.2912 C   0  0  0  0  0  0  0  0  0  0  0  0
   20.1815   -1.0557   14.9616 C   0  0  0  0  0  0  0  0  0  0  0  0
   19.3852   -1.5540   13.9303 C   0  0  0  0  0  0  0  0  0  0  0  0
   19.8370   -1.1760   12.1346 Br  0  0  0  0  0  0  0  0  0  0  0  0
   18.2618   -2.3303   14.2131 C   0  0  0  0  0  0  0  0  0  0  0  0
   17.9270   -2.6074   15.5410 C   0  0  0  0  0  0  0  0  0  0  0  0
   17.1974   -1.4202   20.4918 C   0  0  0  0  0  0  0  0  0  0  0  0
   17.2418   -0.1116   21.2722 C   0  0  0  0  0  0  0  0  0  0  0  0
   18.4145    0.6765   20.6986 C   0  0  0  0  0  0  0  0  0  0  0  0
   18.9274   -0.1262   19.5021 C   0  0  0  0  0  0  0  0  0  0  0  0
  1  2  2  0
  2  3  1  0
  3  4  1  0
  4  5  2  0
  5  6  1  0
  6  7  2  0
  7  8  1  0
  8  9  1  0
  8 10  2  0
 10 11  1  0
 11 12  1  0
  2 13  1  0
 13 14  1  0
 14 15  2  0
 14 16  2  0
 14 17  1  0
 17 18  2  0
 18 19  1  0
 19 20  2  0
 20 21  1  0
 20 22  1  0
 22 23  2  0
 13 24  1  0
 24 25  1  0
 25 26  1  0
 26 27  1  0
 10  4  1  0
 27 13  1  0
 23 17  1  0
M  END
>  <ref_mols>  (1084) 
B1396a

>  <gnina_score>  (1084) 
5.082

>  <smina_score_min>  (1084) 
-2.891

>  <ref_pdb>  (1084) 
B1396a

>  <inspiration_score>  (1084) 
None

>  <inchikey>  (1084) 
CAIDGAYXWUOMRC-UHFFFAOYSA-N

>  <tags>  (1084) 
BulkDock Fragalysis export,openbind_d68ev3c_c2_elabs_scored,openbind_d68ev3c_c2_elabs_scored_4.5plus,openbind_d68ev3c_c2_elabs,openbind_d68ev3c_c2_elabs_scored_5plus,syndirella_product,openbind_d68ev3c_c2_elabs_scored_top80percent,syndirella_placed

>  <smiles>  (1084) 
O=C(Nc1cccc(I)c1CO)C1(S(=O)(=O)c2ccc(Br)cc2)CCCC1

>  <subsites>  (1084) 
None

>  <rmsd(smina/fragmenstein)>  (1084) 
0.511

>  <alias>  (1084) 
None

>  <energy_score>  (1084) 
-24.306986

>  <HIPPO Pose ID>  (1084) 
95469

>  <distance_score>  (1084) 
1.078094

>  <HIPPO Compound ID>  (1084) 
129358

>  <gnina_score_min>  (1084) 
5.169

>  <name>  (1084) 
P95469

>  <exports>  (1084) 
['/opt/xchem-fragalysis-2/maxwin/BulkDock/OUTPUTS/openbind_d68ev3c_c2_elabs_1LOTQJ3.sdf', '/opt/xchem-fragalysis-2/maxwin/BulkDock/OUTPUTS/openbind_d68ev3c_c2_elabs_1LSYI5W.sdf']

$$$$
P95470
     RDKit          3D

 27 29  0  0  0  0  0  0  0  0999 V2000
    9.8633   -1.8202   15.0248 C   0  0  0  0  0  0  0  0  0  0  0  0
   11.2430   -3.0222   14.9689 S   0  0  0  0  0  0  0  0  0  0  0  0
   12.5639   -1.9620   15.5092 C   0  0  0  0  0  0  0  0  0  0  0  0
   12.6492   -0.7464   14.8136 C   0  0  0  0  0  0  0  0  0  0  0  0
   13.5564    0.2231   15.1802 C   0  0  0  0  0  0  0  0  0  0  0  0
   14.4450   -0.0441   16.2044 C   0  0  0  0  0  0  0  0  0  0  0  0
   14.4525   -1.2825   16.8564 C   0  0  0  0  0  0  0  0  0  0  0  0
   15.4684   -1.5102   17.7891 N   0  0  0  0  0  0  0  0  0  0  0  0
   16.6920   -0.6207   18.1970 C   0  0  0  0  0  0  0  0  0  0  0  0
   16.9844    0.4665   17.8668 O   0  0  0  0  0  0  0  0  0  0  0  0
   17.5874   -1.3889   19.1772 C   0  0  0  0  0  0  0  0  0  0  0  0
   18.3152   -2.7554   18.2999 S   0  0  0  0  0  0  0  0  0  0  0  0
   19.5843   -3.0903   18.9171 O   0  0  0  0  0  0  0  0  0  0  0  0
   17.2764   -3.7684   18.1893 O   0  0  0  0  0  0  0  0  0  0  0  0
   18.6989   -2.2364   16.6374 C   0  0  0  0  0  0  0  0  0  0  0  0
   19.7732   -1.3712   16.4150 C   0  0  0  0  0  0  0  0  0  0  0  0
   20.1139   -1.0194   15.1062 C   0  0  0  0  0  0  0  0  0  0  0  0
   19.3932   -1.5447   14.0331 C   0  0  0  0  0  0  0  0  0  0  0  0
   19.8628   -1.0633   12.2669 Br  0  0  0  0  0  0  0  0  0  0  0  0
   18.3319   -2.4220   14.2528 C   0  0  0  0  0  0  0  0  0  0  0  0
   17.9840   -2.7750   15.5591 C   0  0  0  0  0  0  0  0  0  0  0  0
   16.8433   -1.8415   20.4432 C   0  0  0  0  0  0  0  0  0  0  0  0
   16.7550   -0.5921   21.3151 C   0  0  0  0  0  0  0  0  0  0  0  0
   17.9368    0.2855   20.9153 C   0  0  0  0  0  0  0  0  0  0  0  0
   18.6578   -0.4642   19.7962 C   0  0  0  0  0  0  0  0  0  0  0  0
   13.4855   -2.2642   16.5404 C   0  0  0  0  0  0  0  0  0  0  0  0
   13.4760   -3.5819   17.2816 C   0  0  0  0  0  0  0  0  0  0  0  0
  1  2  1  0
  2  3  1  0
  3  4  2  0
  4  5  1  0
  5  6  2  0
  6  7  1  0
  7  8  1  0
  8  9  1  0
  9 10  2  0
  9 11  1  0
 11 12  1  0
 12 13  2  0
 12 14  2  0
 12 15  1  0
 15 16  2  0
 16 17  1  0
 17 18  2  0
 18 19  1  0
 18 20  1  0
 20 21  2  0
 11 22  1  0
 22 23  1  0
 23 24  1  0
 24 25  1  0
  7 26  2  0
 26 27  1  0
 26  3  1  0
 25 11  1  0
 21 15  1  0
M  END
>  <ref_mols>  (1085) 
B1396a

>  <gnina_score>  (1085) 
5.294

>  <smina_score_min>  (1085) 
-3.579

>  <ref_pdb>  (1085) 
B1396a

>  <inspiration_score>  (1085) 
None

>  <inchikey>  (1085) 
QVDJSYOTSMAADE-UHFFFAOYSA-N

>  <tags>  (1085) 
BulkDock Fragalysis export,openbind_d68ev3c_c2_elabs_scored,openbind_d68ev3c_c2_elabs_scored_4.5plus,openbind_d68ev3c_c2_elabs,openbind_d68ev3c_c2_elabs_scored_5plus,syndirella_product,openbind_d68ev3c_c2_elabs_scored_top80percent,syndirella_placed

>  <smiles>  (1085) 
CSc1cccc(NC(=O)C2(S(=O)(=O)c3ccc(Br)cc3)CCCC2)c1C

>  <subsites>  (1085) 
None

>  <rmsd(smina/fragmenstein)>  (1085) 
2.348

>  <alias>  (1085) 
None

>  <energy_score>  (1085) 
-28.290534

>  <HIPPO Pose ID>  (1085) 
95470

>  <distance_score>  (1085) 
1.067699

>  <HIPPO Compound ID>  (1085) 
129359

>  <gnina_score_min>  (1085) 
5.189

>  <name>  (1085) 
P95470

>  <exports>  (1085) 
['/opt/xchem-fragalysis-2/maxwin/BulkDock/OUTPUTS/openbind_d68ev3c_c2_elabs_1LOTQJ3.sdf', '/opt/xchem-fragalysis-2/maxwin/BulkDock/OUTPUTS/openbind_d68ev3c_c2_elabs_1LSYI5W.sdf']

$$$$
P95471
     RDKit          3D

 27 29  0  0  0  0  0  0  0  0999 V2000
   13.1549    0.5725   13.0057 C   0  0  0  0  0  0  0  0  0  0  0  0
   11.7653    0.4371   14.1650 S   0  0  0  0  0  0  0  0  0  0  0  0
   12.3725   -0.8930   15.1888 C   0  0  0  0  0  0  0  0  0  0  0  0
   11.6470   -2.0802   15.2534 C   0  0  0  0  0  0  0  0  0  0  0  0
   12.1057   -3.1336   16.0442 C   0  0  0  0  0  0  0  0  0  0  0  0
   13.2903   -3.0207   16.7884 C   0  0  0  0  0  0  0  0  0  0  0  0
   13.7374   -4.1887   17.6250 C   0  0  0  0  0  0  0  0  0  0  0  0
   14.0195   -1.8230   16.7231 C   0  0  0  0  0  0  0  0  0  0  0  0
   15.2099   -1.6986   17.4424 N   0  0  0  0  0  0  0  0  0  0  0  0
   16.2572   -0.5377   17.4789 C   0  0  0  0  0  0  0  0  0  0  0  0
   16.3155    0.4515   16.8531 O   0  0  0  0  0  0  0  0  0  0  0  0
   17.3001   -0.8438   18.5808 C   0  0  0  0  0  0  0  0  0  0  0  0
   18.2096   -2.3205   18.1171 S   0  0  0  0  0  0  0  0  0  0  0  0
   17.2689   -3.4302   18.1354 O   0  0  0  0  0  0  0  0  0  0  0  0
   19.4207   -2.4079   18.9114 O   0  0  0  0  0  0  0  0  0  0  0  0
   18.7183   -2.0896   16.4264 C   0  0  0  0  0  0  0  0  0  0  0  0
   19.8217   -1.2781   16.1472 C   0  0  0  0  0  0  0  0  0  0  0  0
   20.2336   -1.1073   14.8243 C   0  0  0  0  0  0  0  0  0  0  0  0
   19.5558   -1.7624   13.7966 C   0  0  0  0  0  0  0  0  0  0  0  0
   20.1143   -1.5239   12.0067 Br  0  0  0  0  0  0  0  0  0  0  0  0
   18.4729   -2.5957   14.0775 C   0  0  0  0  0  0  0  0  0  0  0  0
   18.0520   -2.7670   15.3985 C   0  0  0  0  0  0  0  0  0  0  0  0
   18.2620    0.3584   18.7869 C   0  0  0  0  0  0  0  0  0  0  0  0
   17.6935    1.1135   19.9787 C   0  0  0  0  0  0  0  0  0  0  0  0
   17.2601   -0.0089   20.8989 C   0  0  0  0  0  0  0  0  0  0  0  0
   16.6066   -1.0162   19.9589 C   0  0  0  0  0  0  0  0  0  0  0  0
   13.5527   -0.7667   15.9316 C   0  0  0  0  0  0  0  0  0  0  0  0
  1  2  1  0
  2  3  1  0
  3  4  2  0
  4  5  1  0
  5  6  2  0
  6  7  1  0
  6  8  1  0
  8  9  1  0
  9 10  1  0
 10 11  2  0
 10 12  1  0
 12 13  1  0
 13 14  2  0
 13 15  2  0
 13 16  1  0
 16 17  2  0
 17 18  1  0
 18 19  2  0
 19 20  1  0
 19 21  1  0
 21 22  2  0
 12 23  1  0
 23 24  1  0
 24 25  1  0
 25 26  1  0
  8 27  2  0
 27  3  1  0
 26 12  1  0
 22 16  1  0
M  END
>  <ref_mols>  (1086) 
B1396a

>  <gnina_score>  (1086) 
5.243

>  <smina_score_min>  (1086) 
-3.943

>  <ref_pdb>  (1086) 
B1396a

>  <inspiration_score>  (1086) 
None

>  <inchikey>  (1086) 
TYRANIXKEJGNMD-UHFFFAOYSA-N

>  <tags>  (1086) 
BulkDock Fragalysis export,openbind_d68ev3c_c2_elabs_scored,openbind_d68ev3c_c2_elabs_scored_4.5plus,openbind_d68ev3c_c2_elabs,openbind_d68ev3c_c2_elabs_scored_5plus,syndirella_product,openbind_d68ev3c_c2_elabs_scored_top80percent,syndirella_placed

>  <smiles>  (1086) 
CSc1ccc(C)c(NC(=O)C2(S(=O)(=O)c3ccc(Br)cc3)CCCC2)c1

>  <subsites>  (1086) 
None

>  <rmsd(smina/fragmenstein)>  (1086) 
1.954

>  <alias>  (1086) 
None

>  <energy_score>  (1086) 
-49.706485

>  <HIPPO Pose ID>  (1086) 
95471

>  <distance_score>  (1086) 
0.390995

>  <HIPPO Compound ID>  (1086) 
129360

>  <gnina_score_min>  (1086) 
5.315

>  <name>  (1086) 
P95471

>  <exports>  (1086) 
['/opt/xchem-fragalysis-2/maxwin/BulkDock/OUTPUTS/openbind_d68ev3c_c2_elabs_1LOTQJ3.sdf', '/opt/xchem-fragalysis-2/maxwin/BulkDock/OUTPUTS/openbind_d68ev3c_c2_elabs_1LSYI5W.sdf']

$$$$
P95473
     RDKit          3D

 27 29  0  0  0  0  0  0  0  0999 V2000
   15.7670   -5.7597   17.4194 C   0  0  0  0  0  0  0  0  0  0  0  0
   15.0889   -4.7064   18.7249 S   0  0  0  0  0  0  0  0  0  0  0  0
   13.5130   -4.2750   17.9821 C   0  0  0  0  0  0  0  0  0  0  0  0
   13.3951   -3.1718   16.9534 C   0  0  0  0  0  0  0  0  0  0  0  0
   12.2264   -3.2356   16.1523 C   0  0  0  0  0  0  0  0  0  0  0  0
   11.8802   -2.2315   15.2511 C   0  0  0  0  0  0  0  0  0  0  0  0
   12.6993   -1.1230   15.1334 C   0  0  0  0  0  0  0  0  0  0  0  0
   13.8624   -1.0370   15.9019 C   0  0  0  0  0  0  0  0  0  0  0  0
   14.2247   -2.0489   16.8073 C   0  0  0  0  0  0  0  0  0  0  0  0
   15.4011   -1.9045   17.5456 N   0  0  0  0  0  0  0  0  0  0  0  0
   16.4560   -0.7486   17.5597 C   0  0  0  0  0  0  0  0  0  0  0  0
   16.5337    0.2165   16.8978 O   0  0  0  0  0  0  0  0  0  0  0  0
   17.5077   -1.0165   18.6596 C   0  0  0  0  0  0  0  0  0  0  0  0
   18.6027   -2.3187   18.0778 S   0  0  0  0  0  0  0  0  0  0  0  0
   17.8774   -3.5729   18.1057 O   0  0  0  0  0  0  0  0  0  0  0  0
   19.8690   -2.2334   18.7819 O   0  0  0  0  0  0  0  0  0  0  0  0
   18.9476   -1.9942   16.3617 C   0  0  0  0  0  0  0  0  0  0  0  0
   18.3340   -2.7761   15.3734 C   0  0  0  0  0  0  0  0  0  0  0  0
   18.6457   -2.5609   14.0304 C   0  0  0  0  0  0  0  0  0  0  0  0
   19.5680   -1.5731   13.6876 C   0  0  0  0  0  0  0  0  0  0  0  0
   19.9854   -1.2737   11.8682 Br  0  0  0  0  0  0  0  0  0  0  0  0
   20.1911   -0.8067   14.6739 C   0  0  0  0  0  0  0  0  0  0  0  0
   19.8889   -1.0223   16.0197 C   0  0  0  0  0  0  0  0  0  0  0  0
   18.3219    0.2821   18.9597 C   0  0  0  0  0  0  0  0  0  0  0  0
   17.7444    0.8259   20.2580 C   0  0  0  0  0  0  0  0  0  0  0  0
   17.4819   -0.4350   21.0524 C   0  0  0  0  0  0  0  0  0  0  0  0
   16.8639   -1.3742   20.0243 C   0  0  0  0  0  0  0  0  0  0  0  0
  1  2  1  0
  2  3  1  0
  3  4  1  0
  4  5  2  0
  5  6  1  0
  6  7  2  0
  7  8  1  0
  8  9  2  0
  9 10  1  0
 10 11  1  0
 11 12  2  0
 11 13  1  0
 13 14  1  0
 14 15  2  0
 14 16  2  0
 14 17  1  0
 17 18  2  0
 18 19  1  0
 19 20  2  0
 20 21  1  0
 20 22  1  0
 22 23  2  0
 13 24  1  0
 24 25  1  0
 25 26  1  0
 26 27  1  0
  9  4  1  0
 27 13  1  0
 23 17  1  0
M  END
>  <ref_mols>  (1087) 
B1396a

>  <gnina_score>  (1087) 
5.089

>  <smina_score_min>  (1087) 
-2.642

>  <ref_pdb>  (1087) 
B1396a

>  <inspiration_score>  (1087) 
None

>  <inchikey>  (1087) 
NSYFLXRGBAQSCI-UHFFFAOYSA-N

>  <tags>  (1087) 
BulkDock Fragalysis export,openbind_d68ev3c_c2_elabs_scored,openbind_d68ev3c_c2_elabs_scored_4.5plus,openbind_d68ev3c_c2_elabs,openbind_d68ev3c_c2_elabs_scored_5plus,syndirella_product,openbind_d68ev3c_c2_elabs_scored_top80percent,syndirella_placed

>  <smiles>  (1087) 
CSCc1ccccc1NC(=O)C1(S(=O)(=O)c2ccc(Br)cc2)CCCC1

>  <subsites>  (1087) 
None

>  <rmsd(smina/fragmenstein)>  (1087) 
2.259

>  <alias>  (1087) 
None

>  <energy_score>  (1087) 
-26.467329

>  <HIPPO Pose ID>  (1087) 
95473

>  <distance_score>  (1087) 
0.496717

>  <HIPPO Compound ID>  (1087) 
129363

>  <gnina_score_min>  (1087) 
5.078

>  <name>  (1087) 
P95473

>  <exports>  (1087) 
['/opt/xchem-fragalysis-2/maxwin/BulkDock/OUTPUTS/openbind_d68ev3c_c2_elabs_1LOTQJ3.sdf', '/opt/xchem-fragalysis-2/maxwin/BulkDock/OUTPUTS/openbind_d68ev3c_c2_elabs_1LSYI5W.sdf']

$$$$
P95474
     RDKit          3D

 27 29  0  0  0  0  0  0  0  0999 V2000
   14.1200   -4.9899   18.3648 N   0  0  0  0  0  0  0  0  0  0  0  0
   13.7296   -4.1300   17.6941 C   0  0  0  0  0  0  0  0  0  0  0  0
   13.3148   -3.0306   16.8749 C   0  0  0  0  0  0  0  0  0  0  0  0
   12.1549   -3.1642   16.0975 C   0  0  0  0  0  0  0  0  0  0  0  0
   11.7235   -2.1189   15.2824 C   0  0  0  0  0  0  0  0  0  0  0  0
   12.4607   -0.9394   15.2423 C   0  0  0  0  0  0  0  0  0  0  0  0
   11.8746    0.4823   14.1422 Br  0  0  0  0  0  0  0  0  0  0  0  0
   13.6264   -0.7976   16.0015 C   0  0  0  0  0  0  0  0  0  0  0  0
   14.0633   -1.8415   16.8252 C   0  0  0  0  0  0  0  0  0  0  0  0
   15.2224   -1.6976   17.6025 N   0  0  0  0  0  0  0  0  0  0  0  0
   16.2679   -0.5358   17.6605 C   0  0  0  0  0  0  0  0  0  0  0  0
   16.2744    0.5064   17.1246 O   0  0  0  0  0  0  0  0  0  0  0  0
   17.3602   -0.8997   18.6881 C   0  0  0  0  0  0  0  0  0  0  0  0
   18.2781   -2.3233   18.1063 S   0  0  0  0  0  0  0  0  0  0  0  0
   19.5358   -2.4126   18.8240 O   0  0  0  0  0  0  0  0  0  0  0  0
   17.3646   -3.4537   18.1221 O   0  0  0  0  0  0  0  0  0  0  0  0
   18.6964   -2.0294   16.3994 C   0  0  0  0  0  0  0  0  0  0  0  0
   17.9389   -2.6240   15.3831 C   0  0  0  0  0  0  0  0  0  0  0  0
   18.3097   -2.4370   14.0490 C   0  0  0  0  0  0  0  0  0  0  0  0
   19.4391   -1.6776   13.7426 C   0  0  0  0  0  0  0  0  0  0  0  0
   19.9373   -1.4236   11.9372 Br  0  0  0  0  0  0  0  0  0  0  0  0
   20.2098   -1.1102   14.7564 C   0  0  0  0  0  0  0  0  0  0  0  0
   19.8458   -1.2955   16.0911 C   0  0  0  0  0  0  0  0  0  0  0  0
   18.2774    0.3071   18.9799 C   0  0  0  0  0  0  0  0  0  0  0  0
   18.7815    0.1427   20.4123 C   0  0  0  0  0  0  0  0  0  0  0  0
   17.8608   -0.8684   21.0798 C   0  0  0  0  0  0  0  0  0  0  0  0
   16.7463   -1.1464   20.0798 C   0  0  0  0  0  0  0  0  0  0  0  0
  1  2  3  0
  2  3  1  0
  3  4  2  0
  4  5  1  0
  5  6  2  0
  6  7  1  0
  6  8  1  0
  8  9  2  0
  9 10  1  0
 10 11  1  0
 11 12  2  0
 11 13  1  0
 13 14  1  0
 14 15  2  0
 14 16  2  0
 14 17  1  0
 17 18  2  0
 18 19  1  0
 19 20  2  0
 20 21  1  0
 20 22  1  0
 22 23  2  0
 13 24  1  0
 24 25  1  0
 25 26  1  0
 26 27  1  0
  9  3  1  0
 27 13  1  0
 23 17  1  0
M  END
>  <ref_mols>  (1088) 
B1396a

>  <gnina_score>  (1088) 
5.435

>  <smina_score_min>  (1088) 
-3.779

>  <ref_pdb>  (1088) 
B1396a

>  <inspiration_score>  (1088) 
None

>  <inchikey>  (1088) 
IBJPJIVZQNVOJV-UHFFFAOYSA-N

>  <tags>  (1088) 
BulkDock Fragalysis export,openbind_d68ev3c_c2_elabs_scored,openbind_d68ev3c_c2_elabs_scored_4.5plus,openbind_d68ev3c_c2_elabs,openbind_d68ev3c_c2_elabs_scored_5plus,syndirella_product,openbind_d68ev3c_c2_elabs_scored_top80percent,syndirella_placed

>  <smiles>  (1088) 
N#Cc1ccc(Br)cc1NC(=O)C1(S(=O)(=O)c2ccc(Br)cc2)CCCC1

>  <subsites>  (1088) 
None

>  <rmsd(smina/fragmenstein)>  (1088) 
1.499

>  <alias>  (1088) 
None

>  <energy_score>  (1088) 
-27.052777

>  <HIPPO Pose ID>  (1088) 
95474

>  <distance_score>  (1088) 
0.452502

>  <HIPPO Compound ID>  (1088) 
129364

>  <gnina_score_min>  (1088) 
5.422

>  <name>  (1088) 
P95474

>  <exports>  (1088) 
['/opt/xchem-fragalysis-2/maxwin/BulkDock/OUTPUTS/openbind_d68ev3c_c2_elabs_1LOTQJ3.sdf', '/opt/xchem-fragalysis-2/maxwin/BulkDock/OUTPUTS/openbind_d68ev3c_c2_elabs_1LSYI5W.sdf']

$$$$
P95475
     RDKit          3D

 27 29  0  0  0  0  0  0  0  0999 V2000
   14.1898   -4.9663   18.1530 N   0  0  0  0  0  0  0  0  0  0  0  0
   13.7980   -4.0559   17.5525 C   0  0  0  0  0  0  0  0  0  0  0  0
   13.4061   -2.8923   16.8210 C   0  0  0  0  0  0  0  0  0  0  0  0
   12.2295   -2.9288   16.0742 C   0  0  0  0  0  0  0  0  0  0  0  0
   11.4916   -4.0401   16.0499 F   0  0  0  0  0  0  0  0  0  0  0  0
   11.7891   -1.8337   15.3399 C   0  0  0  0  0  0  0  0  0  0  0  0
   12.5477   -0.6711   15.3456 C   0  0  0  0  0  0  0  0  0  0  0  0
   13.7429   -0.6212   16.0723 C   0  0  0  0  0  0  0  0  0  0  0  0
   14.1853   -1.7273   16.8109 C   0  0  0  0  0  0  0  0  0  0  0  0
   15.3994   -1.6679   17.5099 N   0  0  0  0  0  0  0  0  0  0  0  0
   16.4133   -0.4908   17.6841 C   0  0  0  0  0  0  0  0  0  0  0  0
   16.4230    0.5793   17.2062 O   0  0  0  0  0  0  0  0  0  0  0  0
   17.4846   -0.8914   18.7265 C   0  0  0  0  0  0  0  0  0  0  0  0
   18.3631   -2.3366   18.1552 S   0  0  0  0  0  0  0  0  0  0  0  0
   19.6141   -2.4539   18.8799 O   0  0  0  0  0  0  0  0  0  0  0  0
   17.4131   -3.4364   18.1802 O   0  0  0  0  0  0  0  0  0  0  0  0
   18.7908   -2.0562   16.4509 C   0  0  0  0  0  0  0  0  0  0  0  0
   19.8190   -1.1617   16.1419 C   0  0  0  0  0  0  0  0  0  0  0  0
   20.1832   -0.9659   14.8086 C   0  0  0  0  0  0  0  0  0  0  0  0
   19.5352   -1.6781   13.7997 C   0  0  0  0  0  0  0  0  0  0  0  0
   20.0384   -1.4114   11.9975 Br  0  0  0  0  0  0  0  0  0  0  0  0
   18.5278   -2.5919   14.1093 C   0  0  0  0  0  0  0  0  0  0  0  0
   18.1541   -2.7883   15.4411 C   0  0  0  0  0  0  0  0  0  0  0  0
   18.4390    0.2836   19.0261 C   0  0  0  0  0  0  0  0  0  0  0  0
   17.7136    1.1531   20.0539 C   0  0  0  0  0  0  0  0  0  0  0  0
   16.6378    0.2713   20.6779 C   0  0  0  0  0  0  0  0  0  0  0  0
   16.8687   -1.1267   20.1163 C   0  0  0  0  0  0  0  0  0  0  0  0
  1  2  3  0
  2  3  1  0
  3  4  2  0
  4  5  1  0
  4  6  1  0
  6  7  2  0
  7  8  1  0
  8  9  2  0
  9 10  1  0
 10 11  1  0
 11 12  2  0
 11 13  1  0
 13 14  1  0
 14 15  2  0
 14 16  2  0
 14 17  1  0
 17 18  2  0
 18 19  1  0
 19 20  2  0
 20 21  1  0
 20 22  1  0
 22 23  2  0
 13 24  1  0
 24 25  1  0
 25 26  1  0
 26 27  1  0
  9  3  1  0
 27 13  1  0
 23 17  1  0
M  END
>  <ref_mols>  (1089) 
B1396a

>  <gnina_score>  (1089) 
5.404

>  <smina_score_min>  (1089) 
-3.885

>  <ref_pdb>  (1089) 
B1396a

>  <inspiration_score>  (1089) 
None

>  <inchikey>  (1089) 
PEKNLYKTOMWJAY-UHFFFAOYSA-N

>  <tags>  (1089) 
BulkDock Fragalysis export,openbind_d68ev3c_c2_elabs_scored,openbind_d68ev3c_c2_elabs_scored_4.5plus,openbind_d68ev3c_c2_elabs,openbind_d68ev3c_c2_elabs_scored_5plus,syndirella_product,openbind_d68ev3c_c2_elabs_scored_top80percent,syndirella_placed

>  <smiles>  (1089) 
N#Cc1c(F)cccc1NC(=O)C1(S(=O)(=O)c2ccc(Br)cc2)CCCC1

>  <subsites>  (1089) 
None

>  <rmsd(smina/fragmenstein)>  (1089) 
2.519

>  <alias>  (1089) 
None

>  <energy_score>  (1089) 
-38.000543

>  <HIPPO Pose ID>  (1089) 
95475

>  <distance_score>  (1089) 
0.506371

>  <HIPPO Compound ID>  (1089) 
129365

>  <gnina_score_min>  (1089) 
5.327

>  <name>  (1089) 
P95475

>  <exports>  (1089) 
['/opt/xchem-fragalysis-2/maxwin/BulkDock/OUTPUTS/openbind_d68ev3c_c2_elabs_1LOTQJ3.sdf', '/opt/xchem-fragalysis-2/maxwin/BulkDock/OUTPUTS/openbind_d68ev3c_c2_elabs_1LSYI5W.sdf']

$$$$
P95476
     RDKit          3D

 27 29  0  0  0  0  0  0  0  0999 V2000
   13.6628    1.8157   17.0806 C   0  0  0  0  0  0  0  0  0  0  0  0
   14.0751    1.0066   15.5187 S   0  0  0  0  0  0  0  0  0  0  0  0
   13.4771   -0.6461   15.8488 C   0  0  0  0  0  0  0  0  0  0  0  0
   12.3086   -0.9305   15.1048 C   0  0  0  0  0  0  0  0  0  0  0  0
   11.6489   -2.1466   15.2068 C   0  0  0  0  0  0  0  0  0  0  0  0
   12.1507   -3.1107   16.0611 C   0  0  0  0  0  0  0  0  0  0  0  0
   13.3133   -2.8739   16.8176 C   0  0  0  0  0  0  0  0  0  0  0  0
   13.7849   -4.0093   17.6994 C   0  0  0  0  0  0  0  0  0  0  0  0
   14.0095   -1.6309   16.7164 C   0  0  0  0  0  0  0  0  0  0  0  0
   15.1602   -1.5298   17.5433 N   0  0  0  0  0  0  0  0  0  0  0  0
   16.3515   -0.5110   17.5093 C   0  0  0  0  0  0  0  0  0  0  0  0
   16.5186    0.4393   16.8439 O   0  0  0  0  0  0  0  0  0  0  0  0
   17.3576   -0.8774   18.6185 C   0  0  0  0  0  0  0  0  0  0  0  0
   18.2078   -2.3757   18.1043 S   0  0  0  0  0  0  0  0  0  0  0  0
   17.2321   -3.4543   18.1261 O   0  0  0  0  0  0  0  0  0  0  0  0
   19.4293   -2.5114   18.8767 O   0  0  0  0  0  0  0  0  0  0  0  0
   18.6952   -2.1457   16.4054 C   0  0  0  0  0  0  0  0  0  0  0  0
   19.9202   -1.5366   16.1167 C   0  0  0  0  0  0  0  0  0  0  0  0
   20.3121   -1.3689   14.7876 C   0  0  0  0  0  0  0  0  0  0  0  0
   19.4914   -1.8301   13.7594 C   0  0  0  0  0  0  0  0  0  0  0  0
   20.0256   -1.5967   11.9616 Br  0  0  0  0  0  0  0  0  0  0  0  0
   18.2839   -2.4670   14.0463 C   0  0  0  0  0  0  0  0  0  0  0  0
   17.8856   -2.6373   15.3749 C   0  0  0  0  0  0  0  0  0  0  0  0
   16.6816   -1.0718   20.0050 C   0  0  0  0  0  0  0  0  0  0  0  0
   17.2540   -0.0022   20.9302 C   0  0  0  0  0  0  0  0  0  0  0  0
   18.6242    0.2873   20.3597 C   0  0  0  0  0  0  0  0  0  0  0  0
   18.3668    0.2779   18.8604 C   0  0  0  0  0  0  0  0  0  0  0  0
  1  2  1  0
  2  3  1  0
  3  4  2  0
  4  5  1  0
  5  6  2  0
  6  7  1  0
  7  8  1  0
  7  9  2  0
  9 10  1  0
 10 11  1  0
 11 12  2  0
 11 13  1  0
 13 14  1  0
 14 15  2  0
 14 16  2  0
 14 17  1  0
 17 18  2  0
 18 19  1  0
 19 20  2  0
 20 21  1  0
 20 22  1  0
 22 23  2  0
 13 24  1  0
 24 25  1  0
 25 26  1  0
 26 27  1  0
  9  3  1  0
 27 13  1  0
 23 17  1  0
M  END
>  <ref_mols>  (1090) 
B1396a

>  <gnina_score>  (1090) 
5.234

>  <smina_score_min>  (1090) 
-3.993

>  <ref_pdb>  (1090) 
B1396a

>  <inspiration_score>  (1090) 
None

>  <inchikey>  (1090) 
YCVXHPLCHGIZST-UHFFFAOYSA-N

>  <tags>  (1090) 
BulkDock Fragalysis export,openbind_d68ev3c_c2_elabs_scored,openbind_d68ev3c_c2_elabs_scored_4.5plus,openbind_d68ev3c_c2_elabs,openbind_d68ev3c_c2_elabs_scored_5plus,syndirella_product,openbind_d68ev3c_c2_elabs_scored_top80percent,syndirella_placed

>  <smiles>  (1090) 
CSc1cccc(C)c1NC(=O)C1(S(=O)(=O)c2ccc(Br)cc2)CCCC1

>  <subsites>  (1090) 
None

>  <rmsd(smina/fragmenstein)>  (1090) 
2.699

>  <alias>  (1090) 
None

>  <energy_score>  (1090) 
-30.903001

>  <HIPPO Pose ID>  (1090) 
95476

>  <distance_score>  (1090) 
0.452405

>  <HIPPO Compound ID>  (1090) 
129366

>  <gnina_score_min>  (1090) 
5.149

>  <name>  (1090) 
P95476

>  <exports>  (1090) 
['/opt/xchem-fragalysis-2/maxwin/BulkDock/OUTPUTS/openbind_d68ev3c_c2_elabs_1LOTQJ3.sdf', '/opt/xchem-fragalysis-2/maxwin/BulkDock/OUTPUTS/openbind_d68ev3c_c2_elabs_1LSYI5W.sdf']

$$$$
P95477
     RDKit          3D

 27 29  0  0  0  0  0  0  0  0999 V2000
   13.5320   -4.8732   17.8895 C   0  0  0  0  0  0  0  0  0  0  0  0
   14.4014   -3.6872   17.5944 C   0  0  0  0  0  0  0  0  0  0  0  0
   13.7865   -2.4752   16.9296 C   0  0  0  0  0  0  0  0  0  0  0  0
   12.4967   -2.4875   16.3704 C   0  0  0  0  0  0  0  0  0  0  0  0
   11.9867   -1.3348   15.7696 C   0  0  0  0  0  0  0  0  0  0  0  0
   10.1935   -1.2450   15.2026 Br  0  0  0  0  0  0  0  0  0  0  0  0
   12.7658   -0.1916   15.6460 C   0  0  0  0  0  0  0  0  0  0  0  0
   14.0545   -0.1734   16.1709 C   0  0  0  0  0  0  0  0  0  0  0  0
   14.5561   -1.2906   16.8349 C   0  0  0  0  0  0  0  0  0  0  0  0
   15.8102   -1.2539   17.4471 N   0  0  0  0  0  0  0  0  0  0  0  0
   16.8720   -0.1141   17.5119 C   0  0  0  0  0  0  0  0  0  0  0  0
   16.8881    0.9375   16.9970 O   0  0  0  0  0  0  0  0  0  0  0  0
   17.9688   -0.5354   18.5222 C   0  0  0  0  0  0  0  0  0  0  0  0
   18.6564   -2.1258   18.0589 S   0  0  0  0  0  0  0  0  0  0  0  0
   19.9169   -2.3201   18.7488 O   0  0  0  0  0  0  0  0  0  0  0  0
   17.6060   -3.1215   18.2163 O   0  0  0  0  0  0  0  0  0  0  0  0
   19.0279   -2.0134   16.3242 C   0  0  0  0  0  0  0  0  0  0  0  0
   20.1458   -1.2806   15.9179 C   0  0  0  0  0  0  0  0  0  0  0  0
   20.4444   -1.1783   14.5592 C   0  0  0  0  0  0  0  0  0  0  0  0
   19.6390   -1.8231   13.6215 C   0  0  0  0  0  0  0  0  0  0  0  0
   20.0495   -1.6793   11.7822 Br  0  0  0  0  0  0  0  0  0  0  0  0
   18.5390   -2.5780   14.0285 C   0  0  0  0  0  0  0  0  0  0  0  0
   18.2321   -2.6823   15.3872 C   0  0  0  0  0  0  0  0  0  0  0  0
   17.4131   -0.5812   19.9559 C   0  0  0  0  0  0  0  0  0  0  0  0
   17.3669    0.8767   20.3951 C   0  0  0  0  0  0  0  0  0  0  0  0
   18.5110    1.5663   19.6607 C   0  0  0  0  0  0  0  0  0  0  0  0
   19.0547    0.5508   18.6538 C   0  0  0  0  0  0  0  0  0  0  0  0
  1  2  1  0
  2  3  1  0
  3  4  2  0
  4  5  1  0
  5  6  1  0
  5  7  2  0
  7  8  1  0
  8  9  2  0
  9 10  1  0
 10 11  1  0
 11 12  2  0
 11 13  1  0
 13 14  1  0
 14 15  2  0
 14 16  2  0
 14 17  1  0
 17 18  2  0
 18 19  1  0
 19 20  2  0
 20 21  1  0
 20 22  1  0
 22 23  2  0
 13 24  1  0
 24 25  1  0
 25 26  1  0
 26 27  1  0
  9  3  1  0
 27 13  1  0
 23 17  1  0
M  END
>  <ref_mols>  (1091) 
B1396a

>  <gnina_score>  (1091) 
5.643

>  <smina_score_min>  (1091) 
-2.952

>  <ref_pdb>  (1091) 
B1396a

>  <inspiration_score>  (1091) 
None

>  <inchikey>  (1091) 
PKZFPPQBMIEYDL-UHFFFAOYSA-N

>  <tags>  (1091) 
BulkDock Fragalysis export,openbind_d68ev3c_c2_elabs_scored,openbind_d68ev3c_c2_elabs_scored_4.5plus,openbind_d68ev3c_c2_elabs,openbind_d68ev3c_c2_elabs_scored_5plus,syndirella_product,openbind_d68ev3c_c2_elabs_scored_top80percent,syndirella_placed

>  <smiles>  (1091) 
CCc1cc(Br)ccc1NC(=O)C1(S(=O)(=O)c2ccc(Br)cc2)CCCC1

>  <subsites>  (1091) 
None

>  <rmsd(smina/fragmenstein)>  (1091) 
0.829

>  <alias>  (1091) 
None

>  <energy_score>  (1091) 
-38.340727

>  <HIPPO Pose ID>  (1091) 
95477

>  <distance_score>  (1091) 
0.872503

>  <HIPPO Compound ID>  (1091) 
129367

>  <gnina_score_min>  (1091) 
5.307

>  <name>  (1091) 
P95477

>  <exports>  (1091) 
['/opt/xchem-fragalysis-2/maxwin/BulkDock/OUTPUTS/openbind_d68ev3c_c2_elabs_1LOTQJ3.sdf', '/opt/xchem-fragalysis-2/maxwin/BulkDock/OUTPUTS/openbind_d68ev3c_c2_elabs_1LSYI5W.sdf']

$$$$
P95480
     RDKit          3D

 27 29  0  0  0  0  0  0  0  0999 V2000
   10.5117   -1.7235   14.8848 C   0  0  0  0  0  0  0  0  0  0  0  0
   11.7978   -1.6949   15.6400 C   0  0  0  0  0  0  0  0  0  0  0  0
   12.3269   -2.8409   16.2295 C   0  0  0  0  0  0  0  0  0  0  0  0
   13.5169   -2.7830   16.9781 C   0  0  0  0  0  0  0  0  0  0  0  0
   14.0141   -4.0656   17.5990 C   0  0  0  0  0  0  0  0  0  0  0  0
   14.2089   -1.5509   17.1124 C   0  0  0  0  0  0  0  0  0  0  0  0
   15.4409   -1.5822   17.7885 N   0  0  0  0  0  0  0  0  0  0  0  0
   16.6629   -0.6040   17.7210 C   0  0  0  0  0  0  0  0  0  0  0  0
   16.8524    0.3275   17.0351 O   0  0  0  0  0  0  0  0  0  0  0  0
   17.7023   -1.0237   18.7773 C   0  0  0  0  0  0  0  0  0  0  0  0
   18.4516   -2.5401   18.1897 S   0  0  0  0  0  0  0  0  0  0  0  0
   19.6931   -2.7607   18.9073 O   0  0  0  0  0  0  0  0  0  0  0  0
   17.4246   -3.5699   18.2139 O   0  0  0  0  0  0  0  0  0  0  0  0
   18.8812   -2.2594   16.4828 C   0  0  0  0  0  0  0  0  0  0  0  0
   18.0897   -2.8028   15.4641 C   0  0  0  0  0  0  0  0  0  0  0  0
   18.4343   -2.5723   14.1297 C   0  0  0  0  0  0  0  0  0  0  0  0
   19.5671   -1.8168   13.8256 C   0  0  0  0  0  0  0  0  0  0  0  0
   20.0279   -1.5021   12.0197 Br  0  0  0  0  0  0  0  0  0  0  0  0
   20.3662   -1.2947   14.8418 C   0  0  0  0  0  0  0  0  0  0  0  0
   20.0294   -1.5232   16.1771 C   0  0  0  0  0  0  0  0  0  0  0  0
   18.7742    0.0858   18.9810 C   0  0  0  0  0  0  0  0  0  0  0  0
   18.3701    0.7968   20.2639 C   0  0  0  0  0  0  0  0  0  0  0  0
   17.8976   -0.3472   21.1358 C   0  0  0  0  0  0  0  0  0  0  0  0
   17.0686   -1.1985   20.1818 C   0  0  0  0  0  0  0  0  0  0  0  0
   13.6193   -0.3906   16.5782 C   0  0  0  0  0  0  0  0  0  0  0  0
   14.1247    1.3957   17.0050 Br  0  0  0  0  0  0  0  0  0  0  0  0
   12.4382   -0.4748   15.8341 C   0  0  0  0  0  0  0  0  0  0  0  0
  1  2  1  0
  2  3  2  0
  3  4  1  0
  4  5  1  0
  4  6  2  0
  6  7  1  0
  7  8  1  0
  8  9  2  0
  8 10  1  0
 10 11  1  0
 11 12  2  0
 11 13  2  0
 11 14  1  0
 14 15  2  0
 15 16  1  0
 16 17  2  0
 17 18  1  0
 17 19  1  0
 19 20  2  0
 10 21  1  0
 21 22  1  0
 22 23  1  0
 23 24  1  0
  6 25  1  0
 25 26  1  0
 25 27  2  0
 27  2  1  0
 24 10  1  0
 20 14  1  0
M  END
>  <ref_mols>  (1092) 
B1396a

>  <gnina_score>  (1092) 
5.48

>  <smina_score_min>  (1092) 
-3.52

>  <ref_pdb>  (1092) 
B1396a

>  <inspiration_score>  (1092) 
None

>  <inchikey>  (1092) 
VJSSGZXMZUWAPF-UHFFFAOYSA-N

>  <tags>  (1092) 
BulkDock Fragalysis export,openbind_d68ev3c_c2_elabs_scored,openbind_d68ev3c_c2_elabs_scored_4.5plus,openbind_d68ev3c_c2_elabs,openbind_d68ev3c_c2_elabs_scored_5plus,syndirella_product,openbind_d68ev3c_c2_elabs_scored_top80percent,syndirella_placed

>  <smiles>  (1092) 
Cc1cc(C)c(NC(=O)C2(S(=O)(=O)c3ccc(Br)cc3)CCCC2)c(Br)c1

>  <subsites>  (1092) 
None

>  <rmsd(smina/fragmenstein)>  (1092) 
1.983

>  <alias>  (1092) 
None

>  <energy_score>  (1092) 
-30.914653

>  <HIPPO Pose ID>  (1092) 
95480

>  <distance_score>  (1092) 
0.576493

>  <HIPPO Compound ID>  (1092) 
129370

>  <gnina_score_min>  (1092) 
5.23

>  <name>  (1092) 
P95480

>  <exports>  (1092) 
['/opt/xchem-fragalysis-2/maxwin/BulkDock/OUTPUTS/openbind_d68ev3c_c2_elabs_1LOTQJ3.sdf', '/opt/xchem-fragalysis-2/maxwin/BulkDock/OUTPUTS/openbind_d68ev3c_c2_elabs_1LSYI5W.sdf']

$$$$
P95481
     RDKit          3D

 27 29  0  0  0  0  0  0  0  0999 V2000
   20.2794    0.1506   14.0183 C   0  0  0  0  0  0  0  0  0  0  0  0
   19.6935   -1.1211   14.5578 C   0  0  0  0  0  0  0  0  0  0  0  0
   19.4636   -2.2065   13.7156 C   0  0  0  0  0  0  0  0  0  0  0  0
   18.9118   -3.3833   14.2215 C   0  0  0  0  0  0  0  0  0  0  0  0
   18.5440   -3.4977   15.5750 C   0  0  0  0  0  0  0  0  0  0  0  0
   18.0218   -4.8291   16.0403 C   0  0  0  0  0  0  0  0  0  0  0  0
   18.7084   -2.3744   16.4108 C   0  0  0  0  0  0  0  0  0  0  0  0
   18.2035   -2.3822   18.1348 S   0  0  0  0  0  0  0  0  0  0  0  0
   17.2040   -3.4266   18.3017 O   0  0  0  0  0  0  0  0  0  0  0  0
   19.4274   -2.4466   18.9125 O   0  0  0  0  0  0  0  0  0  0  0  0
   17.3447   -0.8478   18.5169 C   0  0  0  0  0  0  0  0  0  0  0  0
   16.3517   -0.5796   17.3645 C   0  0  0  0  0  0  0  0  0  0  0  0
   16.5584    0.2690   16.5827 O   0  0  0  0  0  0  0  0  0  0  0  0
   15.1382   -1.5611   17.4991 N   0  0  0  0  0  0  0  0  0  0  0  0
   13.9294   -1.6267   16.7758 C   0  0  0  0  0  0  0  0  0  0  0  0
   13.2815   -2.8914   16.7785 C   0  0  0  0  0  0  0  0  0  0  0  0
   13.8009   -4.0675   17.5719 C   0  0  0  0  0  0  0  0  0  0  0  0
   12.1236   -3.0958   16.0053 C   0  0  0  0  0  0  0  0  0  0  0  0
   11.5795   -2.0713   15.2460 C   0  0  0  0  0  0  0  0  0  0  0  0
   12.1596   -0.8117   15.2952 C   0  0  0  0  0  0  0  0  0  0  0  0
   13.3106   -0.5731   16.0719 C   0  0  0  0  0  0  0  0  0  0  0  0
   13.7297    1.4860   16.2855 I   0  0  0  0  0  0  0  0  0  0  0  0
   16.6200   -0.9423   19.8908 C   0  0  0  0  0  0  0  0  0  0  0  0
   17.4757   -0.1625   20.8758 C   0  0  0  0  0  0  0  0  0  0  0  0
   17.9605    0.9984   20.0391 C   0  0  0  0  0  0  0  0  0  0  0  0
   18.3369    0.3390   18.7181 C   0  0  0  0  0  0  0  0  0  0  0  0
   19.3126   -1.2127   15.9024 C   0  0  0  0  0  0  0  0  0  0  0  0
  1  2  1  0
  2  3  2  0
  3  4  1  0
  4  5  2  0
  5  6  1  0
  5  7  1  0
  7  8  1  0
  8  9  2  0
  8 10  2  0
  8 11  1  0
 11 12  1  0
 12 13  2  0
 12 14  1  0
 14 15  1  0
 15 16  2  0
 16 17  1  0
 16 18  1  0
 18 19  2  0
 19 20  1  0
 20 21  2  0
 21 22  1  0
 11 23  1  0
 23 24  1  0
 24 25  1  0
 25 26  1  0
  7 27  2  0
 27  2  1  0
 26 11  1  0
 21 15  1  0
M  END
>  <ref_mols>  (1093) 
B1396a

>  <gnina_score>  (1093) 
5.193

>  <smina_score_min>  (1093) 
-3.644

>  <ref_pdb>  (1093) 
B1396a

>  <inspiration_score>  (1093) 
None

>  <inchikey>  (1093) 
JOEQUEWGJIYSAE-UHFFFAOYSA-N

>  <tags>  (1093) 
BulkDock Fragalysis export,openbind_d68ev3c_c2_elabs_scored,openbind_d68ev3c_c2_elabs_scored_4.5plus,openbind_d68ev3c_c2_elabs,openbind_d68ev3c_c2_elabs_scored_5plus,syndirella_product,openbind_d68ev3c_c2_elabs_scored_top80percent,syndirella_placed

>  <smiles>  (1093) 
Cc1ccc(C)c(S(=O)(=O)C2(C(=O)Nc3c(C)cccc3I)CCCC2)c1

>  <subsites>  (1093) 
None

>  <rmsd(smina/fragmenstein)>  (1093) 
1.276

>  <alias>  (1093) 
None

>  <energy_score>  (1093) 
-52.597522

>  <HIPPO Pose ID>  (1093) 
95481

>  <distance_score>  (1093) 
0.368055

>  <HIPPO Compound ID>  (1093) 
129371

>  <gnina_score_min>  (1093) 
5.244

>  <name>  (1093) 
P95481

>  <exports>  (1093) 
['/opt/xchem-fragalysis-2/maxwin/BulkDock/OUTPUTS/openbind_d68ev3c_c2_elabs_1LOTQJ3.sdf', '/opt/xchem-fragalysis-2/maxwin/BulkDock/OUTPUTS/openbind_d68ev3c_c2_elabs_1LSYI5W.sdf']

$$$$
P95482
     RDKit          3D

 27 29  0  0  0  0  0  0  0  0999 V2000
   20.2482    0.3623   14.1197 C   0  0  0  0  0  0  0  0  0  0  0  0
   19.6292   -0.9152   14.6065 C   0  0  0  0  0  0  0  0  0  0  0  0
   19.4077   -1.9725   13.7258 C   0  0  0  0  0  0  0  0  0  0  0  0
   18.8882   -3.1800   14.1922 C   0  0  0  0  0  0  0  0  0  0  0  0
   18.5676   -3.3620   15.5497 C   0  0  0  0  0  0  0  0  0  0  0  0
   18.0818   -4.7223   15.9687 C   0  0  0  0  0  0  0  0  0  0  0  0
   18.7513   -2.2772   16.4326 C   0  0  0  0  0  0  0  0  0  0  0  0
   18.3297   -2.3771   18.1733 S   0  0  0  0  0  0  0  0  0  0  0  0
   17.3728   -3.4625   18.3346 O   0  0  0  0  0  0  0  0  0  0  0  0
   19.5873   -2.4291   18.8943 O   0  0  0  0  0  0  0  0  0  0  0  0
   17.4318   -0.8948   18.6525 C   0  0  0  0  0  0  0  0  0  0  0  0
   16.3712   -0.5851   17.5723 C   0  0  0  0  0  0  0  0  0  0  0  0
   16.3935    0.4241   16.9764 O   0  0  0  0  0  0  0  0  0  0  0  0
   15.3454   -1.7658   17.5271 N   0  0  0  0  0  0  0  0  0  0  0  0
   14.1403   -1.8918   16.8368 C   0  0  0  0  0  0  0  0  0  0  0  0
   13.6407   -0.8254   16.0782 C   0  0  0  0  0  0  0  0  0  0  0  0
   12.4243   -0.9431   15.4027 C   0  0  0  0  0  0  0  0  0  0  0  0
   11.7171   -2.1311   15.4814 C   0  0  0  0  0  0  0  0  0  0  0  0
   10.5356   -2.2452   14.8653 F   0  0  0  0  0  0  0  0  0  0  0  0
   12.2032   -3.2015   16.2194 C   0  0  0  0  0  0  0  0  0  0  0  0
   13.4180   -3.0966   16.9123 C   0  0  0  0  0  0  0  0  0  0  0  0
   13.8911   -4.2725   17.7210 C   0  0  0  0  0  0  0  0  0  0  0  0
   18.3847    0.3123   18.8946 C   0  0  0  0  0  0  0  0  0  0  0  0
   17.9440    0.9389   20.2106 C   0  0  0  0  0  0  0  0  0  0  0  0
   17.5229   -0.2594   21.0305 C   0  0  0  0  0  0  0  0  0  0  0  0
   16.7351   -1.0938   20.0317 C   0  0  0  0  0  0  0  0  0  0  0  0
   19.3185   -1.0825   15.9617 C   0  0  0  0  0  0  0  0  0  0  0  0
  1  2  1  0
  2  3  2  0
  3  4  1  0
  4  5  2  0
  5  6  1  0
  5  7  1  0
  7  8  1  0
  8  9  2  0
  8 10  2  0
  8 11  1  0
 11 12  1  0
 12 13  2  0
 12 14  1  0
 14 15  1  0
 15 16  2  0
 16 17  1  0
 17 18  2  0
 18 19  1  0
 18 20  1  0
 20 21  2  0
 21 22  1  0
 11 23  1  0
 23 24  1  0
 24 25  1  0
 25 26  1  0
  7 27  2  0
 27  2  1  0
 26 11  1  0
 21 15  1  0
M  END
>  <ref_mols>  (1094) 
B1396a

>  <gnina_score>  (1094) 
5.118

>  <smina_score_min>  (1094) 
-3.531

>  <ref_pdb>  (1094) 
B1396a

>  <inspiration_score>  (1094) 
None

>  <inchikey>  (1094) 
SZHMMRDMGDHUOH-UHFFFAOYSA-N

>  <tags>  (1094) 
BulkDock Fragalysis export,openbind_d68ev3c_c2_elabs_scored,openbind_d68ev3c_c2_elabs_scored_4.5plus,openbind_d68ev3c_c2_elabs,openbind_d68ev3c_c2_elabs_scored_5plus,syndirella_product,openbind_d68ev3c_c2_elabs_scored_top80percent,syndirella_placed

>  <smiles>  (1094) 
Cc1ccc(C)c(S(=O)(=O)C2(C(=O)Nc3ccc(F)cc3C)CCCC2)c1

>  <subsites>  (1094) 
None

>  <rmsd(smina/fragmenstein)>  (1094) 
0.713

>  <alias>  (1094) 
None

>  <energy_score>  (1094) 
-30.971359

>  <HIPPO Pose ID>  (1094) 
95482

>  <distance_score>  (1094) 
0.412249

>  <HIPPO Compound ID>  (1094) 
129372

>  <gnina_score_min>  (1094) 
5.255

>  <name>  (1094) 
P95482

>  <exports>  (1094) 
['/opt/xchem-fragalysis-2/maxwin/BulkDock/OUTPUTS/openbind_d68ev3c_c2_elabs_1LOTQJ3.sdf', '/opt/xchem-fragalysis-2/maxwin/BulkDock/OUTPUTS/openbind_d68ev3c_c2_elabs_1LSYI5W.sdf']

$$$$
P95483
     RDKit          3D

 27 29  0  0  0  0  0  0  0  0999 V2000
   19.9139    0.6372   14.4552 C   0  0  0  0  0  0  0  0  0  0  0  0
   19.4222   -0.7257   14.8490 C   0  0  0  0  0  0  0  0  0  0  0  0
   19.2928   -1.7321   13.8905 C   0  0  0  0  0  0  0  0  0  0  0  0
   18.8805   -3.0103   14.2631 C   0  0  0  0  0  0  0  0  0  0  0  0
   18.5943   -3.3159   15.6044 C   0  0  0  0  0  0  0  0  0  0  0  0
   18.2132   -4.7361   15.9300 C   0  0  0  0  0  0  0  0  0  0  0  0
   18.6972   -2.2889   16.5709 C   0  0  0  0  0  0  0  0  0  0  0  0
   18.3144   -2.6245   18.2870 S   0  0  0  0  0  0  0  0  0  0  0  0
   17.1716   -3.5278   18.2834 O   0  0  0  0  0  0  0  0  0  0  0  0
   19.5611   -3.0536   18.8918 O   0  0  0  0  0  0  0  0  0  0  0  0
   17.7458   -1.1594   19.1436 C   0  0  0  0  0  0  0  0  0  0  0  0
   16.7111   -0.4012   18.2913 C   0  0  0  0  0  0  0  0  0  0  0  0
   16.8571    0.7427   18.0759 O   0  0  0  0  0  0  0  0  0  0  0  0
   15.5255   -1.3578   17.9291 N   0  0  0  0  0  0  0  0  0  0  0  0
   14.3712   -1.1266   17.1749 C   0  0  0  0  0  0  0  0  0  0  0  0
   14.0933    0.1845   16.7669 C   0  0  0  0  0  0  0  0  0  0  0  0
   13.0125    0.4730   15.9443 C   0  0  0  0  0  0  0  0  0  0  0  0
   12.2392   -0.5619   15.4628 C   0  0  0  0  0  0  0  0  0  0  0  0
   12.5265   -1.8788   15.8374 C   0  0  0  0  0  0  0  0  0  0  0  0
   11.4840   -3.2520   14.7339 I   0  0  0  0  0  0  0  0  0  0  0  0
   13.5342   -2.1883   16.7733 C   0  0  0  0  0  0  0  0  0  0  0  0
   13.7767   -3.5873   17.2878 C   0  0  0  0  0  0  0  0  0  0  0  0
   18.9408   -0.2444   19.5605 C   0  0  0  0  0  0  0  0  0  0  0  0
   18.7727    0.0282   21.0504 C   0  0  0  0  0  0  0  0  0  0  0  0
   18.1243   -1.2356   21.5688 C   0  0  0  0  0  0  0  0  0  0  0  0
   17.0871   -1.5438   20.5005 C   0  0  0  0  0  0  0  0  0  0  0  0
   19.1360   -1.0140   16.1913 C   0  0  0  0  0  0  0  0  0  0  0  0
  1  2  1  0
  2  3  2  0
  3  4  1  0
  4  5  2  0
  5  6  1  0
  5  7  1  0
  7  8  1  0
  8  9  2  0
  8 10  2  0
  8 11  1  0
 11 12  1  0
 12 13  2  0
 12 14  1  0
 14 15  1  0
 15 16  2  0
 16 17  1  0
 17 18  2  0
 18 19  1  0
 19 20  1  0
 19 21  2  0
 21 22  1  0
 11 23  1  0
 23 24  1  0
 24 25  1  0
 25 26  1  0
  7 27  2  0
 27  2  1  0
 26 11  1  0
 21 15  1  0
M  END
>  <ref_mols>  (1095) 
B1396a

>  <gnina_score>  (1095) 
5.282

>  <smina_score_min>  (1095) 
-3.583

>  <ref_pdb>  (1095) 
B1396a

>  <inspiration_score>  (1095) 
None

>  <inchikey>  (1095) 
UDACZCJVDKWTSF-UHFFFAOYSA-N

>  <tags>  (1095) 
BulkDock Fragalysis export,openbind_d68ev3c_c2_elabs_scored,openbind_d68ev3c_c2_elabs_scored_4.5plus,openbind_d68ev3c_c2_elabs,openbind_d68ev3c_c2_elabs_scored_5plus,syndirella_product,openbind_d68ev3c_c2_elabs_scored_top80percent,syndirella_placed

>  <smiles>  (1095) 
Cc1ccc(C)c(S(=O)(=O)C2(C(=O)Nc3cccc(I)c3C)CCCC2)c1

>  <subsites>  (1095) 
None

>  <rmsd(smina/fragmenstein)>  (1095) 
2.843

>  <alias>  (1095) 
None

>  <energy_score>  (1095) 
-54.987916

>  <HIPPO Pose ID>  (1095) 
95483

>  <distance_score>  (1095) 
1.083872

>  <HIPPO Compound ID>  (1095) 
129373

>  <gnina_score_min>  (1095) 
5.112

>  <name>  (1095) 
P95483

>  <exports>  (1095) 
['/opt/xchem-fragalysis-2/maxwin/BulkDock/OUTPUTS/openbind_d68ev3c_c2_elabs_1LOTQJ3.sdf', '/opt/xchem-fragalysis-2/maxwin/BulkDock/OUTPUTS/openbind_d68ev3c_c2_elabs_1LSYI5W.sdf']

$$$$
P95486
     RDKit          3D

 27 29  0  0  0  0  0  0  0  0999 V2000
   19.7616    0.4242   14.0197 C   0  0  0  0  0  0  0  0  0  0  0  0
   19.3105   -0.9048   14.5522 C   0  0  0  0  0  0  0  0  0  0  0  0
   19.2416   -2.0147   13.7118 C   0  0  0  0  0  0  0  0  0  0  0  0
   18.8633   -3.2574   14.2181 C   0  0  0  0  0  0  0  0  0  0  0  0
   18.5482   -3.4255   15.5784 C   0  0  0  0  0  0  0  0  0  0  0  0
   18.2040   -4.8147   16.0441 C   0  0  0  0  0  0  0  0  0  0  0  0
   18.5943   -2.2969   16.4252 C   0  0  0  0  0  0  0  0  0  0  0  0
   18.1947   -2.4275   18.1686 S   0  0  0  0  0  0  0  0  0  0  0  0
   19.4627   -2.5471   18.8639 O   0  0  0  0  0  0  0  0  0  0  0  0
   17.1996   -3.4818   18.3059 O   0  0  0  0  0  0  0  0  0  0  0  0
   17.3640   -0.9443   18.7375 C   0  0  0  0  0  0  0  0  0  0  0  0
   16.2818   -0.5435   17.7019 C   0  0  0  0  0  0  0  0  0  0  0  0
   16.3160    0.5059   17.1796 O   0  0  0  0  0  0  0  0  0  0  0  0
   15.2096   -1.6822   17.6203 N   0  0  0  0  0  0  0  0  0  0  0  0
   14.0581   -1.7895   16.8348 C   0  0  0  0  0  0  0  0  0  0  0  0
   13.6110   -0.7013   16.0824 C   0  0  0  0  0  0  0  0  0  0  0  0
   12.4518   -0.8114   15.3201 C   0  0  0  0  0  0  0  0  0  0  0  0
   12.0278    0.2419   14.6095 F   0  0  0  0  0  0  0  0  0  0  0  0
   11.7236   -1.9908   15.2846 C   0  0  0  0  0  0  0  0  0  0  0  0
   12.1622   -3.0795   16.0338 C   0  0  0  0  0  0  0  0  0  0  0  0
   13.3270   -2.9932   16.8195 C   0  0  0  0  0  0  0  0  0  0  0  0
   13.7495   -4.1946   17.6220 C   0  0  0  0  0  0  0  0  0  0  0  0
   18.3786    0.2052   19.0263 C   0  0  0  0  0  0  0  0  0  0  0  0
   18.3564    0.4446   20.5322 C   0  0  0  0  0  0  0  0  0  0  0  0
   16.9487    0.0685   20.9313 C   0  0  0  0  0  0  0  0  0  0  0  0
   16.7056   -1.1980   20.1266 C   0  0  0  0  0  0  0  0  0  0  0  0
   18.9991   -1.0559   15.9102 C   0  0  0  0  0  0  0  0  0  0  0  0
  1  2  1  0
  2  3  2  0
  3  4  1  0
  4  5  2  0
  5  6  1  0
  5  7  1  0
  7  8  1  0
  8  9  2  0
  8 10  2  0
  8 11  1  0
 11 12  1  0
 12 13  2  0
 12 14  1  0
 14 15  1  0
 15 16  2  0
 16 17  1  0
 17 18  1  0
 17 19  2  0
 19 20  1  0
 20 21  2  0
 21 22  1  0
 11 23  1  0
 23 24  1  0
 24 25  1  0
 25 26  1  0
  7 27  2  0
 27  2  1  0
 26 11  1  0
 21 15  1  0
M  END
>  <ref_mols>  (1096) 
B1396a

>  <gnina_score>  (1096) 
5.097

>  <smina_score_min>  (1096) 
-3.883

>  <ref_pdb>  (1096) 
B1396a

>  <inspiration_score>  (1096) 
None

>  <inchikey>  (1096) 
AEKWAMGJXAMXQZ-UHFFFAOYSA-N

>  <tags>  (1096) 
BulkDock Fragalysis export,openbind_d68ev3c_c2_elabs_scored,openbind_d68ev3c_c2_elabs_scored_4.5plus,openbind_d68ev3c_c2_elabs,openbind_d68ev3c_c2_elabs_scored_5plus,syndirella_product,openbind_d68ev3c_c2_elabs_scored_top80percent,syndirella_placed

>  <smiles>  (1096) 
Cc1ccc(C)c(S(=O)(=O)C2(C(=O)Nc3cc(F)ccc3C)CCCC2)c1

>  <subsites>  (1096) 
None

>  <rmsd(smina/fragmenstein)>  (1096) 
1.567

>  <alias>  (1096) 
None

>  <energy_score>  (1096) 
-69.620718

>  <HIPPO Pose ID>  (1096) 
95486

>  <distance_score>  (1096) 
0.48081

>  <HIPPO Compound ID>  (1096) 
129376

>  <gnina_score_min>  (1096) 
5.258

>  <name>  (1096) 
P95486

>  <exports>  (1096) 
['/opt/xchem-fragalysis-2/maxwin/BulkDock/OUTPUTS/openbind_d68ev3c_c2_elabs_1LOTQJ3.sdf', '/opt/xchem-fragalysis-2/maxwin/BulkDock/OUTPUTS/openbind_d68ev3c_c2_elabs_1LSYI5W.sdf']

$$$$
P95488
     RDKit          3D

 27 29  0  0  0  0  0  0  0  0999 V2000
   19.8810    0.4629   14.2038 C   0  0  0  0  0  0  0  0  0  0  0  0
   19.4738   -0.9077   14.6606 C   0  0  0  0  0  0  0  0  0  0  0  0
   19.2986   -1.9365   13.7356 C   0  0  0  0  0  0  0  0  0  0  0  0
   18.9053   -3.2052   14.1600 C   0  0  0  0  0  0  0  0  0  0  0  0
   18.6590   -3.4749   15.5175 C   0  0  0  0  0  0  0  0  0  0  0  0
   18.2952   -4.8866   15.8919 C   0  0  0  0  0  0  0  0  0  0  0  0
   18.7792   -2.4188   16.4461 C   0  0  0  0  0  0  0  0  0  0  0  0
   18.4194   -2.6713   18.1845 S   0  0  0  0  0  0  0  0  0  0  0  0
   17.3762   -3.6845   18.2662 O   0  0  0  0  0  0  0  0  0  0  0  0
   19.6964   -2.8987   18.8332 O   0  0  0  0  0  0  0  0  0  0  0  0
   17.6793   -1.2047   18.8888 C   0  0  0  0  0  0  0  0  0  0  0  0
   16.6516   -0.6302   17.8921 C   0  0  0  0  0  0  0  0  0  0  0  0
   16.7299    0.4866   17.5406 O   0  0  0  0  0  0  0  0  0  0  0  0
   15.5639   -1.7166   17.5856 N   0  0  0  0  0  0  0  0  0  0  0  0
   14.3575   -1.6192   16.8922 C   0  0  0  0  0  0  0  0  0  0  0  0
   14.0171   -0.4034   16.2952 C   0  0  0  0  0  0  0  0  0  0  0  0
   12.7580   -0.2120   15.7390 C   0  0  0  0  0  0  0  0  0  0  0  0
   11.8370   -1.2487   15.7570 C   0  0  0  0  0  0  0  0  0  0  0  0
    9.8855   -0.7843   15.2531 I   0  0  0  0  0  0  0  0  0  0  0  0
   12.1980   -2.5072   16.2424 C   0  0  0  0  0  0  0  0  0  0  0  0
   13.4586   -2.7012   16.8411 C   0  0  0  0  0  0  0  0  0  0  0  0
   13.7646   -4.0288   17.4829 C   0  0  0  0  0  0  0  0  0  0  0  0
   16.9700   -1.5466   20.2341 C   0  0  0  0  0  0  0  0  0  0  0  0
   17.3768   -0.4542   21.2117 C   0  0  0  0  0  0  0  0  0  0  0  0
   18.8116   -0.1773   20.8260 C   0  0  0  0  0  0  0  0  0  0  0  0
   18.7636   -0.1631   19.3034 C   0  0  0  0  0  0  0  0  0  0  0  0
   19.2026   -1.1526   16.0133 C   0  0  0  0  0  0  0  0  0  0  0  0
  1  2  1  0
  2  3  2  0
  3  4  1  0
  4  5  2  0
  5  6  1  0
  5  7  1  0
  7  8  1  0
  8  9  2  0
  8 10  2  0
  8 11  1  0
 11 12  1  0
 12 13  2  0
 12 14  1  0
 14 15  1  0
 15 16  2  0
 16 17  1  0
 17 18  2  0
 18 19  1  0
 18 20  1  0
 20 21  2  0
 21 22  1  0
 11 23  1  0
 23 24  1  0
 24 25  1  0
 25 26  1  0
  7 27  2  0
 27  2  1  0
 26 11  1  0
 21 15  1  0
M  END
>  <ref_mols>  (1097) 
B1396a

>  <gnina_score>  (1097) 
5.52

>  <smina_score_min>  (1097) 
-3.814

>  <ref_pdb>  (1097) 
B1396a

>  <inspiration_score>  (1097) 
None

>  <inchikey>  (1097) 
BWBHQCDSLOJVPH-UHFFFAOYSA-N

>  <tags>  (1097) 
BulkDock Fragalysis export,openbind_d68ev3c_c2_elabs_scored,openbind_d68ev3c_c2_elabs_scored_4.5plus,openbind_d68ev3c_c2_elabs,openbind_d68ev3c_c2_elabs_scored_5plus,syndirella_product,openbind_d68ev3c_c2_elabs_scored_top80percent,syndirella_placed

>  <smiles>  (1097) 
Cc1ccc(C)c(S(=O)(=O)C2(C(=O)Nc3ccc(I)cc3C)CCCC2)c1

>  <subsites>  (1097) 
None

>  <rmsd(smina/fragmenstein)>  (1097) 
2.956

>  <alias>  (1097) 
None

>  <energy_score>  (1097) 
-47.74113

>  <HIPPO Pose ID>  (1097) 
95488

>  <distance_score>  (1097) 
0.716736

>  <HIPPO Compound ID>  (1097) 
129378

>  <gnina_score_min>  (1097) 
5.198

>  <name>  (1097) 
P95488

>  <exports>  (1097) 
['/opt/xchem-fragalysis-2/maxwin/BulkDock/OUTPUTS/openbind_d68ev3c_c2_elabs_1LOTQJ3.sdf', '/opt/xchem-fragalysis-2/maxwin/BulkDock/OUTPUTS/openbind_d68ev3c_c2_elabs_1LSYI5W.sdf']

$$$$
P95489
     RDKit          3D

 27 29  0  0  0  0  0  0  0  0999 V2000
   19.7686    0.4560   13.9859 C   0  0  0  0  0  0  0  0  0  0  0  0
   19.3063   -0.8662   14.5257 C   0  0  0  0  0  0  0  0  0  0  0  0
   19.2158   -1.9767   13.6877 C   0  0  0  0  0  0  0  0  0  0  0  0
   18.8312   -3.2151   14.2001 C   0  0  0  0  0  0  0  0  0  0  0  0
   18.5311   -3.3784   15.5642 C   0  0  0  0  0  0  0  0  0  0  0  0
   18.1775   -4.7635   16.0372 C   0  0  0  0  0  0  0  0  0  0  0  0
   18.6030   -2.2495   16.4090 C   0  0  0  0  0  0  0  0  0  0  0  0
   18.2448   -2.3751   18.1605 S   0  0  0  0  0  0  0  0  0  0  0  0
   19.5296   -2.4803   18.8265 O   0  0  0  0  0  0  0  0  0  0  0  0
   17.2599   -3.4321   18.3255 O   0  0  0  0  0  0  0  0  0  0  0  0
   17.4176   -0.8957   18.7378 C   0  0  0  0  0  0  0  0  0  0  0  0
   16.2914   -0.4999   17.7442 C   0  0  0  0  0  0  0  0  0  0  0  0
   16.2657    0.5760   17.2777 O   0  0  0  0  0  0  0  0  0  0  0  0
   15.2717   -1.6828   17.6222 N   0  0  0  0  0  0  0  0  0  0  0  0
   14.1058   -1.8041   16.8508 C   0  0  0  0  0  0  0  0  0  0  0  0
   13.6522   -0.7296   16.0789 C   0  0  0  0  0  0  0  0  0  0  0  0
   12.4790   -0.8356   15.3223 C   0  0  0  0  0  0  0  0  0  0  0  0
   11.7476   -2.0190   15.3208 C   0  0  0  0  0  0  0  0  0  0  0  0
   12.1892   -3.0970   16.0847 C   0  0  0  0  0  0  0  0  0  0  0  0
   13.3598   -2.9954   16.8541 C   0  0  0  0  0  0  0  0  0  0  0  0
   13.7810   -4.1345   17.6134 C   0  0  0  0  0  0  0  0  0  0  0  0
   14.1610   -5.0456   18.2200 N   0  0  0  0  0  0  0  0  0  0  0  0
   18.4287    0.2647   18.9974 C   0  0  0  0  0  0  0  0  0  0  0  0
   18.3915    0.5615   20.4934 C   0  0  0  0  0  0  0  0  0  0  0  0
   16.9991    0.1496   20.9110 C   0  0  0  0  0  0  0  0  0  0  0  0
   16.7968   -1.1467   20.1441 C   0  0  0  0  0  0  0  0  0  0  0  0
   19.0118   -1.0126   15.8877 C   0  0  0  0  0  0  0  0  0  0  0  0
  1  2  1  0
  2  3  2  0
  3  4  1  0
  4  5  2  0
  5  6  1  0
  5  7  1  0
  7  8  1  0
  8  9  2  0
  8 10  2  0
  8 11  1  0
 11 12  1  0
 12 13  2  0
 12 14  1  0
 14 15  1  0
 15 16  2  0
 16 17  1  0
 17 18  2  0
 18 19  1  0
 19 20  2  0
 20 21  1  0
 21 22  3  0
 11 23  1  0
 23 24  1  0
 24 25  1  0
 25 26  1  0
  7 27  2  0
 27  2  1  0
 26 11  1  0
 20 15  1  0
M  END
>  <ref_mols>  (1098) 
B1396a

>  <gnina_score>  (1098) 
5.084

>  <smina_score_min>  (1098) 
-3.643

>  <ref_pdb>  (1098) 
B1396a

>  <inspiration_score>  (1098) 
None

>  <inchikey>  (1098) 
YHEWWZRXFUHIMU-UHFFFAOYSA-N

>  <tags>  (1098) 
BulkDock Fragalysis export,openbind_d68ev3c_c2_elabs_scored,openbind_d68ev3c_c2_elabs_scored_4.5plus,openbind_d68ev3c_c2_elabs,openbind_d68ev3c_c2_elabs_scored_5plus,syndirella_product,openbind_d68ev3c_c2_elabs_scored_top80percent,syndirella_placed

>  <smiles>  (1098) 
Cc1ccc(C)c(S(=O)(=O)C2(C(=O)Nc3ccccc3C#N)CCCC2)c1

>  <subsites>  (1098) 
None

>  <rmsd(smina/fragmenstein)>  (1098) 
1.87

>  <alias>  (1098) 
None

>  <energy_score>  (1098) 
-32.768046

>  <HIPPO Pose ID>  (1098) 
95489

>  <distance_score>  (1098) 
0.506257

>  <HIPPO Compound ID>  (1098) 
129379

>  <gnina_score_min>  (1098) 
5.161

>  <name>  (1098) 
P95489

>  <exports>  (1098) 
['/opt/xchem-fragalysis-2/maxwin/BulkDock/OUTPUTS/openbind_d68ev3c_c2_elabs_1LOTQJ3.sdf', '/opt/xchem-fragalysis-2/maxwin/BulkDock/OUTPUTS/openbind_d68ev3c_c2_elabs_1LSYI5W.sdf']

$$$$
P95490
     RDKit          3D

 27 29  0  0  0  0  0  0  0  0999 V2000
   13.7751    0.8353   16.2001 C   0  0  0  0  0  0  0  0  0  0  0  0
   13.3232   -0.5969   16.1466 C   0  0  0  0  0  0  0  0  0  0  0  0
   12.1928   -0.8448   15.3370 C   0  0  0  0  0  0  0  0  0  0  0  0
   11.6057   -2.0997   15.2753 C   0  0  0  0  0  0  0  0  0  0  0  0
   12.1360   -3.1301   16.0345 C   0  0  0  0  0  0  0  0  0  0  0  0
   13.2786   -2.9317   16.8298 C   0  0  0  0  0  0  0  0  0  0  0  0
   13.7940   -4.1171   17.6099 C   0  0  0  0  0  0  0  0  0  0  0  0
   13.9131   -1.6627   16.8596 C   0  0  0  0  0  0  0  0  0  0  0  0
   15.0800   -1.5626   17.6465 N   0  0  0  0  0  0  0  0  0  0  0  0
   16.2480   -0.5199   17.6049 C   0  0  0  0  0  0  0  0  0  0  0  0
   16.3746    0.4533   16.9627 O   0  0  0  0  0  0  0  0  0  0  0  0
   17.3042   -0.8718   18.6908 C   0  0  0  0  0  0  0  0  0  0  0  0
   18.1544   -2.3708   18.1415 S   0  0  0  0  0  0  0  0  0  0  0  0
   19.3802   -2.5186   18.9057 O   0  0  0  0  0  0  0  0  0  0  0  0
   17.1834   -3.4529   18.1484 O   0  0  0  0  0  0  0  0  0  0  0  0
   18.6409   -2.1128   16.4463 C   0  0  0  0  0  0  0  0  0  0  0  0
   17.8514   -2.6218   15.4071 C   0  0  0  0  0  0  0  0  0  0  0  0
   18.2648   -2.4460   14.0845 C   0  0  0  0  0  0  0  0  0  0  0  0
   19.4605   -1.7858   13.8176 C   0  0  0  0  0  0  0  0  0  0  0  0
   19.8516   -1.6165   12.5486 F   0  0  0  0  0  0  0  0  0  0  0  0
   20.2596   -1.3026   14.8478 C   0  0  0  0  0  0  0  0  0  0  0  0
   19.8568   -1.4752   16.1722 C   0  0  0  0  0  0  0  0  0  0  0  0
   16.6878   -1.1220   20.0909 C   0  0  0  0  0  0  0  0  0  0  0  0
   16.0785    0.1367   20.7047 C   0  0  0  0  0  0  0  0  0  0  0  0
   17.1158    1.2439   20.8296 C   0  0  0  0  0  0  0  0  0  0  0  0
   17.7724    1.5462   19.4900 C   0  0  0  0  0  0  0  0  0  0  0  0
   18.3383    0.2866   18.8249 C   0  0  0  0  0  0  0  0  0  0  0  0
  1  2  1  0
  2  3  2  0
  3  4  1  0
  4  5  2  0
  5  6  1  0
  6  7  1  0
  6  8  2  0
  8  9  1  0
  9 10  1  0
 10 11  2  0
 10 12  1  0
 12 13  1  0
 13 14  2  0
 13 15  2  0
 13 16  1  0
 16 17  2  0
 17 18  1  0
 18 19  2  0
 19 20  1  0
 19 21  1  0
 21 22  2  0
 12 23  1  0
 23 24  1  0
 24 25  1  0
 25 26  1  0
 26 27  1  0
  8  2  1  0
 27 12  1  0
 22 16  1  0
M  END
>  <ref_mols>  (1099) 
B1396a

>  <gnina_score>  (1099) 
5.092

>  <smina_score_min>  (1099) 
-4.145

>  <ref_pdb>  (1099) 
B1396a

>  <inspiration_score>  (1099) 
None

>  <inchikey>  (1099) 
VUDFKDRZWAZWIP-UHFFFAOYSA-N

>  <tags>  (1099) 
BulkDock Fragalysis export,openbind_d68ev3c_c2_elabs_scored,openbind_d68ev3c_c2_elabs_scored_4.5plus,openbind_d68ev3c_c2_elabs,openbind_d68ev3c_c2_elabs_scored_5plus,syndirella_product,openbind_d68ev3c_c2_elabs_scored_top80percent,syndirella_placed

>  <smiles>  (1099) 
Cc1cccc(C)c1NC(=O)C1(S(=O)(=O)c2ccc(F)cc2)CCCCC1

>  <subsites>  (1099) 
None

>  <rmsd(smina/fragmenstein)>  (1099) 
2.62

>  <alias>  (1099) 
None

>  <energy_score>  (1099) 
-41.256792

>  <HIPPO Pose ID>  (1099) 
95490

>  <distance_score>  (1099) 
0.428611

>  <HIPPO Compound ID>  (1099) 
129380

>  <gnina_score_min>  (1099) 
5.024

>  <name>  (1099) 
P95490

>  <exports>  (1099) 
['/opt/xchem-fragalysis-2/maxwin/BulkDock/OUTPUTS/openbind_d68ev3c_c2_elabs_1LOTQJ3.sdf', '/opt/xchem-fragalysis-2/maxwin/BulkDock/OUTPUTS/openbind_d68ev3c_c2_elabs_1LSYI5W.sdf']

$$$$
P95492
     RDKit          3D

 27 29  0  0  0  0  0  0  0  0999 V2000
   16.2900    0.5257   17.0630 O   0  0  0  0  0  0  0  0  0  0  0  0
   16.3106   -0.5130   17.6064 C   0  0  0  0  0  0  0  0  0  0  0  0
   15.3310   -1.7282   17.5055 N   0  0  0  0  0  0  0  0  0  0  0  0
   14.1251   -1.8654   16.8146 C   0  0  0  0  0  0  0  0  0  0  0  0
   13.6231   -0.8074   16.0493 C   0  0  0  0  0  0  0  0  0  0  0  0
   12.4177   -0.9364   15.3559 C   0  0  0  0  0  0  0  0  0  0  0  0
   11.7060   -2.1271   15.4168 C   0  0  0  0  0  0  0  0  0  0  0  0
   12.1996   -3.1857   16.1791 C   0  0  0  0  0  0  0  0  0  0  0  0
   13.4107   -3.0764   16.8904 C   0  0  0  0  0  0  0  0  0  0  0  0
   13.9203   -4.2898   17.6370 C   0  0  0  0  0  0  0  0  0  0  0  0
   14.0378   -4.0536   19.4286 S   0  0  0  0  0  0  0  0  0  0  0  0
   17.4110   -0.8195   18.6680 C   0  0  0  0  0  0  0  0  0  0  0  0
   18.3108   -2.3033   18.1228 S   0  0  0  0  0  0  0  0  0  0  0  0
   17.3933   -3.4313   18.1717 O   0  0  0  0  0  0  0  0  0  0  0  0
   19.5637   -2.3896   18.8508 O   0  0  0  0  0  0  0  0  0  0  0  0
   18.7422   -2.0686   16.4058 C   0  0  0  0  0  0  0  0  0  0  0  0
   17.9224   -2.5948   15.3987 C   0  0  0  0  0  0  0  0  0  0  0  0
   18.2941   -2.4422   14.0609 C   0  0  0  0  0  0  0  0  0  0  0  0
   19.4832   -1.7923   13.7457 C   0  0  0  0  0  0  0  0  0  0  0  0
   19.8354   -1.6465   12.4625 F   0  0  0  0  0  0  0  0  0  0  0  0
   20.3173   -1.2996   14.7423 C   0  0  0  0  0  0  0  0  0  0  0  0
   19.9552   -1.4493   16.0811 C   0  0  0  0  0  0  0  0  0  0  0  0
   16.7765   -1.0928   20.0654 C   0  0  0  0  0  0  0  0  0  0  0  0
   16.6249    0.1770   20.8996 C   0  0  0  0  0  0  0  0  0  0  0  0
   17.9765    0.8042   21.2273 C   0  0  0  0  0  0  0  0  0  0  0  0
   19.0284    0.5459   20.1522 C   0  0  0  0  0  0  0  0  0  0  0  0
   18.3940    0.3938   18.7708 C   0  0  0  0  0  0  0  0  0  0  0  0
  1  2  2  0
  2  3  1  0
  3  4  1  0
  4  5  2  0
  5  6  1  0
  6  7  2  0
  7  8  1  0
  8  9  2  0
  9 10  1  0
 10 11  1  0
  2 12  1  0
 12 13  1  0
 13 14  2  0
 13 15  2  0
 13 16  1  0
 16 17  2  0
 17 18  1  0
 18 19  2  0
 19 20  1  0
 19 21  1  0
 21 22  2  0
 12 23  1  0
 23 24  1  0
 24 25  1  0
 25 26  1  0
 26 27  1  0
  9  4  1  0
 27 12  1  0
 22 16  1  0
M  END
>  <ref_mols>  (1100) 
B1396a

>  <gnina_score>  (1100) 
5.085

>  <smina_score_min>  (1100) 
-3.375

>  <ref_pdb>  (1100) 
B1396a

>  <inspiration_score>  (1100) 
None

>  <inchikey>  (1100) 
PZOLXANUSKYOHV-UHFFFAOYSA-N

>  <tags>  (1100) 
BulkDock Fragalysis export,openbind_d68ev3c_c2_elabs_scored,openbind_d68ev3c_c2_elabs_scored_4.5plus,openbind_d68ev3c_c2_elabs,openbind_d68ev3c_c2_elabs_scored_5plus,syndirella_product,openbind_d68ev3c_c2_elabs_scored_top80percent,syndirella_placed

>  <smiles>  (1100) 
O=C(Nc1ccccc1CS)C1(S(=O)(=O)c2ccc(F)cc2)CCCCC1

>  <subsites>  (1100) 
None

>  <rmsd(smina/fragmenstein)>  (1100) 
1.876

>  <alias>  (1100) 
None

>  <energy_score>  (1100) 
-42.192443

>  <HIPPO Pose ID>  (1100) 
95492

>  <distance_score>  (1100) 
0.461406

>  <HIPPO Compound ID>  (1100) 
129383

>  <gnina_score_min>  (1100) 
5.072

>  <name>  (1100) 
P95492

>  <exports>  (1100) 
['/opt/xchem-fragalysis-2/maxwin/BulkDock/OUTPUTS/openbind_d68ev3c_c2_elabs_1LOTQJ3.sdf', '/opt/xchem-fragalysis-2/maxwin/BulkDock/OUTPUTS/openbind_d68ev3c_c2_elabs_1LSYI5W.sdf']

$$$$
P95494
     RDKit          3D

 27 29  0  0  0  0  0  0  0  0999 V2000
   14.1433   -5.0306   18.2191 N   0  0  0  0  0  0  0  0  0  0  0  0
   13.7375   -4.1412   17.5975 C   0  0  0  0  0  0  0  0  0  0  0  0
   13.3010   -3.0160   16.8267 C   0  0  0  0  0  0  0  0  0  0  0  0
   12.1189   -3.1247   16.0790 C   0  0  0  0  0  0  0  0  0  0  0  0
   11.6623   -2.0533   15.3138 C   0  0  0  0  0  0  0  0  0  0  0  0
   12.3897   -0.8680   15.2937 C   0  0  0  0  0  0  0  0  0  0  0  0
   13.5782   -0.7569   16.0236 C   0  0  0  0  0  0  0  0  0  0  0  0
   14.0489   -1.8279   16.7902 C   0  0  0  0  0  0  0  0  0  0  0  0
   15.2518   -1.7151   17.5009 N   0  0  0  0  0  0  0  0  0  0  0  0
   16.2843   -0.5421   17.5693 C   0  0  0  0  0  0  0  0  0  0  0  0
   16.3211    0.4720   16.9820 O   0  0  0  0  0  0  0  0  0  0  0  0
   17.3510   -0.8519   18.6658 C   0  0  0  0  0  0  0  0  0  0  0  0
   18.2750   -2.3063   18.1195 S   0  0  0  0  0  0  0  0  0  0  0  0
   19.5159   -2.4131   18.8612 O   0  0  0  0  0  0  0  0  0  0  0  0
   17.3476   -3.4261   18.1252 O   0  0  0  0  0  0  0  0  0  0  0  0
   18.7351   -2.0436   16.4154 C   0  0  0  0  0  0  0  0  0  0  0  0
   17.9903   -2.6433   15.3903 C   0  0  0  0  0  0  0  0  0  0  0  0
   18.3907   -2.4754   14.0631 C   0  0  0  0  0  0  0  0  0  0  0  0
   19.5319   -1.7326   13.7774 C   0  0  0  0  0  0  0  0  0  0  0  0
   19.9126   -1.5720   12.5041 F   0  0  0  0  0  0  0  0  0  0  0  0
   20.2908   -1.1621   14.7934 C   0  0  0  0  0  0  0  0  0  0  0  0
   19.9013   -1.3278   16.1226 C   0  0  0  0  0  0  0  0  0  0  0  0
   18.2687    0.3972   18.8158 C   0  0  0  0  0  0  0  0  0  0  0  0
   19.1629    0.4254   20.0541 C   0  0  0  0  0  0  0  0  0  0  0  0
   18.3743    0.1678   21.3280 C   0  0  0  0  0  0  0  0  0  0  0  0
   17.5711   -1.1190   21.2318 C   0  0  0  0  0  0  0  0  0  0  0  0
   16.6411   -1.1203   20.0196 C   0  0  0  0  0  0  0  0  0  0  0  0
  1  2  3  0
  2  3  1  0
  3  4  2  0
  4  5  1  0
  5  6  2  0
  6  7  1  0
  7  8  2  0
  8  9  1  0
  9 10  1  0
 10 11  2  0
 10 12  1  0
 12 13  1  0
 13 14  2  0
 13 15  2  0
 13 16  1  0
 16 17  2  0
 17 18  1  0
 18 19  2  0
 19 20  1  0
 19 21  1  0
 21 22  2  0
 12 23  1  0
 23 24  1  0
 24 25  1  0
 25 26  1  0
 26 27  1  0
  8  3  1  0
 27 12  1  0
 22 16  1  0
M  END
>  <ref_mols>  (1101) 
B1396a

>  <gnina_score>  (1101) 
5.153

>  <smina_score_min>  (1101) 
-3.578

>  <ref_pdb>  (1101) 
B1396a

>  <inspiration_score>  (1101) 
None

>  <inchikey>  (1101) 
PPINYQJISRTRAY-UHFFFAOYSA-N

>  <tags>  (1101) 
BulkDock Fragalysis export,openbind_d68ev3c_c2_elabs_scored,openbind_d68ev3c_c2_elabs_scored_4.5plus,openbind_d68ev3c_c2_elabs,openbind_d68ev3c_c2_elabs_scored_5plus,syndirella_product,openbind_d68ev3c_c2_elabs_scored_top80percent,syndirella_placed

>  <smiles>  (1101) 
N#Cc1ccccc1NC(=O)C1(S(=O)(=O)c2ccc(F)cc2)CCCCC1

>  <subsites>  (1101) 
None

>  <rmsd(smina/fragmenstein)>  (1101) 
1.665

>  <alias>  (1101) 
None

>  <energy_score>  (1101) 
-45.043139

>  <HIPPO Pose ID>  (1101) 
95494

>  <distance_score>  (1101) 
0.425704

>  <HIPPO Compound ID>  (1101) 
129385

>  <gnina_score_min>  (1101) 
5.122

>  <name>  (1101) 
P95494

>  <exports>  (1101) 
['/opt/xchem-fragalysis-2/maxwin/BulkDock/OUTPUTS/openbind_d68ev3c_c2_elabs_1LOTQJ3.sdf', '/opt/xchem-fragalysis-2/maxwin/BulkDock/OUTPUTS/openbind_d68ev3c_c2_elabs_1LSYI5W.sdf']

$$$$
P95496
     RDKit          3D

 27 30  0  0  0  0  0  0  0  0999 V2000
   16.8379   -0.1566   16.3858 O   0  0  0  0  0  0  0  0  0  0  0  0
   16.3017   -0.6990   17.2874 C   0  0  0  0  0  0  0  0  0  0  0  0
   14.8347   -1.0127   17.5108 N   0  0  0  0  0  0  0  0  0  0  0  0
   14.4374   -2.4718   16.9039 C   0  0  0  0  0  0  0  0  0  0  0  0
   13.2668   -1.8551   16.3080 C   0  0  0  0  0  0  0  0  0  0  0  0
   12.1543   -1.9065   15.5142 C   0  0  0  0  0  0  0  0  0  0  0  0
   11.5772   -3.4638   14.6854 Br  0  0  0  0  0  0  0  0  0  0  0  0
   11.4820   -0.7180   15.2139 C   0  0  0  0  0  0  0  0  0  0  0  0
   11.9839    0.5084   15.6723 C   0  0  0  0  0  0  0  0  0  0  0  0
   13.1373    0.5453   16.4526 C   0  0  0  0  0  0  0  0  0  0  0  0
   13.7013   -0.6667   16.7605 C   0  0  0  0  0  0  0  0  0  0  0  0
   17.1271   -1.1071   18.5392 C   0  0  0  0  0  0  0  0  0  0  0  0
   18.1372   -2.5305   18.0456 S   0  0  0  0  0  0  0  0  0  0  0  0
   19.3094   -2.6151   18.8976 O   0  0  0  0  0  0  0  0  0  0  0  0
   17.2516   -3.6806   17.9537 O   0  0  0  0  0  0  0  0  0  0  0  0
   18.7727   -2.2689   16.3962 C   0  0  0  0  0  0  0  0  0  0  0  0
   19.8634   -1.4149   16.1997 C   0  0  0  0  0  0  0  0  0  0  0  0
   20.3591   -1.2210   14.9096 C   0  0  0  0  0  0  0  0  0  0  0  0
   19.7867   -1.9029   13.8406 C   0  0  0  0  0  0  0  0  0  0  0  0
   20.2745   -1.7185   12.6073 F   0  0  0  0  0  0  0  0  0  0  0  0
   18.7327   -2.7894   14.0348 C   0  0  0  0  0  0  0  0  0  0  0  0
   18.2252   -2.9833   15.3206 C   0  0  0  0  0  0  0  0  0  0  0  0
   16.2582   -1.4751   19.7725 C   0  0  0  0  0  0  0  0  0  0  0  0
   17.0362   -1.5818   21.0824 C   0  0  0  0  0  0  0  0  0  0  0  0
   17.7799   -0.2913   21.3869 C   0  0  0  0  0  0  0  0  0  0  0  0
   18.7092    0.0965   20.2482 C   0  0  0  0  0  0  0  0  0  0  0  0
   17.9951    0.1354   18.8969 C   0  0  0  0  0  0  0  0  0  0  0  0
  1  2  2  0
  2  3  1  0
  3  4  1  0
  4  5  1  0
  5  6  2  0
  6  7  1  0
  6  8  1  0
  8  9  2  0
  9 10  1  0
 10 11  2  0
  2 12  1  0
 12 13  1  0
 13 14  2  0
 13 15  2  0
 13 16  1  0
 16 17  2  0
 17 18  1  0
 18 19  2  0
 19 20  1  0
 19 21  1  0
 21 22  2  0
 12 23  1  0
 23 24  1  0
 24 25  1  0
 25 26  1  0
 26 27  1  0
 11  3  1  0
 27 12  1  0
 11  5  1  0
 22 16  1  0
M  END
>  <ref_mols>  (1102) 
B1396a

>  <gnina_score>  (1102) 
5.285

>  <smina_score_min>  (1102) 
-3.846

>  <ref_pdb>  (1102) 
B1396a

>  <inspiration_score>  (1102) 
None

>  <inchikey>  (1102) 
KHKAAAYDIGHPMW-UHFFFAOYSA-N

>  <tags>  (1102) 
BulkDock Fragalysis export,openbind_d68ev3c_c2_elabs_scored,openbind_d68ev3c_c2_elabs_scored_4.5plus,openbind_d68ev3c_c2_elabs,openbind_d68ev3c_c2_elabs_scored_5plus,syndirella_product,openbind_d68ev3c_c2_elabs_scored_top80percent,syndirella_placed

>  <smiles>  (1102) 
O=C(N1Cc2c(Br)cccc21)C1(S(=O)(=O)c2ccc(F)cc2)CCCCC1

>  <subsites>  (1102) 
None

>  <rmsd(smina/fragmenstein)>  (1102) 
2.726

>  <alias>  (1102) 
None

>  <energy_score>  (1102) 
-31.944026

>  <HIPPO Pose ID>  (1102) 
95496

>  <distance_score>  (1102) 
0.961993

>  <HIPPO Compound ID>  (1102) 
129387

>  <gnina_score_min>  (1102) 
5.013

>  <name>  (1102) 
P95496

>  <exports>  (1102) 
['/opt/xchem-fragalysis-2/maxwin/BulkDock/OUTPUTS/openbind_d68ev3c_c2_elabs_1LOTQJ3.sdf', '/opt/xchem-fragalysis-2/maxwin/BulkDock/OUTPUTS/openbind_d68ev3c_c2_elabs_1LSYI5W.sdf']

$$$$
P95497
     RDKit          3D

 27 29  0  0  0  0  0  0  0  0999 V2000
   13.9522   -4.0515   17.8093 C   0  0  0  0  0  0  0  0  0  0  0  0
   13.4646   -2.9096   16.9525 C   0  0  0  0  0  0  0  0  0  0  0  0
   12.3015   -3.0543   16.1826 C   0  0  0  0  0  0  0  0  0  0  0  0
   11.6556   -4.2440   16.2595 O   0  0  0  0  0  0  0  0  0  0  0  0
   11.8141   -2.0349   15.3733 C   0  0  0  0  0  0  0  0  0  0  0  0
   12.5077   -0.8311   15.3215 C   0  0  0  0  0  0  0  0  0  0  0  0
   13.6793   -0.6628   16.0671 C   0  0  0  0  0  0  0  0  0  0  0  0
   14.1629   -1.6940   16.8790 C   0  0  0  0  0  0  0  0  0  0  0  0
   15.3275   -1.5262   17.6312 N   0  0  0  0  0  0  0  0  0  0  0  0
   16.4020   -0.3924   17.5976 C   0  0  0  0  0  0  0  0  0  0  0  0
   16.4302    0.6085   16.9884 O   0  0  0  0  0  0  0  0  0  0  0  0
   17.5094   -0.7100   18.6506 C   0  0  0  0  0  0  0  0  0  0  0  0
   18.3371   -2.2325   18.1251 S   0  0  0  0  0  0  0  0  0  0  0  0
   17.3635   -3.3114   18.1984 O   0  0  0  0  0  0  0  0  0  0  0  0
   19.5936   -2.3806   18.8341 O   0  0  0  0  0  0  0  0  0  0  0  0
   18.7570   -2.0353   16.4027 C   0  0  0  0  0  0  0  0  0  0  0  0
   17.9237   -2.5691   15.4110 C   0  0  0  0  0  0  0  0  0  0  0  0
   18.2867   -2.4375   14.0688 C   0  0  0  0  0  0  0  0  0  0  0  0
   19.4778   -1.7998   13.7356 C   0  0  0  0  0  0  0  0  0  0  0  0
   19.8209   -1.6740   12.4478 F   0  0  0  0  0  0  0  0  0  0  0  0
   20.3223   -1.2966   14.7186 C   0  0  0  0  0  0  0  0  0  0  0  0
   19.9696   -1.4244   16.0618 C   0  0  0  0  0  0  0  0  0  0  0  0
   18.4920    0.4967   18.6999 C   0  0  0  0  0  0  0  0  0  0  0  0
   19.4491    0.5306   19.8900 C   0  0  0  0  0  0  0  0  0  0  0  0
   18.7148    0.3671   21.2112 C   0  0  0  0  0  0  0  0  0  0  0  0
   17.8467   -0.8807   21.2131 C   0  0  0  0  0  0  0  0  0  0  0  0
   16.8583   -0.8895   20.0480 C   0  0  0  0  0  0  0  0  0  0  0  0
  1  2  1  0
  2  3  2  0
  3  4  1  0
  3  5  1  0
  5  6  2  0
  6  7  1  0
  7  8  2  0
  8  9  1  0
  9 10  1  0
 10 11  2  0
 10 12  1  0
 12 13  1  0
 13 14  2  0
 13 15  2  0
 13 16  1  0
 16 17  2  0
 17 18  1  0
 18 19  2  0
 19 20  1  0
 19 21  1  0
 21 22  2  0
 12 23  1  0
 23 24  1  0
 24 25  1  0
 25 26  1  0
 26 27  1  0
  8  2  1  0
 27 12  1  0
 22 16  1  0
M  END
>  <ref_mols>  (1103) 
B1396a

>  <gnina_score>  (1103) 
4.91

>  <smina_score_min>  (1103) 
-3.213

>  <ref_pdb>  (1103) 
B1396a

>  <inspiration_score>  (1103) 
None

>  <inchikey>  (1103) 
HBVCPOQUYZFGHN-UHFFFAOYSA-N

>  <tags>  (1103) 
BulkDock Fragalysis export,openbind_d68ev3c_c2_elabs_scored,openbind_d68ev3c_c2_elabs_scored_4.5plus,openbind_d68ev3c_c2_elabs,openbind_d68ev3c_c2_elabs_scored_5plus,syndirella_product,openbind_d68ev3c_c2_elabs_scored_top80percent,syndirella_placed

>  <smiles>  (1103) 
Cc1c(O)cccc1NC(=O)C1(S(=O)(=O)c2ccc(F)cc2)CCCCC1

>  <subsites>  (1103) 
None

>  <rmsd(smina/fragmenstein)>  (1103) 
1.631

>  <alias>  (1103) 
None

>  <energy_score>  (1103) 
-61.906973

>  <HIPPO Pose ID>  (1103) 
95497

>  <distance_score>  (1103) 
0.524854

>  <HIPPO Compound ID>  (1103) 
129388

>  <gnina_score_min>  (1103) 
5.06

>  <name>  (1103) 
P95497

>  <exports>  (1103) 
['/opt/xchem-fragalysis-2/maxwin/BulkDock/OUTPUTS/openbind_d68ev3c_c2_elabs_1LOTQJ3.sdf', '/opt/xchem-fragalysis-2/maxwin/BulkDock/OUTPUTS/openbind_d68ev3c_c2_elabs_1LSYI5W.sdf']

$$$$
P95498
     RDKit          3D

 27 29  0  0  0  0  0  0  0  0999 V2000
   13.7542   -3.5977   17.2755 C   0  0  0  0  0  0  0  0  0  0  0  0
   13.5118   -2.2002   16.7572 C   0  0  0  0  0  0  0  0  0  0  0  0
   12.4950   -1.8886   15.8334 C   0  0  0  0  0  0  0  0  0  0  0  0
   11.4691   -3.2619   14.7185 I   0  0  0  0  0  0  0  0  0  0  0  0
   12.2003   -0.5712   15.4667 C   0  0  0  0  0  0  0  0  0  0  0  0
   12.9812    0.4626   15.9378 C   0  0  0  0  0  0  0  0  0  0  0  0
   14.0778    0.1710   16.7376 C   0  0  0  0  0  0  0  0  0  0  0  0
   14.3586   -1.1412   17.1399 C   0  0  0  0  0  0  0  0  0  0  0  0
   15.5389   -1.3835   17.8480 N   0  0  0  0  0  0  0  0  0  0  0  0
   16.6992   -0.4137   18.2500 C   0  0  0  0  0  0  0  0  0  0  0  0
   16.8737    0.7140   17.9805 O   0  0  0  0  0  0  0  0  0  0  0  0
   17.6960   -1.1506   19.1742 C   0  0  0  0  0  0  0  0  0  0  0  0
   18.3378   -2.5928   18.2937 S   0  0  0  0  0  0  0  0  0  0  0  0
   19.5987   -2.9862   18.8935 O   0  0  0  0  0  0  0  0  0  0  0  0
   17.2594   -3.5670   18.2115 O   0  0  0  0  0  0  0  0  0  0  0  0
   18.7142   -2.1167   16.6155 C   0  0  0  0  0  0  0  0  0  0  0  0
   19.8694   -1.3742   16.3506 C   0  0  0  0  0  0  0  0  0  0  0  0
   20.2082   -1.0799   15.0281 C   0  0  0  0  0  0  0  0  0  0  0  0
   19.4086   -1.5457   13.9890 C   0  0  0  0  0  0  0  0  0  0  0  0
   19.7438   -1.2626   12.7243 F   0  0  0  0  0  0  0  0  0  0  0  0
   18.2706   -2.3033   14.2437 C   0  0  0  0  0  0  0  0  0  0  0  0
   17.9205   -2.5975   15.5631 C   0  0  0  0  0  0  0  0  0  0  0  0
   18.8814   -0.1959   19.5334 C   0  0  0  0  0  0  0  0  0  0  0  0
   18.5688    0.6823   20.7431 C   0  0  0  0  0  0  0  0  0  0  0  0
   18.3554   -0.1548   22.0026 C   0  0  0  0  0  0  0  0  0  0  0  0
   17.8375   -1.5607   21.7075 C   0  0  0  0  0  0  0  0  0  0  0  0
   16.9475   -1.5873   20.4685 C   0  0  0  0  0  0  0  0  0  0  0  0
  1  2  1  0
  2  3  2  0
  3  4  1  0
  3  5  1  0
  5  6  2  0
  6  7  1  0
  7  8  2  0
  8  9  1  0
  9 10  1  0
 10 11  2  0
 10 12  1  0
 12 13  1  0
 13 14  2  0
 13 15  2  0
 13 16  1  0
 16 17  2  0
 17 18  1  0
 18 19  2  0
 19 20  1  0
 19 21  1  0
 21 22  2  0
 12 23  1  0
 23 24  1  0
 24 25  1  0
 25 26  1  0
 26 27  1  0
  8  2  1  0
 27 12  1  0
 22 16  1  0
M  END
>  <ref_mols>  (1104) 
B1396a

>  <gnina_score>  (1104) 
5.288

>  <smina_score_min>  (1104) 
-3.469

>  <ref_pdb>  (1104) 
B1396a

>  <inspiration_score>  (1104) 
None

>  <inchikey>  (1104) 
RHOODHXIGZAOFA-UHFFFAOYSA-N

>  <tags>  (1104) 
BulkDock Fragalysis export,openbind_d68ev3c_c2_elabs_scored,openbind_d68ev3c_c2_elabs_scored_4.5plus,openbind_d68ev3c_c2_elabs,openbind_d68ev3c_c2_elabs_scored_5plus,syndirella_product,openbind_d68ev3c_c2_elabs_scored_top80percent,syndirella_placed

>  <smiles>  (1104) 
Cc1c(I)cccc1NC(=O)C1(S(=O)(=O)c2ccc(F)cc2)CCCCC1

>  <subsites>  (1104) 
None

>  <rmsd(smina/fragmenstein)>  (1104) 
3.051

>  <alias>  (1104) 
None

>  <energy_score>  (1104) 
-39.640478

>  <HIPPO Pose ID>  (1104) 
95498

>  <distance_score>  (1104) 
1.067671

>  <HIPPO Compound ID>  (1104) 
129389

>  <gnina_score_min>  (1104) 
5.135

>  <name>  (1104) 
P95498

>  <exports>  (1104) 
['/opt/xchem-fragalysis-2/maxwin/BulkDock/OUTPUTS/openbind_d68ev3c_c2_elabs_1LOTQJ3.sdf', '/opt/xchem-fragalysis-2/maxwin/BulkDock/OUTPUTS/openbind_d68ev3c_c2_elabs_1LSYI5W.sdf']

$$$$
P95499
     RDKit          3D

 27 29  0  0  0  0  0  0  0  0999 V2000
   13.8880   -4.2682   17.7655 C   0  0  0  0  0  0  0  0  0  0  0  0
   13.4143   -3.0973   16.9503 C   0  0  0  0  0  0  0  0  0  0  0  0
   12.2244   -3.2243   16.2184 C   0  0  0  0  0  0  0  0  0  0  0  0
   11.7486   -2.1673   15.4554 C   0  0  0  0  0  0  0  0  0  0  0  0
   10.5931   -2.3053   14.7970 F   0  0  0  0  0  0  0  0  0  0  0  0
   12.4421   -0.9705   15.3900 C   0  0  0  0  0  0  0  0  0  0  0  0
   13.6306   -0.8287   16.1094 C   0  0  0  0  0  0  0  0  0  0  0  0
   14.1165   -1.8798   16.8981 C   0  0  0  0  0  0  0  0  0  0  0  0
   15.2799   -1.7183   17.6511 N   0  0  0  0  0  0  0  0  0  0  0  0
   16.2924   -0.5283   17.7117 C   0  0  0  0  0  0  0  0  0  0  0  0
   16.2584    0.5241   17.1965 O   0  0  0  0  0  0  0  0  0  0  0  0
   17.4288   -0.8722   18.7167 C   0  0  0  0  0  0  0  0  0  0  0  0
   18.2887   -2.3562   18.1399 S   0  0  0  0  0  0  0  0  0  0  0  0
   19.5371   -2.4895   18.8683 O   0  0  0  0  0  0  0  0  0  0  0  0
   17.3415   -3.4597   18.1646 O   0  0  0  0  0  0  0  0  0  0  0  0
   18.7206   -2.0754   16.4344 C   0  0  0  0  0  0  0  0  0  0  0  0
   19.8908   -1.3692   16.1326 C   0  0  0  0  0  0  0  0  0  0  0  0
   20.2580   -1.1854   14.7996 C   0  0  0  0  0  0  0  0  0  0  0  0
   19.4701   -1.7241   13.7884 C   0  0  0  0  0  0  0  0  0  0  0  0
   19.8284   -1.5449   12.5111 F   0  0  0  0  0  0  0  0  0  0  0  0
   18.3202   -2.4503   14.0827 C   0  0  0  0  0  0  0  0  0  0  0  0
   17.9423   -2.6377   15.4140 C   0  0  0  0  0  0  0  0  0  0  0  0
   16.8003   -1.1278   20.1188 C   0  0  0  0  0  0  0  0  0  0  0  0
   17.6918   -0.6651   21.2676 C   0  0  0  0  0  0  0  0  0  0  0  0
   17.9587    0.8370   21.2100 C   0  0  0  0  0  0  0  0  0  0  0  0
   18.0126    1.3838   19.7851 C   0  0  0  0  0  0  0  0  0  0  0  0
   18.4446    0.3121   18.7868 C   0  0  0  0  0  0  0  0  0  0  0  0
  1  2  1  0
  2  3  2  0
  3  4  1  0
  4  5  1  0
  4  6  2  0
  6  7  1  0
  7  8  2  0
  8  9  1  0
  9 10  1  0
 10 11  2  0
 10 12  1  0
 12 13  1  0
 13 14  2  0
 13 15  2  0
 13 16  1  0
 16 17  2  0
 17 18  1  0
 18 19  2  0
 19 20  1  0
 19 21  1  0
 21 22  2  0
 12 23  1  0
 23 24  1  0
 24 25  1  0
 25 26  1  0
 26 27  1  0
  8  2  1  0
 27 12  1  0
 22 16  1  0
M  END
>  <ref_mols>  (1105) 
B1396a

>  <gnina_score>  (1105) 
5.16

>  <smina_score_min>  (1105) 
-3.735

>  <ref_pdb>  (1105) 
B1396a

>  <inspiration_score>  (1105) 
None

>  <inchikey>  (1105) 
PQHOFKAGMAEKLG-UHFFFAOYSA-N

>  <tags>  (1105) 
BulkDock Fragalysis export,openbind_d68ev3c_c2_elabs_scored,openbind_d68ev3c_c2_elabs_scored_4.5plus,openbind_d68ev3c_c2_elabs,openbind_d68ev3c_c2_elabs_scored_5plus,syndirella_product,openbind_d68ev3c_c2_elabs_scored_top80percent,syndirella_placed

>  <smiles>  (1105) 
Cc1cc(F)ccc1NC(=O)C1(S(=O)(=O)c2ccc(F)cc2)CCCCC1

>  <subsites>  (1105) 
None

>  <rmsd(smina/fragmenstein)>  (1105) 
1.506

>  <alias>  (1105) 
None

>  <energy_score>  (1105) 
-43.463643

>  <HIPPO Pose ID>  (1105) 
95499

>  <distance_score>  (1105) 
0.470314

>  <HIPPO Compound ID>  (1105) 
129390

>  <gnina_score_min>  (1105) 
5.116

>  <name>  (1105) 
P95499

>  <exports>  (1105) 
['/opt/xchem-fragalysis-2/maxwin/BulkDock/OUTPUTS/openbind_d68ev3c_c2_elabs_1LOTQJ3.sdf', '/opt/xchem-fragalysis-2/maxwin/BulkDock/OUTPUTS/openbind_d68ev3c_c2_elabs_1LSYI5W.sdf']

$$$$
P95501
     RDKit          3D

 27 29  0  0  0  0  0  0  0  0999 V2000
   13.7938   -4.0453   17.5969 C   0  0  0  0  0  0  0  0  0  0  0  0
   13.2638   -2.8819   16.7930 C   0  0  0  0  0  0  0  0  0  0  0  0
   12.1282   -3.1132   15.9949 C   0  0  0  0  0  0  0  0  0  0  0  0
   11.5829   -2.1058   15.2131 C   0  0  0  0  0  0  0  0  0  0  0  0
   12.1410   -0.8363   15.2574 C   0  0  0  0  0  0  0  0  0  0  0  0
   13.2658   -0.5696   16.0607 C   0  0  0  0  0  0  0  0  0  0  0  0
   13.6604    1.4968   16.2531 I   0  0  0  0  0  0  0  0  0  0  0  0
   13.8800   -1.6032   16.7988 C   0  0  0  0  0  0  0  0  0  0  0  0
   15.0445   -1.4759   17.5828 N   0  0  0  0  0  0  0  0  0  0  0  0
   16.2931   -0.5509   17.4035 C   0  0  0  0  0  0  0  0  0  0  0  0
   16.5038    0.2966   16.6216 O   0  0  0  0  0  0  0  0  0  0  0  0
   17.3162   -0.8139   18.5459 C   0  0  0  0  0  0  0  0  0  0  0  0
   18.1758   -2.3435   18.1049 S   0  0  0  0  0  0  0  0  0  0  0  0
   19.3772   -2.4537   18.9132 O   0  0  0  0  0  0  0  0  0  0  0  0
   17.2020   -3.4224   18.1374 O   0  0  0  0  0  0  0  0  0  0  0  0
   18.7120   -2.1669   16.4136 C   0  0  0  0  0  0  0  0  0  0  0  0
   19.9369   -1.5445   16.1451 C   0  0  0  0  0  0  0  0  0  0  0  0
   20.3624   -1.4062   14.8242 C   0  0  0  0  0  0  0  0  0  0  0  0
   19.5773   -1.9094   13.7930 C   0  0  0  0  0  0  0  0  0  0  0  0
   19.9909   -1.7741   12.5270 F   0  0  0  0  0  0  0  0  0  0  0  0
   18.3736   -2.5569   14.0557 C   0  0  0  0  0  0  0  0  0  0  0  0
   17.9371   -2.6985   15.3748 C   0  0  0  0  0  0  0  0  0  0  0  0
   18.3419    0.3583   18.6112 C   0  0  0  0  0  0  0  0  0  0  0  0
   17.7411    1.6612   19.1506 C   0  0  0  0  0  0  0  0  0  0  0  0
   17.0617    1.4664   20.4992 C   0  0  0  0  0  0  0  0  0  0  0  0
   16.0519    0.3272   20.4590 C   0  0  0  0  0  0  0  0  0  0  0  0
   16.6982   -0.9629   19.9587 C   0  0  0  0  0  0  0  0  0  0  0  0
  1  2  1  0
  2  3  2  0
  3  4  1  0
  4  5  2  0
  5  6  1  0
  6  7  1  0
  6  8  2  0
  8  9  1  0
  9 10  1  0
 10 11  2  0
 10 12  1  0
 12 13  1  0
 13 14  2  0
 13 15  2  0
 13 16  1  0
 16 17  2  0
 17 18  1  0
 18 19  2  0
 19 20  1  0
 19 21  1  0
 21 22  2  0
 12 23  1  0
 23 24  1  0
 24 25  1  0
 25 26  1  0
 26 27  1  0
  8  2  1  0
 27 12  1  0
 22 16  1  0
M  END
>  <ref_mols>  (1106) 
B1396a

>  <gnina_score>  (1106) 
5.217

>  <smina_score_min>  (1106) 
-3.879

>  <ref_pdb>  (1106) 
B1396a

>  <inspiration_score>  (1106) 
None

>  <inchikey>  (1106) 
NEDCYASDFJOCFO-UHFFFAOYSA-N

>  <tags>  (1106) 
BulkDock Fragalysis export,openbind_d68ev3c_c2_elabs_scored,openbind_d68ev3c_c2_elabs_scored_4.5plus,openbind_d68ev3c_c2_elabs,openbind_d68ev3c_c2_elabs_scored_5plus,syndirella_product,openbind_d68ev3c_c2_elabs_scored_top80percent,syndirella_placed

>  <smiles>  (1106) 
Cc1cccc(I)c1NC(=O)C1(S(=O)(=O)c2ccc(F)cc2)CCCCC1

>  <subsites>  (1106) 
None

>  <rmsd(smina/fragmenstein)>  (1106) 
1.832

>  <alias>  (1106) 
None

>  <energy_score>  (1106) 
-25.426882

>  <HIPPO Pose ID>  (1106) 
95501

>  <distance_score>  (1106) 
0.390829

>  <HIPPO Compound ID>  (1106) 
129392

>  <gnina_score_min>  (1106) 
5.141

>  <name>  (1106) 
P95501

>  <exports>  (1106) 
['/opt/xchem-fragalysis-2/maxwin/BulkDock/OUTPUTS/openbind_d68ev3c_c2_elabs_1LOTQJ3.sdf', '/opt/xchem-fragalysis-2/maxwin/BulkDock/OUTPUTS/openbind_d68ev3c_c2_elabs_1LSYI5W.sdf']

$$$$
P95502
     RDKit          3D

 27 29  0  0  0  0  0  0  0  0999 V2000
   13.7329   -4.1918   17.6629 C   0  0  0  0  0  0  0  0  0  0  0  0
   13.3104   -3.0130   16.8286 C   0  0  0  0  0  0  0  0  0  0  0  0
   12.1442   -3.1191   16.0481 C   0  0  0  0  0  0  0  0  0  0  0  0
   11.7100   -2.0555   15.2609 C   0  0  0  0  0  0  0  0  0  0  0  0
   12.4459   -0.8814   15.2508 C   0  0  0  0  0  0  0  0  0  0  0  0
   12.0312    0.1465   14.4989 F   0  0  0  0  0  0  0  0  0  0  0  0
   13.6058   -0.7516   16.0084 C   0  0  0  0  0  0  0  0  0  0  0  0
   14.0436   -1.8124   16.8049 C   0  0  0  0  0  0  0  0  0  0  0  0
   15.1932   -1.6800   17.5874 N   0  0  0  0  0  0  0  0  0  0  0  0
   16.2311   -0.5137   17.6770 C   0  0  0  0  0  0  0  0  0  0  0  0
   16.2337    0.5409   17.1652 O   0  0  0  0  0  0  0  0  0  0  0  0
   17.3361   -0.8841   18.7075 C   0  0  0  0  0  0  0  0  0  0  0  0
   18.1952   -2.3695   18.1330 S   0  0  0  0  0  0  0  0  0  0  0  0
   19.4293   -2.5197   18.8828 O   0  0  0  0  0  0  0  0  0  0  0  0
   17.2394   -3.4659   18.1303 O   0  0  0  0  0  0  0  0  0  0  0  0
   18.6623   -2.0795   16.4381 C   0  0  0  0  0  0  0  0  0  0  0  0
   19.8434   -1.3804   16.1633 C   0  0  0  0  0  0  0  0  0  0  0  0
   20.2387   -1.1935   14.8386 C   0  0  0  0  0  0  0  0  0  0  0  0
   19.4676   -1.7221   13.8091 C   0  0  0  0  0  0  0  0  0  0  0  0
   19.8535   -1.5408   12.5402 F   0  0  0  0  0  0  0  0  0  0  0  0
   18.3064   -2.4407   14.0768 C   0  0  0  0  0  0  0  0  0  0  0  0
   17.9005   -2.6309   15.3995 C   0  0  0  0  0  0  0  0  0  0  0  0
   16.6701   -1.1495   20.0903 C   0  0  0  0  0  0  0  0  0  0  0  0
   17.5366   -0.7091   21.2667 C   0  0  0  0  0  0  0  0  0  0  0  0
   17.8188    0.7909   21.2337 C   0  0  0  0  0  0  0  0  0  0  0  0
   17.9166    1.3529   19.8171 C   0  0  0  0  0  0  0  0  0  0  0  0
   18.3637    0.2874   18.8187 C   0  0  0  0  0  0  0  0  0  0  0  0
  1  2  1  0
  2  3  2  0
  3  4  1  0
  4  5  2  0
  5  6  1  0
  5  7  1  0
  7  8  2  0
  8  9  1  0
  9 10  1  0
 10 11  2  0
 10 12  1  0
 12 13  1  0
 13 14  2  0
 13 15  2  0
 13 16  1  0
 16 17  2  0
 17 18  1  0
 18 19  2  0
 19 20  1  0
 19 21  1  0
 21 22  2  0
 12 23  1  0
 23 24  1  0
 24 25  1  0
 25 26  1  0
 26 27  1  0
  8  2  1  0
 27 12  1  0
 22 16  1  0
M  END
>  <ref_mols>  (1107) 
B1396a

>  <gnina_score>  (1107) 
5.15

>  <smina_score_min>  (1107) 
-4.007

>  <ref_pdb>  (1107) 
B1396a

>  <inspiration_score>  (1107) 
None

>  <inchikey>  (1107) 
LOFRBEKKKSMAEA-UHFFFAOYSA-N

>  <tags>  (1107) 
BulkDock Fragalysis export,openbind_d68ev3c_c2_elabs_scored,openbind_d68ev3c_c2_elabs_scored_4.5plus,openbind_d68ev3c_c2_elabs,openbind_d68ev3c_c2_elabs_scored_5plus,syndirella_product,openbind_d68ev3c_c2_elabs_scored_top80percent,syndirella_placed

>  <smiles>  (1107) 
Cc1ccc(F)cc1NC(=O)C1(S(=O)(=O)c2ccc(F)cc2)CCCCC1

>  <subsites>  (1107) 
None

>  <rmsd(smina/fragmenstein)>  (1107) 
2.107

>  <alias>  (1107) 
None

>  <energy_score>  (1107) 
-63.79978

>  <HIPPO Pose ID>  (1107) 
95502

>  <distance_score>  (1107) 
0.464204

>  <HIPPO Compound ID>  (1107) 
129393

>  <gnina_score_min>  (1107) 
5.116

>  <name>  (1107) 
P95502

>  <exports>  (1107) 
['/opt/xchem-fragalysis-2/maxwin/BulkDock/OUTPUTS/openbind_d68ev3c_c2_elabs_1LOTQJ3.sdf', '/opt/xchem-fragalysis-2/maxwin/BulkDock/OUTPUTS/openbind_d68ev3c_c2_elabs_1LSYI5W.sdf']

$$$$
P95504
     RDKit          3D

 27 29  0  0  0  0  0  0  0  0999 V2000
   20.2362    0.1836   14.0567 C   0  0  0  0  0  0  0  0  0  0  0  0
   19.6083   -1.0756   14.5779 C   0  0  0  0  0  0  0  0  0  0  0  0
   19.4187   -2.1711   13.7382 C   0  0  0  0  0  0  0  0  0  0  0  0
   18.8859   -3.3580   14.2408 C   0  0  0  0  0  0  0  0  0  0  0  0
   18.5175   -3.4806   15.5933 C   0  0  0  0  0  0  0  0  0  0  0  0
   18.0168   -4.8208   16.0570 C   0  0  0  0  0  0  0  0  0  0  0  0
   18.6698   -2.3588   16.4334 C   0  0  0  0  0  0  0  0  0  0  0  0
   18.1923   -2.3894   18.1627 S   0  0  0  0  0  0  0  0  0  0  0  0
   17.1864   -3.4274   18.3341 O   0  0  0  0  0  0  0  0  0  0  0  0
   19.4292   -2.4716   18.9178 O   0  0  0  0  0  0  0  0  0  0  0  0
   17.3516   -0.8647   18.5849 C   0  0  0  0  0  0  0  0  0  0  0  0
   16.3337   -0.5562   17.4566 C   0  0  0  0  0  0  0  0  0  0  0  0
   16.4919    0.3701   16.7554 O   0  0  0  0  0  0  0  0  0  0  0  0
   15.1658   -1.5990   17.5116 N   0  0  0  0  0  0  0  0  0  0  0  0
   13.9488   -1.6507   16.7974 C   0  0  0  0  0  0  0  0  0  0  0  0
   13.2959   -2.9120   16.7778 C   0  0  0  0  0  0  0  0  0  0  0  0
   13.8081   -4.1026   17.5529 C   0  0  0  0  0  0  0  0  0  0  0  0
   12.1297   -3.0938   16.0104 C   0  0  0  0  0  0  0  0  0  0  0  0
   11.5816   -2.0497   15.2807 C   0  0  0  0  0  0  0  0  0  0  0  0
   12.1665   -0.7942   15.3565 C   0  0  0  0  0  0  0  0  0  0  0  0
   13.3246   -0.5801   16.1262 C   0  0  0  0  0  0  0  0  0  0  0  0
   13.7498    1.2604   16.3484 Br  0  0  0  0  0  0  0  0  0  0  0  0
   16.6727   -0.9802   19.9712 C   0  0  0  0  0  0  0  0  0  0  0  0
   16.5642    0.4552   20.4538 C   0  0  0  0  0  0  0  0  0  0  0  0
   17.9136    1.0375   20.0919 C   0  0  0  0  0  0  0  0  0  0  0  0
   18.3404    0.3193   18.8090 C   0  0  0  0  0  0  0  0  0  0  0  0
   19.2537   -1.1858   15.9283 C   0  0  0  0  0  0  0  0  0  0  0  0
  1  2  1  0
  2  3  2  0
  3  4  1  0
  4  5  2  0
  5  6  1  0
  5  7  1  0
  7  8  1  0
  8  9  2  0
  8 10  2  0
  8 11  1  0
 11 12  1  0
 12 13  2  0
 12 14  1  0
 14 15  1  0
 15 16  2  0
 16 17  1  0
 16 18  1  0
 18 19  2  0
 19 20  1  0
 20 21  2  0
 21 22  1  0
 11 23  1  0
 23 24  1  0
 24 25  1  0
 25 26  1  0
  7 27  2  0
 27  2  1  0
 26 11  1  0
 21 15  1  0
M  END
>  <ref_mols>  (1108) 
B1396a

>  <gnina_score>  (1108) 
5.12

>  <smina_score_min>  (1108) 
-3.714

>  <ref_pdb>  (1108) 
B1396a

>  <inspiration_score>  (1108) 
None

>  <inchikey>  (1108) 
RLZXYZLUTAPARR-UHFFFAOYSA-N

>  <tags>  (1108) 
BulkDock Fragalysis export,openbind_d68ev3c_c2_elabs_scored,openbind_d68ev3c_c2_elabs_scored_4.5plus,openbind_d68ev3c_c2_elabs,openbind_d68ev3c_c2_elabs_scored_5plus,syndirella_product,openbind_d68ev3c_c2_elabs_scored_top80percent,syndirella_placed

>  <smiles>  (1108) 
Cc1ccc(C)c(S(=O)(=O)C2(C(=O)Nc3c(C)cccc3Br)CCCC2)c1

>  <subsites>  (1108) 
None

>  <rmsd(smina/fragmenstein)>  (1108) 
1.584

>  <alias>  (1108) 
None

>  <energy_score>  (1108) 
-47.880382

>  <HIPPO Pose ID>  (1108) 
95504

>  <distance_score>  (1108) 
0.384998

>  <HIPPO Compound ID>  (1108) 
129395

>  <gnina_score_min>  (1108) 
5.265

>  <name>  (1108) 
P95504

>  <exports>  (1108) 
['/opt/xchem-fragalysis-2/maxwin/BulkDock/OUTPUTS/openbind_d68ev3c_c2_elabs_1LOTQJ3.sdf', '/opt/xchem-fragalysis-2/maxwin/BulkDock/OUTPUTS/openbind_d68ev3c_c2_elabs_1LSYI5W.sdf']

$$$$
P95505
     RDKit          3D

 27 29  0  0  0  0  0  0  0  0999 V2000
   19.7457    0.4434   13.9764 C   0  0  0  0  0  0  0  0  0  0  0  0
   19.3724   -0.9014   14.5288 C   0  0  0  0  0  0  0  0  0  0  0  0
   19.2569   -2.0036   13.6836 C   0  0  0  0  0  0  0  0  0  0  0  0
   18.8913   -3.2470   14.1970 C   0  0  0  0  0  0  0  0  0  0  0  0
   18.6152   -3.4191   15.5654 C   0  0  0  0  0  0  0  0  0  0  0  0
   18.2877   -4.8111   16.0344 C   0  0  0  0  0  0  0  0  0  0  0  0
   18.6769   -2.2910   16.4124 C   0  0  0  0  0  0  0  0  0  0  0  0
   18.3026   -2.4145   18.1653 S   0  0  0  0  0  0  0  0  0  0  0  0
   17.3577   -3.5101   18.3212 O   0  0  0  0  0  0  0  0  0  0  0  0
   19.5838   -2.4726   18.8443 O   0  0  0  0  0  0  0  0  0  0  0  0
   17.4157   -0.9531   18.7211 C   0  0  0  0  0  0  0  0  0  0  0  0
   16.3455   -0.6000   17.6608 C   0  0  0  0  0  0  0  0  0  0  0  0
   16.3840    0.4184   17.0806 O   0  0  0  0  0  0  0  0  0  0  0  0
   15.3121   -1.7733   17.5815 N   0  0  0  0  0  0  0  0  0  0  0  0
   14.1157   -1.8803   16.8701 C   0  0  0  0  0  0  0  0  0  0  0  0
   13.6289   -0.7969   16.1316 C   0  0  0  0  0  0  0  0  0  0  0  0
   12.4329   -0.8996   15.4170 C   0  0  0  0  0  0  0  0  0  0  0  0
   11.7139   -2.0881   15.4319 C   0  0  0  0  0  0  0  0  0  0  0  0
   12.1894   -3.1707   16.1715 C   0  0  0  0  0  0  0  0  0  0  0  0
   13.3902   -3.0875   16.9030 C   0  0  0  0  0  0  0  0  0  0  0  0
   13.8778   -4.3172   17.6373 C   0  0  0  0  0  0  0  0  0  0  0  0
   13.8851   -4.1393   19.4383 S   0  0  0  0  0  0  0  0  0  0  0  0
   16.7469   -1.2165   20.1043 C   0  0  0  0  0  0  0  0  0  0  0  0
   17.0408    0.0098   20.9551 C   0  0  0  0  0  0  0  0  0  0  0  0
   18.4380    0.3880   20.5254 C   0  0  0  0  0  0  0  0  0  0  0  0
   18.3904    0.2277   19.0111 C   0  0  0  0  0  0  0  0  0  0  0  0
   19.0702   -1.0497   15.8891 C   0  0  0  0  0  0  0  0  0  0  0  0
  1  2  1  0
  2  3  2  0
  3  4  1  0
  4  5  2  0
  5  6  1  0
  5  7  1  0
  7  8  1  0
  8  9  2  0
  8 10  2  0
  8 11  1  0
 11 12  1  0
 12 13  2  0
 12 14  1  0
 14 15  1  0
 15 16  2  0
 16 17  1  0
 17 18  2  0
 18 19  1  0
 19 20  2  0
 20 21  1  0
 21 22  1  0
 11 23  1  0
 23 24  1  0
 24 25  1  0
 25 26  1  0
  7 27  2  0
 27  2  1  0
 26 11  1  0
 20 15  1  0
M  END
>  <ref_mols>  (1109) 
B1396a

>  <gnina_score>  (1109) 
5.1

>  <smina_score_min>  (1109) 
-3.286

>  <ref_pdb>  (1109) 
B1396a

>  <inspiration_score>  (1109) 
None

>  <inchikey>  (1109) 
XROKIUFLXANDCI-UHFFFAOYSA-N

>  <tags>  (1109) 
BulkDock Fragalysis export,openbind_d68ev3c_c2_elabs_scored,openbind_d68ev3c_c2_elabs_scored_4.5plus,openbind_d68ev3c_c2_elabs,openbind_d68ev3c_c2_elabs_scored_5plus,syndirella_product,openbind_d68ev3c_c2_elabs_scored_top80percent,syndirella_placed

>  <smiles>  (1109) 
Cc1ccc(C)c(S(=O)(=O)C2(C(=O)Nc3ccccc3CS)CCCC2)c1

>  <subsites>  (1109) 
None

>  <rmsd(smina/fragmenstein)>  (1109) 
2.177

>  <alias>  (1109) 
None

>  <energy_score>  (1109) 
-59.412365

>  <HIPPO Pose ID>  (1109) 
95505

>  <distance_score>  (1109) 
0.449896

>  <HIPPO Compound ID>  (1109) 
129396

>  <gnina_score_min>  (1109) 
5.035

>  <name>  (1109) 
P95505

>  <exports>  (1109) 
['/opt/xchem-fragalysis-2/maxwin/BulkDock/OUTPUTS/openbind_d68ev3c_c2_elabs_1LOTQJ3.sdf', '/opt/xchem-fragalysis-2/maxwin/BulkDock/OUTPUTS/openbind_d68ev3c_c2_elabs_1LSYI5W.sdf']

$$$$
P95506
     RDKit          3D

 27 29  0  0  0  0  0  0  0  0999 V2000
   20.2054    0.3746   14.2095 C   0  0  0  0  0  0  0  0  0  0  0  0
   19.5651   -0.9017   14.6714 C   0  0  0  0  0  0  0  0  0  0  0  0
   19.3488   -1.9470   13.7753 C   0  0  0  0  0  0  0  0  0  0  0  0
   18.8166   -3.1568   14.2207 C   0  0  0  0  0  0  0  0  0  0  0  0
   18.4727   -3.3507   15.5709 C   0  0  0  0  0  0  0  0  0  0  0  0
   17.9833   -4.7151   15.9726 C   0  0  0  0  0  0  0  0  0  0  0  0
   18.6445   -2.2754   16.4673 C   0  0  0  0  0  0  0  0  0  0  0  0
   18.2122   -2.4011   18.2009 S   0  0  0  0  0  0  0  0  0  0  0  0
   19.4697   -2.4937   18.9186 O   0  0  0  0  0  0  0  0  0  0  0  0
   17.2305   -3.4667   18.3391 O   0  0  0  0  0  0  0  0  0  0  0  0
   17.3468   -0.9295   18.7284 C   0  0  0  0  0  0  0  0  0  0  0  0
   16.2844   -0.5480   17.6678 C   0  0  0  0  0  0  0  0  0  0  0  0
   16.3491    0.4823   17.1137 O   0  0  0  0  0  0  0  0  0  0  0  0
   15.1938   -1.6600   17.6071 N   0  0  0  0  0  0  0  0  0  0  0  0
   14.0425   -1.7686   16.8035 C   0  0  0  0  0  0  0  0  0  0  0  0
   13.3374   -2.9942   16.8326 C   0  0  0  0  0  0  0  0  0  0  0  0
   13.7865   -4.1661   17.6675 C   0  0  0  0  0  0  0  0  0  0  0  0
   12.1638   -3.1445   16.0686 C   0  0  0  0  0  0  0  0  0  0  0  0
   11.6742   -2.1046   15.2876 C   0  0  0  0  0  0  0  0  0  0  0  0
   12.3538   -0.8956   15.2684 C   0  0  0  0  0  0  0  0  0  0  0  0
   13.5259   -0.7256   16.0134 C   0  0  0  0  0  0  0  0  0  0  0  0
   14.0569    0.5280   15.9007 O   0  0  0  0  0  0  0  0  0  0  0  0
   16.7090   -1.1516   20.1186 C   0  0  0  0  0  0  0  0  0  0  0  0
   16.4501    0.2506   20.6439 C   0  0  0  0  0  0  0  0  0  0  0  0
   17.6331    1.0698   20.1553 C   0  0  0  0  0  0  0  0  0  0  0  0
   18.2924    0.2575   19.0353 C   0  0  0  0  0  0  0  0  0  0  0  0
   19.2325   -1.0825   16.0197 C   0  0  0  0  0  0  0  0  0  0  0  0
  1  2  1  0
  2  3  2  0
  3  4  1  0
  4  5  2  0
  5  6  1  0
  5  7  1  0
  7  8  1  0
  8  9  2  0
  8 10  2  0
  8 11  1  0
 11 12  1  0
 12 13  2  0
 12 14  1  0
 14 15  1  0
 15 16  2  0
 16 17  1  0
 16 18  1  0
 18 19  2  0
 19 20  1  0
 20 21  2  0
 21 22  1  0
 11 23  1  0
 23 24  1  0
 24 25  1  0
 25 26  1  0
  7 27  2  0
 27  2  1  0
 26 11  1  0
 21 15  1  0
M  END
>  <ref_mols>  (1110) 
B1396a

>  <gnina_score>  (1110) 
4.976

>  <smina_score_min>  (1110) 
-3.84

>  <ref_pdb>  (1110) 
B1396a

>  <inspiration_score>  (1110) 
None

>  <inchikey>  (1110) 
YPFLSWWURUEAMM-UHFFFAOYSA-N

>  <tags>  (1110) 
BulkDock Fragalysis export,openbind_d68ev3c_c2_elabs_scored,openbind_d68ev3c_c2_elabs_scored_4.5plus,openbind_d68ev3c_c2_elabs,openbind_d68ev3c_c2_elabs_scored_5plus,syndirella_product,openbind_d68ev3c_c2_elabs_scored_top80percent,syndirella_placed

>  <smiles>  (1110) 
Cc1ccc(C)c(S(=O)(=O)C2(C(=O)Nc3c(C)cccc3O)CCCC2)c1

>  <subsites>  (1110) 
None

>  <rmsd(smina/fragmenstein)>  (1110) 
1.865

>  <alias>  (1110) 
None

>  <energy_score>  (1110) 
-79.314916

>  <HIPPO Pose ID>  (1110) 
95506

>  <distance_score>  (1110) 
0.422294

>  <HIPPO Compound ID>  (1110) 
129397

>  <gnina_score_min>  (1110) 
5.098

>  <name>  (1110) 
P95506

>  <exports>  (1110) 
['/opt/xchem-fragalysis-2/maxwin/BulkDock/OUTPUTS/openbind_d68ev3c_c2_elabs_1LOTQJ3.sdf', '/opt/xchem-fragalysis-2/maxwin/BulkDock/OUTPUTS/openbind_d68ev3c_c2_elabs_1LSYI5W.sdf']

$$$$
P95507
     RDKit          3D

 27 29  0  0  0  0  0  0  0  0999 V2000
   17.0662   -2.2888   12.9620 C   0  0  0  0  0  0  0  0  0  0  0  0
   18.0849   -2.1029   14.0479 C   0  0  0  0  0  0  0  0  0  0  0  0
   19.3561   -1.6328   13.7225 C   0  0  0  0  0  0  0  0  0  0  0  0
   20.2960   -1.3881   14.7237 C   0  0  0  0  0  0  0  0  0  0  0  0
   19.9929   -1.5906   16.0824 C   0  0  0  0  0  0  0  0  0  0  0  0
   21.0905   -1.3332   17.0763 C   0  0  0  0  0  0  0  0  0  0  0  0
   18.7073   -2.0596   16.4117 C   0  0  0  0  0  0  0  0  0  0  0  0
   18.1823   -2.3809   18.0974 S   0  0  0  0  0  0  0  0  0  0  0  0
   19.3625   -2.5744   18.9192 O   0  0  0  0  0  0  0  0  0  0  0  0
   17.2029   -3.4570   18.0416 O   0  0  0  0  0  0  0  0  0  0  0  0
   17.3202   -0.9250   18.6706 C   0  0  0  0  0  0  0  0  0  0  0  0
   16.2402   -0.5292   17.6372 C   0  0  0  0  0  0  0  0  0  0  0  0
   16.3016    0.4981   17.0762 O   0  0  0  0  0  0  0  0  0  0  0  0
   15.1347   -1.6375   17.6048 N   0  0  0  0  0  0  0  0  0  0  0  0
   13.9691   -1.7402   16.8271 C   0  0  0  0  0  0  0  0  0  0  0  0
   13.2746   -2.9672   16.8075 C   0  0  0  0  0  0  0  0  0  0  0  0
   13.7305   -4.1629   17.6019 C   0  0  0  0  0  0  0  0  0  0  0  0
   12.1176   -3.0930   16.0144 C   0  0  0  0  0  0  0  0  0  0  0  0
   11.6383   -2.0256   15.2591 C   0  0  0  0  0  0  0  0  0  0  0  0
   12.3088   -0.8112   15.2977 C   0  0  0  0  0  0  0  0  0  0  0  0
   13.4592   -0.6728   16.0746 C   0  0  0  0  0  0  0  0  0  0  0  0
   14.0296    0.5370   16.0962 F   0  0  0  0  0  0  0  0  0  0  0  0
   16.7310   -1.1315   20.0772 C   0  0  0  0  0  0  0  0  0  0  0  0
   16.5214    0.2781   20.6234 C   0  0  0  0  0  0  0  0  0  0  0  0
   17.5449    1.1599   19.9145 C   0  0  0  0  0  0  0  0  0  0  0  0
   18.2864    0.2444   18.9411 C   0  0  0  0  0  0  0  0  0  0  0  0
   17.7788   -2.3484   15.3913 C   0  0  0  0  0  0  0  0  0  0  0  0
  1  2  1  0
  2  3  2  0
  3  4  1  0
  4  5  2  0
  5  6  1  0
  5  7  1  0
  7  8  1  0
  8  9  2  0
  8 10  2  0
  8 11  1  0
 11 12  1  0
 12 13  2  0
 12 14  1  0
 14 15  1  0
 15 16  2  0
 16 17  1  0
 16 18  1  0
 18 19  2  0
 19 20  1  0
 20 21  2  0
 21 22  1  0
 11 23  1  0
 23 24  1  0
 24 25  1  0
 25 26  1  0
  7 27  2  0
 27  2  1  0
 26 11  1  0
 21 15  1  0
M  END
>  <ref_mols>  (1111) 
B1396a

>  <gnina_score>  (1111) 
5.104

>  <smina_score_min>  (1111) 
-3.858

>  <ref_pdb>  (1111) 
B1396a

>  <inspiration_score>  (1111) 
None

>  <inchikey>  (1111) 
JZSMWXKQDJTCMF-UHFFFAOYSA-N

>  <tags>  (1111) 
BulkDock Fragalysis export,openbind_d68ev3c_c2_elabs_scored,openbind_d68ev3c_c2_elabs_scored_4.5plus,openbind_d68ev3c_c2_elabs,openbind_d68ev3c_c2_elabs_scored_5plus,syndirella_product,openbind_d68ev3c_c2_elabs_scored_top80percent,syndirella_placed

>  <smiles>  (1111) 
Cc1ccc(C)c(S(=O)(=O)C2(C(=O)Nc3c(C)cccc3F)CCCC2)c1

>  <subsites>  (1111) 
None

>  <rmsd(smina/fragmenstein)>  (1111) 
2.081

>  <alias>  (1111) 
None

>  <energy_score>  (1111) 
-51.021202

>  <HIPPO Pose ID>  (1111) 
95507

>  <distance_score>  (1111) 
0.514157

>  <HIPPO Compound ID>  (1111) 
129398

>  <gnina_score_min>  (1111) 
5.037

>  <name>  (1111) 
P95507

>  <exports>  (1111) 
['/opt/xchem-fragalysis-2/maxwin/BulkDock/OUTPUTS/openbind_d68ev3c_c2_elabs_1LOTQJ3.sdf', '/opt/xchem-fragalysis-2/maxwin/BulkDock/OUTPUTS/openbind_d68ev3c_c2_elabs_1LSYI5W.sdf']

$$$$
P95508
     RDKit          3D

 27 29  0  0  0  0  0  0  0  0999 V2000
   20.1613    0.4032   14.2145 C   0  0  0  0  0  0  0  0  0  0  0  0
   19.6010   -0.9166   14.6583 C   0  0  0  0  0  0  0  0  0  0  0  0
   19.3959   -1.9423   13.7363 C   0  0  0  0  0  0  0  0  0  0  0  0
   18.9269   -3.1858   14.1590 C   0  0  0  0  0  0  0  0  0  0  0  0
   18.6468   -3.4368   15.5138 C   0  0  0  0  0  0  0  0  0  0  0  0
   18.2107   -4.8281   15.8863 C   0  0  0  0  0  0  0  0  0  0  0  0
   18.8167   -2.3864   16.4407 C   0  0  0  0  0  0  0  0  0  0  0  0
   18.4167   -2.5939   18.1763 S   0  0  0  0  0  0  0  0  0  0  0  0
   17.3809   -3.6144   18.2583 O   0  0  0  0  0  0  0  0  0  0  0  0
   19.6770   -2.7963   18.8640 O   0  0  0  0  0  0  0  0  0  0  0  0
   17.6400   -1.1060   18.8049 C   0  0  0  0  0  0  0  0  0  0  0  0
   16.6086   -0.6122   17.7719 C   0  0  0  0  0  0  0  0  0  0  0  0
   16.7027    0.4571   17.2991 O   0  0  0  0  0  0  0  0  0  0  0  0
   15.4991   -1.7043   17.5972 N   0  0  0  0  0  0  0  0  0  0  0  0
   14.2876   -1.6609   16.9092 C   0  0  0  0  0  0  0  0  0  0  0  0
   13.8885   -0.4652   16.3050 C   0  0  0  0  0  0  0  0  0  0  0  0
   12.6301   -0.3469   15.7250 C   0  0  0  0  0  0  0  0  0  0  0  0
   11.7723   -1.4356   15.7287 C   0  0  0  0  0  0  0  0  0  0  0  0
    9.9906   -1.1514   15.1869 Br  0  0  0  0  0  0  0  0  0  0  0  0
   12.1867   -2.6653   16.2414 C   0  0  0  0  0  0  0  0  0  0  0  0
   13.4434   -2.7861   16.8633 C   0  0  0  0  0  0  0  0  0  0  0  0
   13.8094   -4.0902   17.5203 C   0  0  0  0  0  0  0  0  0  0  0  0
   16.9280   -1.3834   20.1606 C   0  0  0  0  0  0  0  0  0  0  0  0
   17.8381   -0.8102   21.2351 C   0  0  0  0  0  0  0  0  0  0  0  0
   18.3739    0.4431   20.5816 C   0  0  0  0  0  0  0  0  0  0  0  0
   18.6894   -0.0086   19.1609 C   0  0  0  0  0  0  0  0  0  0  0  0
   19.3270   -1.1517   16.0117 C   0  0  0  0  0  0  0  0  0  0  0  0
  1  2  1  0
  2  3  2  0
  3  4  1  0
  4  5  2  0
  5  6  1  0
  5  7  1  0
  7  8  1  0
  8  9  2  0
  8 10  2  0
  8 11  1  0
 11 12  1  0
 12 13  2  0
 12 14  1  0
 14 15  1  0
 15 16  2  0
 16 17  1  0
 17 18  2  0
 18 19  1  0
 18 20  1  0
 20 21  2  0
 21 22  1  0
 11 23  1  0
 23 24  1  0
 24 25  1  0
 25 26  1  0
  7 27  2  0
 27  2  1  0
 26 11  1  0
 21 15  1  0
M  END
>  <ref_mols>  (1112) 
B1396a

>  <gnina_score>  (1112) 
5.476

>  <smina_score_min>  (1112) 
-2.943

>  <ref_pdb>  (1112) 
B1396a

>  <inspiration_score>  (1112) 
None

>  <inchikey>  (1112) 
SXCRVXLHESXMOO-UHFFFAOYSA-N

>  <tags>  (1112) 
BulkDock Fragalysis export,openbind_d68ev3c_c2_elabs_scored,openbind_d68ev3c_c2_elabs_scored_4.5plus,openbind_d68ev3c_c2_elabs,openbind_d68ev3c_c2_elabs_scored_5plus,syndirella_product,openbind_d68ev3c_c2_elabs_scored_top80percent,syndirella_placed

>  <smiles>  (1112) 
Cc1ccc(C)c(S(=O)(=O)C2(C(=O)Nc3ccc(Br)cc3C)CCCC2)c1

>  <subsites>  (1112) 
None

>  <rmsd(smina/fragmenstein)>  (1112) 
1.291

>  <alias>  (1112) 
None

>  <energy_score>  (1112) 
-91.218179

>  <HIPPO Pose ID>  (1112) 
95508

>  <distance_score>  (1112) 
0.614259

>  <HIPPO Compound ID>  (1112) 
129399

>  <gnina_score_min>  (1112) 
5.192

>  <name>  (1112) 
P95508

>  <exports>  (1112) 
['/opt/xchem-fragalysis-2/maxwin/BulkDock/OUTPUTS/openbind_d68ev3c_c2_elabs_1LOTQJ3.sdf', '/opt/xchem-fragalysis-2/maxwin/BulkDock/OUTPUTS/openbind_d68ev3c_c2_elabs_1LSYI5W.sdf']

$$$$
P95509
     RDKit          3D

 27 29  0  0  0  0  0  0  0  0999 V2000
   10.8171   -2.1002   14.6243 C   0  0  0  0  0  0  0  0  0  0  0  0
   11.9752   -1.9813   15.5541 C   0  0  0  0  0  0  0  0  0  0  0  0
   12.6976   -0.7911   15.6066 C   0  0  0  0  0  0  0  0  0  0  0  0
   13.8441   -0.7051   16.3912 C   0  0  0  0  0  0  0  0  0  0  0  0
   14.2858   -1.8074   17.1266 C   0  0  0  0  0  0  0  0  0  0  0  0
   15.4554   -1.7148   17.8796 N   0  0  0  0  0  0  0  0  0  0  0  0
   16.5430   -0.5903   17.9326 C   0  0  0  0  0  0  0  0  0  0  0  0
   16.5769    0.4584   17.4092 O   0  0  0  0  0  0  0  0  0  0  0  0
   17.6494   -1.0197   18.9155 C   0  0  0  0  0  0  0  0  0  0  0  0
   18.4418   -2.4969   18.2719 S   0  0  0  0  0  0  0  0  0  0  0  0
   19.7338   -2.6530   18.9125 O   0  0  0  0  0  0  0  0  0  0  0  0
   17.4456   -3.5491   18.4136 O   0  0  0  0  0  0  0  0  0  0  0  0
   18.7759   -2.3078   16.5187 C   0  0  0  0  0  0  0  0  0  0  0  0
   19.2802   -1.0802   16.0630 C   0  0  0  0  0  0  0  0  0  0  0  0
   19.5454   -0.8675   14.7036 C   0  0  0  0  0  0  0  0  0  0  0  0
   20.1051    0.4442   14.2357 C   0  0  0  0  0  0  0  0  0  0  0  0
   19.3373   -1.9089   13.8005 C   0  0  0  0  0  0  0  0  0  0  0  0
   18.8684   -3.1438   14.2474 C   0  0  0  0  0  0  0  0  0  0  0  0
   18.5942   -3.3714   15.6084 C   0  0  0  0  0  0  0  0  0  0  0  0
   18.1545   -4.7552   16.0034 C   0  0  0  0  0  0  0  0  0  0  0  0
   17.0333   -1.2915   20.3190 C   0  0  0  0  0  0  0  0  0  0  0  0
   17.9679   -0.6347   21.3227 C   0  0  0  0  0  0  0  0  0  0  0  0
   18.4074    0.6169   20.5979 C   0  0  0  0  0  0  0  0  0  0  0  0
   18.6756    0.1225   19.1819 C   0  0  0  0  0  0  0  0  0  0  0  0
   13.5569   -3.0087   17.0951 C   0  0  0  0  0  0  0  0  0  0  0  0
   13.9777   -4.2299   17.8629 C   0  0  0  0  0  0  0  0  0  0  0  0
   12.4058   -3.0823   16.2974 C   0  0  0  0  0  0  0  0  0  0  0  0
  1  2  1  0
  2  3  2  0
  3  4  1  0
  4  5  2  0
  5  6  1  0
  6  7  1  0
  7  8  2  0
  7  9  1  0
  9 10  1  0
 10 11  2  0
 10 12  2  0
 10 13  1  0
 13 14  2  0
 14 15  1  0
 15 16  1  0
 15 17  2  0
 17 18  1  0
 18 19  2  0
 19 20  1  0
  9 21  1  0
 21 22  1  0
 22 23  1  0
 23 24  1  0
  5 25  1  0
 25 26  1  0
 25 27  2  0
 27  2  1  0
 24  9  1  0
 19 13  1  0
M  END
>  <ref_mols>  (1113) 
B1396a

>  <gnina_score>  (1113) 
5.188

>  <smina_score_min>  (1113) 
-3.36

>  <ref_pdb>  (1113) 
B1396a

>  <inspiration_score>  (1113) 
None

>  <inchikey>  (1113) 
DGHOYSQBXWHGRD-UHFFFAOYSA-N

>  <tags>  (1113) 
BulkDock Fragalysis export,openbind_d68ev3c_c2_elabs_scored,openbind_d68ev3c_c2_elabs_scored_4.5plus,openbind_d68ev3c_c2_elabs,openbind_d68ev3c_c2_elabs_scored_5plus,syndirella_product,openbind_d68ev3c_c2_elabs_scored_top80percent,syndirella_placed

>  <smiles>  (1113) 
Cc1ccc(NC(=O)C2(S(=O)(=O)c3cc(C)ccc3C)CCCC2)c(C)c1

>  <subsites>  (1113) 
None

>  <rmsd(smina/fragmenstein)>  (1113) 
0.597

>  <alias>  (1113) 
None

>  <energy_score>  (1113) 
-58.138808

>  <HIPPO Pose ID>  (1113) 
95509

>  <distance_score>  (1113) 
0.591557

>  <HIPPO Compound ID>  (1113) 
129400

>  <gnina_score_min>  (1113) 
5.108

>  <name>  (1113) 
P95509

>  <exports>  (1113) 
['/opt/xchem-fragalysis-2/maxwin/BulkDock/OUTPUTS/openbind_d68ev3c_c2_elabs_1LOTQJ3.sdf', '/opt/xchem-fragalysis-2/maxwin/BulkDock/OUTPUTS/openbind_d68ev3c_c2_elabs_1LSYI5W.sdf']

$$$$
P95510
     RDKit          3D

 27 29  0  0  0  0  0  0  0  0999 V2000
   20.0424    0.4041   14.1117 C   0  0  0  0  0  0  0  0  0  0  0  0
   19.4772   -0.8967   14.6026 C   0  0  0  0  0  0  0  0  0  0  0  0
   19.3237   -1.9732   13.7305 C   0  0  0  0  0  0  0  0  0  0  0  0
   18.8505   -3.1976   14.2009 C   0  0  0  0  0  0  0  0  0  0  0  0
   18.5125   -3.3784   15.5542 C   0  0  0  0  0  0  0  0  0  0  0  0
   18.0754   -4.7535   15.9812 C   0  0  0  0  0  0  0  0  0  0  0  0
   18.6314   -2.2776   16.4293 C   0  0  0  0  0  0  0  0  0  0  0  0
   18.1956   -2.4008   18.1643 S   0  0  0  0  0  0  0  0  0  0  0  0
   17.2068   -3.4620   18.2899 O   0  0  0  0  0  0  0  0  0  0  0  0
   19.4490   -2.5110   18.8870 O   0  0  0  0  0  0  0  0  0  0  0  0
   17.3420   -0.9110   18.6925 C   0  0  0  0  0  0  0  0  0  0  0  0
   16.2723   -0.5397   17.6401 C   0  0  0  0  0  0  0  0  0  0  0  0
   16.3188    0.4870   17.0756 O   0  0  0  0  0  0  0  0  0  0  0  0
   15.1894   -1.6696   17.6012 N   0  0  0  0  0  0  0  0  0  0  0  0
   14.0391   -1.7974   16.8165 C   0  0  0  0  0  0  0  0  0  0  0  0
   13.5913   -0.7234   16.0400 C   0  0  0  0  0  0  0  0  0  0  0  0
   12.4293   -0.8429   15.2739 C   0  0  0  0  0  0  0  0  0  0  0  0
   11.7718    0.7666   14.1327 I   0  0  0  0  0  0  0  0  0  0  0  0
   11.7062   -2.0303   15.2670 C   0  0  0  0  0  0  0  0  0  0  0  0
   12.1498   -3.1021   16.0404 C   0  0  0  0  0  0  0  0  0  0  0  0
   13.3126   -3.0010   16.8247 C   0  0  0  0  0  0  0  0  0  0  0  0
   13.7370   -4.1874   17.6471 C   0  0  0  0  0  0  0  0  0  0  0  0
   18.3339    0.2616   18.9597 C   0  0  0  0  0  0  0  0  0  0  0  0
   17.9812    0.8166   20.3339 C   0  0  0  0  0  0  0  0  0  0  0  0
   17.5296   -0.4092   21.0941 C   0  0  0  0  0  0  0  0  0  0  0  0
   16.6613   -1.1319   20.0764 C   0  0  0  0  0  0  0  0  0  0  0  0
   19.1471   -1.0622   15.9540 C   0  0  0  0  0  0  0  0  0  0  0  0
  1  2  1  0
  2  3  2  0
  3  4  1  0
  4  5  2  0
  5  6  1  0
  5  7  1  0
  7  8  1  0
  8  9  2  0
  8 10  2  0
  8 11  1  0
 11 12  1  0
 12 13  2  0
 12 14  1  0
 14 15  1  0
 15 16  2  0
 16 17  1  0
 17 18  1  0
 17 19  2  0
 19 20  1  0
 20 21  2  0
 21 22  1  0
 11 23  1  0
 23 24  1  0
 24 25  1  0
 25 26  1  0
  7 27  2  0
 27  2  1  0
 26 11  1  0
 21 15  1  0
M  END
>  <ref_mols>  (1114) 
B1396a

>  <gnina_score>  (1114) 
5.239

>  <smina_score_min>  (1114) 
-3.916

>  <ref_pdb>  (1114) 
B1396a

>  <inspiration_score>  (1114) 
None

>  <inchikey>  (1114) 
YGINBAVOHVDJTN-UHFFFAOYSA-N

>  <tags>  (1114) 
BulkDock Fragalysis export,openbind_d68ev3c_c2_elabs_scored,openbind_d68ev3c_c2_elabs_scored_4.5plus,openbind_d68ev3c_c2_elabs,openbind_d68ev3c_c2_elabs_scored_5plus,syndirella_product,openbind_d68ev3c_c2_elabs_scored_top80percent,syndirella_placed

>  <smiles>  (1114) 
Cc1ccc(C)c(S(=O)(=O)C2(C(=O)Nc3cc(I)ccc3C)CCCC2)c1

>  <subsites>  (1114) 
None

>  <rmsd(smina/fragmenstein)>  (1114) 
1.48

>  <alias>  (1114) 
None

>  <energy_score>  (1114) 
-42.790319

>  <HIPPO Pose ID>  (1114) 
95510

>  <distance_score>  (1114) 
0.435764

>  <HIPPO Compound ID>  (1114) 
129401

>  <gnina_score_min>  (1114) 
5.324

>  <name>  (1114) 
P95510

>  <exports>  (1114) 
['/opt/xchem-fragalysis-2/maxwin/BulkDock/OUTPUTS/openbind_d68ev3c_c2_elabs_1LOTQJ3.sdf', '/opt/xchem-fragalysis-2/maxwin/BulkDock/OUTPUTS/openbind_d68ev3c_c2_elabs_1LSYI5W.sdf']

$$$$
P95511
     RDKit          3D

 27 29  0  0  0  0  0  0  0  0999 V2000
   19.7038    0.4270   13.9781 C   0  0  0  0  0  0  0  0  0  0  0  0
   19.3235   -0.9142   14.5349 C   0  0  0  0  0  0  0  0  0  0  0  0
   19.2337   -2.0250   13.6976 C   0  0  0  0  0  0  0  0  0  0  0  0
   18.8608   -3.2653   14.2135 C   0  0  0  0  0  0  0  0  0  0  0  0
   18.5520   -3.4256   15.5761 C   0  0  0  0  0  0  0  0  0  0  0  0
   18.2132   -4.8126   16.0521 C   0  0  0  0  0  0  0  0  0  0  0  0
   18.5906   -2.2900   16.4137 C   0  0  0  0  0  0  0  0  0  0  0  0
   18.1832   -2.4077   18.1563 S   0  0  0  0  0  0  0  0  0  0  0  0
   17.1917   -3.4648   18.2985 O   0  0  0  0  0  0  0  0  0  0  0  0
   19.4487   -2.5183   18.8580 O   0  0  0  0  0  0  0  0  0  0  0  0
   17.3458   -0.9217   18.7097 C   0  0  0  0  0  0  0  0  0  0  0  0
   16.2649   -0.5338   17.6677 C   0  0  0  0  0  0  0  0  0  0  0  0
   16.2986    0.5091   17.1324 O   0  0  0  0  0  0  0  0  0  0  0  0
   15.1940   -1.6745   17.5989 N   0  0  0  0  0  0  0  0  0  0  0  0
   14.0432   -1.7927   16.8134 C   0  0  0  0  0  0  0  0  0  0  0  0
   13.5897   -0.7134   16.0487 C   0  0  0  0  0  0  0  0  0  0  0  0
   12.4249   -0.8320   15.2875 C   0  0  0  0  0  0  0  0  0  0  0  0
   11.8134    0.6362   14.2640 Br  0  0  0  0  0  0  0  0  0  0  0  0
   11.7038   -2.0199   15.2737 C   0  0  0  0  0  0  0  0  0  0  0  0
   12.1517   -3.0969   16.0356 C   0  0  0  0  0  0  0  0  0  0  0  0
   13.3182   -2.9987   16.8144 C   0  0  0  0  0  0  0  0  0  0  0  0
   13.7461   -4.1898   17.6288 C   0  0  0  0  0  0  0  0  0  0  0  0
   16.6855   -1.1651   20.1000 C   0  0  0  0  0  0  0  0  0  0  0  0
   16.9285    0.1065   20.8967 C   0  0  0  0  0  0  0  0  0  0  0  0
   18.3358    0.4809   20.4948 C   0  0  0  0  0  0  0  0  0  0  0  0
   18.3563    0.2333   18.9904 C   0  0  0  0  0  0  0  0  0  0  0  0
   18.9895   -1.0512   15.8890 C   0  0  0  0  0  0  0  0  0  0  0  0
  1  2  1  0
  2  3  2  0
  3  4  1  0
  4  5  2  0
  5  6  1  0
  5  7  1  0
  7  8  1  0
  8  9  2  0
  8 10  2  0
  8 11  1  0
 11 12  1  0
 12 13  2  0
 12 14  1  0
 14 15  1  0
 15 16  2  0
 16 17  1  0
 17 18  1  0
 17 19  2  0
 19 20  1  0
 20 21  2  0
 21 22  1  0
 11 23  1  0
 23 24  1  0
 24 25  1  0
 25 26  1  0
  7 27  2  0
 27  2  1  0
 26 11  1  0
 21 15  1  0
M  END
>  <ref_mols>  (1115) 
B1396a

>  <gnina_score>  (1115) 
5.169

>  <smina_score_min>  (1115) 
-3.917

>  <ref_pdb>  (1115) 
B1396a

>  <inspiration_score>  (1115) 
None

>  <inchikey>  (1115) 
UDOKFUVQSBLYFD-UHFFFAOYSA-N

>  <tags>  (1115) 
BulkDock Fragalysis export,openbind_d68ev3c_c2_elabs_scored,openbind_d68ev3c_c2_elabs_scored_4.5plus,openbind_d68ev3c_c2_elabs,openbind_d68ev3c_c2_elabs_scored_5plus,syndirella_product,openbind_d68ev3c_c2_elabs_scored_top80percent,syndirella_placed

>  <smiles>  (1115) 
Cc1ccc(C)c(S(=O)(=O)C2(C(=O)Nc3cc(Br)ccc3C)CCCC2)c1

>  <subsites>  (1115) 
None

>  <rmsd(smina/fragmenstein)>  (1115) 
1.522

>  <alias>  (1115) 
None

>  <energy_score>  (1115) 
-54.86924

>  <HIPPO Pose ID>  (1115) 
95511

>  <distance_score>  (1115) 
0.472231

>  <HIPPO Compound ID>  (1115) 
129402

>  <gnina_score_min>  (1115) 
5.324

>  <name>  (1115) 
P95511

>  <exports>  (1115) 
['/opt/xchem-fragalysis-2/maxwin/BulkDock/OUTPUTS/openbind_d68ev3c_c2_elabs_1LOTQJ3.sdf', '/opt/xchem-fragalysis-2/maxwin/BulkDock/OUTPUTS/openbind_d68ev3c_c2_elabs_1LSYI5W.sdf']

$$$$
P95513
     RDKit          3D

 27 29  0  0  0  0  0  0  0  0999 V2000
   17.0482   -2.2297   13.0936 C   0  0  0  0  0  0  0  0  0  0  0  0
   18.0650   -2.0366   14.1798 C   0  0  0  0  0  0  0  0  0  0  0  0
   19.3182   -1.5149   13.8646 C   0  0  0  0  0  0  0  0  0  0  0  0
   20.2567   -1.2783   14.8696 C   0  0  0  0  0  0  0  0  0  0  0  0
   19.9706   -1.5431   16.2220 C   0  0  0  0  0  0  0  0  0  0  0  0
   21.0740   -1.3092   17.2153 C   0  0  0  0  0  0  0  0  0  0  0  0
   18.7037   -2.0654   16.5423 C   0  0  0  0  0  0  0  0  0  0  0  0
   18.2259   -2.5246   18.2117 S   0  0  0  0  0  0  0  0  0  0  0  0
   17.2028   -3.5539   18.0841 O   0  0  0  0  0  0  0  0  0  0  0  0
   19.4315   -2.8422   18.9536 O   0  0  0  0  0  0  0  0  0  0  0  0
   17.4308   -1.1242   18.9824 C   0  0  0  0  0  0  0  0  0  0  0  0
   16.4372   -0.4908   17.9888 C   0  0  0  0  0  0  0  0  0  0  0  0
   16.6087    0.5998   17.5938 O   0  0  0  0  0  0  0  0  0  0  0  0
   15.2938   -1.5128   17.6779 N   0  0  0  0  0  0  0  0  0  0  0  0
   14.1276   -1.3666   16.9218 C   0  0  0  0  0  0  0  0  0  0  0  0
   13.8146   -0.1085   16.3917 C   0  0  0  0  0  0  0  0  0  0  0  0
   12.7202    0.0664   15.5506 C   0  0  0  0  0  0  0  0  0  0  0  0
   11.9610   -1.0306   15.1887 C   0  0  0  0  0  0  0  0  0  0  0  0
   12.2742   -2.2899   15.7027 C   0  0  0  0  0  0  0  0  0  0  0  0
   11.3709   -3.5743   15.0301 Cl  0  0  0  0  0  0  0  0  0  0  0  0
   13.3129   -2.4790   16.6353 C   0  0  0  0  0  0  0  0  0  0  0  0
   13.5817   -3.8154   17.2821 C   0  0  0  0  0  0  0  0  0  0  0  0
   18.4461   -0.0823   19.4911 C   0  0  0  0  0  0  0  0  0  0  0  0
   17.7100    0.7024   20.5766 C   0  0  0  0  0  0  0  0  0  0  0  0
   16.5956   -0.2119   21.0746 C   0  0  0  0  0  0  0  0  0  0  0  0
   16.7514   -1.5205   20.3058 C   0  0  0  0  0  0  0  0  0  0  0  0
   17.7767   -2.3399   15.5155 C   0  0  0  0  0  0  0  0  0  0  0  0
  1  2  1  0
  2  3  2  0
  3  4  1  0
  4  5  2  0
  5  6  1  0
  5  7  1  0
  7  8  1  0
  8  9  2  0
  8 10  2  0
  8 11  1  0
 11 12  1  0
 12 13  2  0
 12 14  1  0
 14 15  1  0
 15 16  2  0
 16 17  1  0
 17 18  2  0
 18 19  1  0
 19 20  1  0
 19 21  2  0
 21 22  1  0
 11 23  1  0
 23 24  1  0
 24 25  1  0
 25 26  1  0
  7 27  2  0
 27  2  1  0
 26 11  1  0
 21 15  1  0
M  END
>  <ref_mols>  (1116) 
B1396a

>  <gnina_score>  (1116) 
5.194

>  <smina_score_min>  (1116) 
-3.64

>  <ref_pdb>  (1116) 
B1396a

>  <inspiration_score>  (1116) 
None

>  <inchikey>  (1116) 
RBRHOIQTUALYIG-UHFFFAOYSA-N

>  <tags>  (1116) 
BulkDock Fragalysis export,openbind_d68ev3c_c2_elabs_scored,openbind_d68ev3c_c2_elabs_scored_4.5plus,openbind_d68ev3c_c2_elabs,openbind_d68ev3c_c2_elabs_scored_5plus,syndirella_product,openbind_d68ev3c_c2_elabs_scored_top80percent,syndirella_placed

>  <smiles>  (1116) 
Cc1ccc(C)c(S(=O)(=O)C2(C(=O)Nc3cccc(Cl)c3C)CCCC2)c1

>  <subsites>  (1116) 
None

>  <rmsd(smina/fragmenstein)>  (1116) 
1.619

>  <alias>  (1116) 
None

>  <energy_score>  (1116) 
-57.062654

>  <HIPPO Pose ID>  (1116) 
95513

>  <distance_score>  (1116) 
0.832413

>  <HIPPO Compound ID>  (1116) 
129404

>  <gnina_score_min>  (1116) 
5.157

>  <name>  (1116) 
P95513

>  <exports>  (1116) 
['/opt/xchem-fragalysis-2/maxwin/BulkDock/OUTPUTS/openbind_d68ev3c_c2_elabs_1LOTQJ3.sdf', '/opt/xchem-fragalysis-2/maxwin/BulkDock/OUTPUTS/openbind_d68ev3c_c2_elabs_1LSYI5W.sdf']

$$$$
P95515
     RDKit          3D

 27 29  0  0  0  0  0  0  0  0999 V2000
   13.9733   -4.2571   19.1537 C   0  0  0  0  0  0  0  0  0  0  0  0
   14.0203   -4.3320   17.6346 C   0  0  0  0  0  0  0  0  0  0  0  0
   13.4895   -3.1053   16.9202 C   0  0  0  0  0  0  0  0  0  0  0  0
   12.2579   -3.2047   16.2451 C   0  0  0  0  0  0  0  0  0  0  0  0
   11.7414   -2.1337   15.5156 C   0  0  0  0  0  0  0  0  0  0  0  0
   12.4460   -0.9379   15.4618 C   0  0  0  0  0  0  0  0  0  0  0  0
   13.6697   -0.8178   16.1253 C   0  0  0  0  0  0  0  0  0  0  0  0
   14.2008   -1.8911   16.8489 C   0  0  0  0  0  0  0  0  0  0  0  0
   15.4329   -1.7684   17.4963 N   0  0  0  0  0  0  0  0  0  0  0  0
   16.3893   -0.5369   17.6356 C   0  0  0  0  0  0  0  0  0  0  0  0
   16.3218    0.5342   17.1628 O   0  0  0  0  0  0  0  0  0  0  0  0
   17.5044   -0.8827   18.6572 C   0  0  0  0  0  0  0  0  0  0  0  0
   18.3689   -2.3646   18.1316 S   0  0  0  0  0  0  0  0  0  0  0  0
   19.6588   -2.4145   18.7941 O   0  0  0  0  0  0  0  0  0  0  0  0
   17.4180   -3.4473   18.3415 O   0  0  0  0  0  0  0  0  0  0  0  0
   18.7116   -2.2765   16.3738 C   0  0  0  0  0  0  0  0  0  0  0  0
   19.1060   -1.0455   15.8268 C   0  0  0  0  0  0  0  0  0  0  0  0
   19.3676   -0.9148   14.4569 C   0  0  0  0  0  0  0  0  0  0  0  0
   19.8090    0.4026   13.8892 C   0  0  0  0  0  0  0  0  0  0  0  0
   19.2599   -2.0360   13.6358 C   0  0  0  0  0  0  0  0  0  0  0  0
   18.8937   -3.2691   14.1738 C   0  0  0  0  0  0  0  0  0  0  0  0
   18.6284   -3.4167   15.5470 C   0  0  0  0  0  0  0  0  0  0  0  0
   18.2968   -4.7976   16.0438 C   0  0  0  0  0  0  0  0  0  0  0  0
   18.4894    0.3018   18.9023 C   0  0  0  0  0  0  0  0  0  0  0  0
   18.4479    0.6099   20.3954 C   0  0  0  0  0  0  0  0  0  0  0  0
   17.0545    0.1981   20.8090 C   0  0  0  0  0  0  0  0  0  0  0  0
   16.8601   -1.1084   20.0569 C   0  0  0  0  0  0  0  0  0  0  0  0
  1  2  1  0
  2  3  1  0
  3  4  2  0
  4  5  1  0
  5  6  2  0
  6  7  1  0
  7  8  2  0
  8  9  1  0
  9 10  1  0
 10 11  2  0
 10 12  1  0
 12 13  1  0
 13 14  2  0
 13 15  2  0
 13 16  1  0
 16 17  2  0
 17 18  1  0
 18 19  1  0
 18 20  2  0
 20 21  1  0
 21 22  2  0
 22 23  1  0
 12 24  1  0
 24 25  1  0
 25 26  1  0
 26 27  1  0
  8  3  1  0
 27 12  1  0
 22 16  1  0
M  END
>  <ref_mols>  (1117) 
B1396a

>  <gnina_score>  (1117) 
5.008

>  <smina_score_min>  (1117) 
-3.34

>  <ref_pdb>  (1117) 
B1396a

>  <inspiration_score>  (1117) 
None

>  <inchikey>  (1117) 
YTUWCHYFYIPWCH-UHFFFAOYSA-N

>  <tags>  (1117) 
BulkDock Fragalysis export,openbind_d68ev3c_c2_elabs_scored,openbind_d68ev3c_c2_elabs_scored_4.5plus,openbind_d68ev3c_c2_elabs,openbind_d68ev3c_c2_elabs_scored_5plus,syndirella_product,openbind_d68ev3c_c2_elabs_scored_top80percent,syndirella_placed

>  <smiles>  (1117) 
CCc1ccccc1NC(=O)C1(S(=O)(=O)c2cc(C)ccc2C)CCCC1

>  <subsites>  (1117) 
None

>  <rmsd(smina/fragmenstein)>  (1117) 
0.914

>  <alias>  (1117) 
None

>  <energy_score>  (1117) 
-87.569141

>  <HIPPO Pose ID>  (1117) 
95515

>  <distance_score>  (1117) 
0.497154

>  <HIPPO Compound ID>  (1117) 
129406

>  <gnina_score_min>  (1117) 
5.151

>  <name>  (1117) 
P95515

>  <exports>  (1117) 
['/opt/xchem-fragalysis-2/maxwin/BulkDock/OUTPUTS/openbind_d68ev3c_c2_elabs_1LOTQJ3.sdf', '/opt/xchem-fragalysis-2/maxwin/BulkDock/OUTPUTS/openbind_d68ev3c_c2_elabs_1LSYI5W.sdf']

$$$$
P95516
     RDKit          3D

 27 29  0  0  0  0  0  0  0  0999 V2000
   11.9192    0.3077   14.3926 C   0  0  0  0  0  0  0  0  0  0  0  0
   12.3803   -0.8359   15.2478 C   0  0  0  0  0  0  0  0  0  0  0  0
   11.6630   -2.0322   15.2662 C   0  0  0  0  0  0  0  0  0  0  0  0
   12.1173   -3.1050   16.0316 C   0  0  0  0  0  0  0  0  0  0  0  0
   13.2999   -3.0126   16.7831 C   0  0  0  0  0  0  0  0  0  0  0  0
   13.7341   -4.1972   17.6027 C   0  0  0  0  0  0  0  0  0  0  0  0
   14.0390   -1.8188   16.7440 C   0  0  0  0  0  0  0  0  0  0  0  0
   15.2291   -1.7224   17.4690 N   0  0  0  0  0  0  0  0  0  0  0  0
   16.2626   -0.5512   17.5745 C   0  0  0  0  0  0  0  0  0  0  0  0
   16.3075    0.4750   17.0087 O   0  0  0  0  0  0  0  0  0  0  0  0
   17.3080   -0.9038   18.6633 C   0  0  0  0  0  0  0  0  0  0  0  0
   18.1911   -2.3842   18.1600 S   0  0  0  0  0  0  0  0  0  0  0  0
   17.2243   -3.4619   18.3145 O   0  0  0  0  0  0  0  0  0  0  0  0
   19.4500   -2.4488   18.8791 O   0  0  0  0  0  0  0  0  0  0  0  0
   18.6170   -2.2864   16.4196 C   0  0  0  0  0  0  0  0  0  0  0  0
   19.0674   -1.0602   15.9054 C   0  0  0  0  0  0  0  0  0  0  0  0
   19.4119   -0.9260   14.5540 C   0  0  0  0  0  0  0  0  0  0  0  0
   19.8459    0.4033   14.0088 C   0  0  0  0  0  0  0  0  0  0  0  0
   19.2842   -2.0272   13.7092 C   0  0  0  0  0  0  0  0  0  0  0  0
   18.8652   -3.2568   14.2158 C   0  0  0  0  0  0  0  0  0  0  0  0
   18.5433   -3.4151   15.5758 C   0  0  0  0  0  0  0  0  0  0  0  0
   18.1567   -4.7931   16.0405 C   0  0  0  0  0  0  0  0  0  0  0  0
   16.6002   -1.1392   20.0302 C   0  0  0  0  0  0  0  0  0  0  0  0
   16.7653    0.1599   20.8017 C   0  0  0  0  0  0  0  0  0  0  0  0
   18.1786    0.5672   20.4564 C   0  0  0  0  0  0  0  0  0  0  0  0
   18.2844    0.2751   18.9631 C   0  0  0  0  0  0  0  0  0  0  0  0
   13.5752   -0.7430   15.9789 C   0  0  0  0  0  0  0  0  0  0  0  0
  1  2  1  0
  2  3  2  0
  3  4  1  0
  4  5  2  0
  5  6  1  0
  5  7  1  0
  7  8  1  0
  8  9  1  0
  9 10  2  0
  9 11  1  0
 11 12  1  0
 12 13  2  0
 12 14  2  0
 12 15  1  0
 15 16  2  0
 16 17  1  0
 17 18  1  0
 17 19  2  0
 19 20  1  0
 20 21  2  0
 21 22  1  0
 11 23  1  0
 23 24  1  0
 24 25  1  0
 25 26  1  0
  7 27  2  0
 27  2  1  0
 26 11  1  0
 21 15  1  0
M  END
>  <ref_mols>  (1118) 
B1396a

>  <gnina_score>  (1118) 
5.097

>  <smina_score_min>  (1118) 
-3.89

>  <ref_pdb>  (1118) 
B1396a

>  <inspiration_score>  (1118) 
None

>  <inchikey>  (1118) 
XWILBYKBAIICPU-UHFFFAOYSA-N

>  <tags>  (1118) 
BulkDock Fragalysis export,openbind_d68ev3c_c2_elabs_scored,openbind_d68ev3c_c2_elabs_scored_4.5plus,openbind_d68ev3c_c2_elabs,openbind_d68ev3c_c2_elabs_scored_5plus,syndirella_product,openbind_d68ev3c_c2_elabs_scored_top80percent,syndirella_placed

>  <smiles>  (1118) 
Cc1ccc(C)c(NC(=O)C2(S(=O)(=O)c3cc(C)ccc3C)CCCC2)c1

>  <subsites>  (1118) 
None

>  <rmsd(smina/fragmenstein)>  (1118) 
1.728

>  <alias>  (1118) 
None

>  <energy_score>  (1118) 
-30.102563

>  <HIPPO Pose ID>  (1118) 
95516

>  <distance_score>  (1118) 
0.43698

>  <HIPPO Compound ID>  (1118) 
129407

>  <gnina_score_min>  (1118) 
5.217

>  <name>  (1118) 
P95516

>  <exports>  (1118) 
['/opt/xchem-fragalysis-2/maxwin/BulkDock/OUTPUTS/openbind_d68ev3c_c2_elabs_1LOTQJ3.sdf', '/opt/xchem-fragalysis-2/maxwin/BulkDock/OUTPUTS/openbind_d68ev3c_c2_elabs_1LSYI5W.sdf']

$$$$
P95521
     RDKit          3D

 27 29  0  0  0  0  0  0  0  0999 V2000
   19.9926    0.4471   14.1139 C   0  0  0  0  0  0  0  0  0  0  0  0
   19.5080   -0.8809   14.6183 C   0  0  0  0  0  0  0  0  0  0  0  0
   19.3221   -1.9450   13.7371 C   0  0  0  0  0  0  0  0  0  0  0  0
   18.8641   -3.1753   14.2070 C   0  0  0  0  0  0  0  0  0  0  0  0
   18.5567   -3.3681   15.5657 C   0  0  0  0  0  0  0  0  0  0  0  0
   18.1327   -4.7479   15.9914 C   0  0  0  0  0  0  0  0  0  0  0  0
   18.6821   -2.2716   16.4460 C   0  0  0  0  0  0  0  0  0  0  0  0
   18.2611   -2.4122   18.1837 S   0  0  0  0  0  0  0  0  0  0  0  0
   17.2416   -3.4457   18.2955 O   0  0  0  0  0  0  0  0  0  0  0  0
   19.5175   -2.5731   18.8907 O   0  0  0  0  0  0  0  0  0  0  0  0
   17.4569   -0.9091   18.7511 C   0  0  0  0  0  0  0  0  0  0  0  0
   16.3929   -0.4852   17.7142 C   0  0  0  0  0  0  0  0  0  0  0  0
   16.4585    0.5563   17.1796 O   0  0  0  0  0  0  0  0  0  0  0  0
   15.2873   -1.5915   17.6462 N   0  0  0  0  0  0  0  0  0  0  0  0
   14.1333   -1.6732   16.8627 C   0  0  0  0  0  0  0  0  0  0  0  0
   13.7106   -0.5674   16.1133 C   0  0  0  0  0  0  0  0  0  0  0  0
   12.5544   -0.6277   15.3298 C   0  0  0  0  0  0  0  0  0  0  0  0
   11.8161   -1.8008   15.2825 C   0  0  0  0  0  0  0  0  0  0  0  0
   12.2400   -2.8952   16.0269 C   0  0  0  0  0  0  0  0  0  0  0  0
   11.5123   -4.0127   15.9622 F   0  0  0  0  0  0  0  0  0  0  0  0
   13.3847   -2.8594   16.8331 C   0  0  0  0  0  0  0  0  0  0  0  0
   13.7679   -4.0792   17.6225 C   0  0  0  0  0  0  0  0  0  0  0  0
   18.4871    0.2257   19.0376 C   0  0  0  0  0  0  0  0  0  0  0  0
   18.1886    0.7345   20.4427 C   0  0  0  0  0  0  0  0  0  0  0  0
   17.6949   -0.4995   21.1625 C   0  0  0  0  0  0  0  0  0  0  0  0
   16.7781   -1.1403   20.1331 C   0  0  0  0  0  0  0  0  0  0  0  0
   19.1790   -1.0491   15.9698 C   0  0  0  0  0  0  0  0  0  0  0  0
  1  2  1  0
  2  3  2  0
  3  4  1  0
  4  5  2  0
  5  6  1  0
  5  7  1  0
  7  8  1  0
  8  9  2  0
  8 10  2  0
  8 11  1  0
 11 12  1  0
 12 13  2  0
 12 14  1  0
 14 15  1  0
 15 16  2  0
 16 17  1  0
 17 18  2  0
 18 19  1  0
 19 20  1  0
 19 21  2  0
 21 22  1  0
 11 23  1  0
 23 24  1  0
 24 25  1  0
 25 26  1  0
  7 27  2  0
 27  2  1  0
 26 11  1  0
 21 15  1  0
M  END
>  <ref_mols>  (1119) 
B1396a

>  <gnina_score>  (1119) 
5.148

>  <smina_score_min>  (1119) 
-3.822

>  <ref_pdb>  (1119) 
B1396a

>  <inspiration_score>  (1119) 
None

>  <inchikey>  (1119) 
HFDUEEKUOHGLNY-UHFFFAOYSA-N

>  <tags>  (1119) 
BulkDock Fragalysis export,openbind_d68ev3c_c2_elabs_scored,openbind_d68ev3c_c2_elabs_scored_4.5plus,openbind_d68ev3c_c2_elabs,openbind_d68ev3c_c2_elabs_scored_5plus,syndirella_product,openbind_d68ev3c_c2_elabs_scored_top80percent,syndirella_placed

>  <smiles>  (1119) 
Cc1ccc(C)c(S(=O)(=O)C2(C(=O)Nc3cccc(F)c3C)CCCC2)c1

>  <subsites>  (1119) 
None

>  <rmsd(smina/fragmenstein)>  (1119) 
2.334

>  <alias>  (1119) 
None

>  <energy_score>  (1119) 
-55.390144

>  <HIPPO Pose ID>  (1119) 
95521

>  <distance_score>  (1119) 
0.515811

>  <HIPPO Compound ID>  (1119) 
129413

>  <gnina_score_min>  (1119) 
5.14

>  <name>  (1119) 
P95521

>  <exports>  (1119) 
['/opt/xchem-fragalysis-2/maxwin/BulkDock/OUTPUTS/openbind_d68ev3c_c2_elabs_1LOTQJ3.sdf', '/opt/xchem-fragalysis-2/maxwin/BulkDock/OUTPUTS/openbind_d68ev3c_c2_elabs_1LSYI5W.sdf']

$$$$
P95522
     RDKit          3D

 27 29  0  0  0  0  0  0  0  0999 V2000
   20.2525    0.3875   14.2453 C   0  0  0  0  0  0  0  0  0  0  0  0
   19.6395   -0.9078   14.6909 C   0  0  0  0  0  0  0  0  0  0  0  0
   19.3842   -1.9220   13.7692 C   0  0  0  0  0  0  0  0  0  0  0  0
   18.8744   -3.1485   14.1951 C   0  0  0  0  0  0  0  0  0  0  0  0
   18.5959   -3.3916   15.5521 C   0  0  0  0  0  0  0  0  0  0  0  0
   18.1233   -4.7696   15.9268 C   0  0  0  0  0  0  0  0  0  0  0  0
   18.8105   -2.3488   16.4776 C   0  0  0  0  0  0  0  0  0  0  0  0
   18.4430   -2.5324   18.2218 S   0  0  0  0  0  0  0  0  0  0  0  0
   19.7226   -2.6602   18.8916 O   0  0  0  0  0  0  0  0  0  0  0  0
   17.4526   -3.5920   18.3546 O   0  0  0  0  0  0  0  0  0  0  0  0
   17.6111   -1.0759   18.8288 C   0  0  0  0  0  0  0  0  0  0  0  0
   16.5665   -0.6261   17.7870 C   0  0  0  0  0  0  0  0  0  0  0  0
   16.6274    0.4427   17.3079 O   0  0  0  0  0  0  0  0  0  0  0  0
   15.4956   -1.7544   17.6145 N   0  0  0  0  0  0  0  0  0  0  0  0
   14.2869   -1.7556   16.9212 C   0  0  0  0  0  0  0  0  0  0  0  0
   13.8547   -0.5862   16.2875 C   0  0  0  0  0  0  0  0  0  0  0  0
   12.6044   -0.5288   15.6788 C   0  0  0  0  0  0  0  0  0  0  0  0
   11.7893   -1.6500   15.6880 C   0  0  0  0  0  0  0  0  0  0  0  0
   10.1866   -1.5010   15.1052 Cl  0  0  0  0  0  0  0  0  0  0  0  0
   12.2311   -2.8452   16.2532 C   0  0  0  0  0  0  0  0  0  0  0  0
   13.4793   -2.9075   16.8965 C   0  0  0  0  0  0  0  0  0  0  0  0
   13.8749   -4.1825   17.5905 C   0  0  0  0  0  0  0  0  0  0  0  0
   18.5778    0.0714   19.2036 C   0  0  0  0  0  0  0  0  0  0  0  0
   17.9084    0.8542   20.3381 C   0  0  0  0  0  0  0  0  0  0  0  0
   16.7230    0.0205   20.7981 C   0  0  0  0  0  0  0  0  0  0  0  0
   16.9562   -1.3569   20.1987 C   0  0  0  0  0  0  0  0  0  0  0  0
   19.3710   -1.1371   16.0461 C   0  0  0  0  0  0  0  0  0  0  0  0
  1  2  1  0
  2  3  2  0
  3  4  1  0
  4  5  2  0
  5  6  1  0
  5  7  1  0
  7  8  1  0
  8  9  2  0
  8 10  2  0
  8 11  1  0
 11 12  1  0
 12 13  2  0
 12 14  1  0
 14 15  1  0
 15 16  2  0
 16 17  1  0
 17 18  2  0
 18 19  1  0
 18 20  1  0
 20 21  2  0
 21 22  1  0
 11 23  1  0
 23 24  1  0
 24 25  1  0
 25 26  1  0
  7 27  2  0
 27  2  1  0
 26 11  1  0
 21 15  1  0
M  END
>  <ref_mols>  (1120) 
B1396a

>  <gnina_score>  (1120) 
5.42

>  <smina_score_min>  (1120) 
-3.164

>  <ref_pdb>  (1120) 
B1396a

>  <inspiration_score>  (1120) 
None

>  <inchikey>  (1120) 
RMAXHMFVKIJLCR-UHFFFAOYSA-N

>  <tags>  (1120) 
BulkDock Fragalysis export,openbind_d68ev3c_c2_elabs_scored,openbind_d68ev3c_c2_elabs_scored_4.5plus,openbind_d68ev3c_c2_elabs,openbind_d68ev3c_c2_elabs_scored_5plus,syndirella_product,openbind_d68ev3c_c2_elabs_scored_top80percent,syndirella_placed

>  <smiles>  (1120) 
Cc1ccc(C)c(S(=O)(=O)C2(C(=O)Nc3ccc(Cl)cc3C)CCCC2)c1

>  <subsites>  (1120) 
None

>  <rmsd(smina/fragmenstein)>  (1120) 
0.71

>  <alias>  (1120) 
None

>  <energy_score>  (1120) 
-63.024158

>  <HIPPO Pose ID>  (1120) 
95522

>  <distance_score>  (1120) 
0.559882

>  <HIPPO Compound ID>  (1120) 
129414

>  <gnina_score_min>  (1120) 
5.326

>  <name>  (1120) 
P95522

>  <exports>  (1120) 
['/opt/xchem-fragalysis-2/maxwin/BulkDock/OUTPUTS/openbind_d68ev3c_c2_elabs_1LOTQJ3.sdf', '/opt/xchem-fragalysis-2/maxwin/BulkDock/OUTPUTS/openbind_d68ev3c_c2_elabs_1LSYI5W.sdf']

$$$$
P95523
     RDKit          3D

 27 29  0  0  0  0  0  0  0  0999 V2000
   20.1815    0.3642   14.1268 C   0  0  0  0  0  0  0  0  0  0  0  0
   19.5738   -0.9191   14.6126 C   0  0  0  0  0  0  0  0  0  0  0  0
   19.3910   -1.9890   13.7380 C   0  0  0  0  0  0  0  0  0  0  0  0
   18.8801   -3.2000   14.2044 C   0  0  0  0  0  0  0  0  0  0  0  0
   18.5305   -3.3732   15.5557 C   0  0  0  0  0  0  0  0  0  0  0  0
   18.0562   -4.7368   15.9784 C   0  0  0  0  0  0  0  0  0  0  0  0
   18.6755   -2.2767   16.4316 C   0  0  0  0  0  0  0  0  0  0  0  0
   18.2132   -2.3729   18.1619 S   0  0  0  0  0  0  0  0  0  0  0  0
   17.2387   -3.4465   18.2965 O   0  0  0  0  0  0  0  0  0  0  0  0
   19.4541   -2.4452   18.9099 O   0  0  0  0  0  0  0  0  0  0  0  0
   17.3229   -0.8815   18.6298 C   0  0  0  0  0  0  0  0  0  0  0  0
   16.2882   -0.5505   17.5301 C   0  0  0  0  0  0  0  0  0  0  0  0
   16.3419    0.4593   16.9373 O   0  0  0  0  0  0  0  0  0  0  0  0
   15.2425   -1.7126   17.4591 N   0  0  0  0  0  0  0  0  0  0  0  0
   14.0492   -1.8155   16.7407 C   0  0  0  0  0  0  0  0  0  0  0  0
   13.5854   -0.7419   15.9741 C   0  0  0  0  0  0  0  0  0  0  0  0
   12.3966   -0.8556   15.2521 C   0  0  0  0  0  0  0  0  0  0  0  0
   11.8273    0.4736   14.3186 Cl  0  0  0  0  0  0  0  0  0  0  0  0
   11.6638   -2.0360   15.2770 C   0  0  0  0  0  0  0  0  0  0  0  0
   12.1210   -3.1073   16.0422 C   0  0  0  0  0  0  0  0  0  0  0  0
   13.3089   -3.0104   16.7872 C   0  0  0  0  0  0  0  0  0  0  0  0
   13.7485   -4.1919   17.6091 C   0  0  0  0  0  0  0  0  0  0  0  0
   18.2876    0.3108   18.9010 C   0  0  0  0  0  0  0  0  0  0  0  0
   17.8489    0.9175   20.2273 C   0  0  0  0  0  0  0  0  0  0  0  0
   17.3916   -0.2874   21.0176 C   0  0  0  0  0  0  0  0  0  0  0  0
   16.5951   -1.0801   19.9927 C   0  0  0  0  0  0  0  0  0  0  0  0
   19.2331   -1.0774   15.9619 C   0  0  0  0  0  0  0  0  0  0  0  0
  1  2  1  0
  2  3  2  0
  3  4  1  0
  4  5  2  0
  5  6  1  0
  5  7  1  0
  7  8  1  0
  8  9  2  0
  8 10  2  0
  8 11  1  0
 11 12  1  0
 12 13  2  0
 12 14  1  0
 14 15  1  0
 15 16  2  0
 16 17  1  0
 17 18  1  0
 17 19  2  0
 19 20  1  0
 20 21  2  0
 21 22  1  0
 11 23  1  0
 23 24  1  0
 24 25  1  0
 25 26  1  0
  7 27  2  0
 27  2  1  0
 26 11  1  0
 21 15  1  0
M  END
>  <ref_mols>  (1121) 
B1396a

>  <gnina_score>  (1121) 
5.228

>  <smina_score_min>  (1121) 
-3.91

>  <ref_pdb>  (1121) 
B1396a

>  <inspiration_score>  (1121) 
None

>  <inchikey>  (1121) 
JEENHHUAGAKKGQ-UHFFFAOYSA-N

>  <tags>  (1121) 
BulkDock Fragalysis export,openbind_d68ev3c_c2_elabs_scored,openbind_d68ev3c_c2_elabs_scored_4.5plus,openbind_d68ev3c_c2_elabs,openbind_d68ev3c_c2_elabs_scored_5plus,syndirella_product,openbind_d68ev3c_c2_elabs_scored_top80percent,syndirella_placed

>  <smiles>  (1121) 
Cc1ccc(C)c(S(=O)(=O)C2(C(=O)Nc3cc(Cl)ccc3C)CCCC2)c1

>  <subsites>  (1121) 
None

>  <rmsd(smina/fragmenstein)>  (1121) 
1.537

>  <alias>  (1121) 
None

>  <energy_score>  (1121) 
-57.341343

>  <HIPPO Pose ID>  (1121) 
95523

>  <distance_score>  (1121) 
0.406988

>  <HIPPO Compound ID>  (1121) 
129415

>  <gnina_score_min>  (1121) 
5.22

>  <name>  (1121) 
P95523

>  <exports>  (1121) 
['/opt/xchem-fragalysis-2/maxwin/BulkDock/OUTPUTS/openbind_d68ev3c_c2_elabs_1LOTQJ3.sdf', '/opt/xchem-fragalysis-2/maxwin/BulkDock/OUTPUTS/openbind_d68ev3c_c2_elabs_1LSYI5W.sdf']

$$$$
P95524
     RDKit          3D

 27 29  0  0  0  0  0  0  0  0999 V2000
   20.2127    0.2539   14.1210 C   0  0  0  0  0  0  0  0  0  0  0  0
   19.6226   -1.0296   14.6274 C   0  0  0  0  0  0  0  0  0  0  0  0
   19.3829   -2.0899   13.7561 C   0  0  0  0  0  0  0  0  0  0  0  0
   18.8364   -3.2807   14.2336 C   0  0  0  0  0  0  0  0  0  0  0  0
   18.4799   -3.4319   15.5865 C   0  0  0  0  0  0  0  0  0  0  0  0
   17.9739   -4.7792   16.0230 C   0  0  0  0  0  0  0  0  0  0  0  0
   18.6486   -2.3310   16.4514 C   0  0  0  0  0  0  0  0  0  0  0  0
   18.1893   -2.3967   18.1832 S   0  0  0  0  0  0  0  0  0  0  0  0
   17.1943   -3.4472   18.3426 O   0  0  0  0  0  0  0  0  0  0  0  0
   19.4371   -2.4862   18.9194 O   0  0  0  0  0  0  0  0  0  0  0  0
   17.3408   -0.9014   18.6630 C   0  0  0  0  0  0  0  0  0  0  0  0
   16.3034   -0.5521   17.5715 C   0  0  0  0  0  0  0  0  0  0  0  0
   16.4496    0.4016   16.9050 O   0  0  0  0  0  0  0  0  0  0  0  0
   15.1147   -1.5708   17.6381 N   0  0  0  0  0  0  0  0  0  0  0  0
   13.9452   -1.6681   16.8513 C   0  0  0  0  0  0  0  0  0  0  0  0
   13.3026   -2.9318   16.8150 C   0  0  0  0  0  0  0  0  0  0  0  0
   13.7988   -4.1174   17.6057 C   0  0  0  0  0  0  0  0  0  0  0  0
   12.1557   -3.1163   16.0187 C   0  0  0  0  0  0  0  0  0  0  0  0
   11.6240   -2.0758   15.2698 C   0  0  0  0  0  0  0  0  0  0  0  0
   12.2097   -0.8208   15.3475 C   0  0  0  0  0  0  0  0  0  0  0  0
   13.3449   -0.6039   16.1464 C   0  0  0  0  0  0  0  0  0  0  0  0
   13.7687    1.0601   16.3345 Cl  0  0  0  0  0  0  0  0  0  0  0  0
   16.7141   -1.0595   20.0670 C   0  0  0  0  0  0  0  0  0  0  0  0
   16.4486    0.3638   20.5296 C   0  0  0  0  0  0  0  0  0  0  0  0
   17.5997    1.1796   19.9638 C   0  0  0  0  0  0  0  0  0  0  0  0
   18.2953    0.2882   18.9298 C   0  0  0  0  0  0  0  0  0  0  0  0
   19.2537   -1.1589   15.9724 C   0  0  0  0  0  0  0  0  0  0  0  0
  1  2  1  0
  2  3  2  0
  3  4  1  0
  4  5  2  0
  5  6  1  0
  5  7  1  0
  7  8  1  0
  8  9  2  0
  8 10  2  0
  8 11  1  0
 11 12  1  0
 12 13  2  0
 12 14  1  0
 14 15  1  0
 15 16  2  0
 16 17  1  0
 16 18  1  0
 18 19  2  0
 19 20  1  0
 20 21  2  0
 21 22  1  0
 11 23  1  0
 23 24  1  0
 24 25  1  0
 25 26  1  0
  7 27  2  0
 27  2  1  0
 26 11  1  0
 21 15  1  0
M  END
>  <ref_mols>  (1122) 
B1396a

>  <gnina_score>  (1122) 
5.198

>  <smina_score_min>  (1122) 
-3.835

>  <ref_pdb>  (1122) 
B1396a

>  <inspiration_score>  (1122) 
None

>  <inchikey>  (1122) 
RHGYONWJMNIZLM-UHFFFAOYSA-N

>  <tags>  (1122) 
BulkDock Fragalysis export,openbind_d68ev3c_c2_elabs_scored,openbind_d68ev3c_c2_elabs_scored_4.5plus,openbind_d68ev3c_c2_elabs,openbind_d68ev3c_c2_elabs_scored_5plus,syndirella_product,openbind_d68ev3c_c2_elabs_scored_top80percent,syndirella_placed

>  <smiles>  (1122) 
Cc1ccc(C)c(S(=O)(=O)C2(C(=O)Nc3c(C)cccc3Cl)CCCC2)c1

>  <subsites>  (1122) 
None

>  <rmsd(smina/fragmenstein)>  (1122) 
1.939

>  <alias>  (1122) 
None

>  <energy_score>  (1122) 
-38.503704

>  <HIPPO Pose ID>  (1122) 
95524

>  <distance_score>  (1122) 
0.385452

>  <HIPPO Compound ID>  (1122) 
129416

>  <gnina_score_min>  (1122) 
5.266

>  <name>  (1122) 
P95524

>  <exports>  (1122) 
['/opt/xchem-fragalysis-2/maxwin/BulkDock/OUTPUTS/openbind_d68ev3c_c2_elabs_1LOTQJ3.sdf', '/opt/xchem-fragalysis-2/maxwin/BulkDock/OUTPUTS/openbind_d68ev3c_c2_elabs_1LSYI5W.sdf']

$$$$
P95525
     RDKit          3D

 27 29  0  0  0  0  0  0  0  0999 V2000
   17.0381   -2.2971   12.9592 C   0  0  0  0  0  0  0  0  0  0  0  0
   18.0686   -2.1443   14.0394 C   0  0  0  0  0  0  0  0  0  0  0  0
   19.3486   -1.7021   13.7085 C   0  0  0  0  0  0  0  0  0  0  0  0
   20.2995   -1.4815   14.7050 C   0  0  0  0  0  0  0  0  0  0  0  0
   19.9985   -1.6783   16.0648 C   0  0  0  0  0  0  0  0  0  0  0  0
   21.1050   -1.4453   17.0548 C   0  0  0  0  0  0  0  0  0  0  0  0
   18.7032   -2.1154   16.3994 C   0  0  0  0  0  0  0  0  0  0  0  0
   18.1650   -2.3880   18.0905 S   0  0  0  0  0  0  0  0  0  0  0  0
   19.3368   -2.5769   18.9251 O   0  0  0  0  0  0  0  0  0  0  0  0
   17.1664   -3.4456   18.0575 O   0  0  0  0  0  0  0  0  0  0  0  0
   17.3301   -0.8969   18.6107 C   0  0  0  0  0  0  0  0  0  0  0  0
   16.2751   -0.5225   17.5432 C   0  0  0  0  0  0  0  0  0  0  0  0
   16.4199    0.4332   16.8789 O   0  0  0  0  0  0  0  0  0  0  0  0
   15.0828   -1.5344   17.6173 N   0  0  0  0  0  0  0  0  0  0  0  0
   13.9047   -1.6230   16.8408 C   0  0  0  0  0  0  0  0  0  0  0  0
   13.2766   -2.8968   16.8005 C   0  0  0  0  0  0  0  0  0  0  0  0
   13.7944   -4.0866   17.5727 C   0  0  0  0  0  0  0  0  0  0  0  0
   12.1352   -3.0955   16.0028 C   0  0  0  0  0  0  0  0  0  0  0  0
   11.5912   -2.0592   15.2609 C   0  0  0  0  0  0  0  0  0  0  0  0
   12.1612   -0.7965   15.3433 C   0  0  0  0  0  0  0  0  0  0  0  0
   13.3008   -0.5552   16.1364 C   0  0  0  0  0  0  0  0  0  0  0  0
   13.6938    1.1853   16.2823 S   0  0  0  0  0  0  0  0  0  0  0  0
   18.3211    0.2640   18.8322 C   0  0  0  0  0  0  0  0  0  0  0  0
   17.5863    1.2423   19.7472 C   0  0  0  0  0  0  0  0  0  0  0  0
   16.5542    0.4109   20.5033 C   0  0  0  0  0  0  0  0  0  0  0  0
   16.7430   -1.0269   20.0264 C   0  0  0  0  0  0  0  0  0  0  0  0
   17.7634   -2.3847   15.3838 C   0  0  0  0  0  0  0  0  0  0  0  0
  1  2  1  0
  2  3  2  0
  3  4  1  0
  4  5  2  0
  5  6  1  0
  5  7  1  0
  7  8  1  0
  8  9  2  0
  8 10  2  0
  8 11  1  0
 11 12  1  0
 12 13  2  0
 12 14  1  0
 14 15  1  0
 15 16  2  0
 16 17  1  0
 16 18  1  0
 18 19  2  0
 19 20  1  0
 20 21  2  0
 21 22  1  0
 11 23  1  0
 23 24  1  0
 24 25  1  0
 25 26  1  0
  7 27  2  0
 27  2  1  0
 26 11  1  0
 21 15  1  0
M  END
>  <ref_mols>  (1123) 
B1396a

>  <gnina_score>  (1123) 
5.183

>  <smina_score_min>  (1123) 
-3.675

>  <ref_pdb>  (1123) 
B1396a

>  <inspiration_score>  (1123) 
None

>  <inchikey>  (1123) 
MYNYKNFDSBCUOD-UHFFFAOYSA-N

>  <tags>  (1123) 
BulkDock Fragalysis export,openbind_d68ev3c_c2_elabs_scored,openbind_d68ev3c_c2_elabs_scored_4.5plus,openbind_d68ev3c_c2_elabs,openbind_d68ev3c_c2_elabs_scored_5plus,syndirella_product,openbind_d68ev3c_c2_elabs_scored_top80percent,syndirella_placed

>  <smiles>  (1123) 
Cc1ccc(C)c(S(=O)(=O)C2(C(=O)Nc3c(C)cccc3S)CCCC2)c1

>  <subsites>  (1123) 
None

>  <rmsd(smina/fragmenstein)>  (1123) 
2.796

>  <alias>  (1123) 
None

>  <energy_score>  (1123) 
-64.515807

>  <HIPPO Pose ID>  (1123) 
95525

>  <distance_score>  (1123) 
0.496367

>  <HIPPO Compound ID>  (1123) 
129417

>  <gnina_score_min>  (1123) 
5.051

>  <name>  (1123) 
P95525

>  <exports>  (1123) 
['/opt/xchem-fragalysis-2/maxwin/BulkDock/OUTPUTS/openbind_d68ev3c_c2_elabs_1LOTQJ3.sdf', '/opt/xchem-fragalysis-2/maxwin/BulkDock/OUTPUTS/openbind_d68ev3c_c2_elabs_1LSYI5W.sdf']

$$$$
P95528
     RDKit          3D

 27 29  0  0  0  0  0  0  0  0999 V2000
   13.8589   -4.1810   17.5787 C   0  0  0  0  0  0  0  0  0  0  0  0
   13.4547   -2.9023   16.8964 C   0  0  0  0  0  0  0  0  0  0  0  0
   12.2096   -2.8429   16.2473 C   0  0  0  0  0  0  0  0  0  0  0  0
   11.7644   -1.6464   15.6869 C   0  0  0  0  0  0  0  0  0  0  0  0
   10.1625   -1.4987   15.1024 Cl  0  0  0  0  0  0  0  0  0  0  0  0
   12.5745   -0.5216   15.6856 C   0  0  0  0  0  0  0  0  0  0  0  0
   13.8217   -0.5759   16.3001 C   0  0  0  0  0  0  0  0  0  0  0  0
   14.2544   -1.7459   16.9322 C   0  0  0  0  0  0  0  0  0  0  0  0
   15.4594   -1.7412   17.6307 N   0  0  0  0  0  0  0  0  0  0  0  0
   16.5356   -0.6177   17.7905 C   0  0  0  0  0  0  0  0  0  0  0  0
   16.6052    0.4426   17.2955 O   0  0  0  0  0  0  0  0  0  0  0  0
   17.5897   -1.0576   18.8387 C   0  0  0  0  0  0  0  0  0  0  0  0
   18.4271   -2.5138   18.1705 S   0  0  0  0  0  0  0  0  0  0  0  0
   19.6861   -2.6926   18.8687 O   0  0  0  0  0  0  0  0  0  0  0  0
   17.4562   -3.5982   18.1630 O   0  0  0  0  0  0  0  0  0  0  0  0
   18.8296   -2.1682   16.4686 C   0  0  0  0  0  0  0  0  0  0  0  0
   19.9775   -1.4257   16.1719 C   0  0  0  0  0  0  0  0  0  0  0  0
   20.3165   -1.1881   14.8395 C   0  0  0  0  0  0  0  0  0  0  0  0
   19.5248   -1.7116   13.8230 C   0  0  0  0  0  0  0  0  0  0  0  0
   19.8575   -1.4815   12.5470 F   0  0  0  0  0  0  0  0  0  0  0  0
   18.3984   -2.4759   14.1108 C   0  0  0  0  0  0  0  0  0  0  0  0
   18.0482   -2.7153   15.4411 C   0  0  0  0  0  0  0  0  0  0  0  0
   16.9463   -1.4265   20.2003 C   0  0  0  0  0  0  0  0  0  0  0  0
   16.3616   -0.2203   20.9319 C   0  0  0  0  0  0  0  0  0  0  0  0
   17.4203    0.8470   21.1684 C   0  0  0  0  0  0  0  0  0  0  0  0
   18.0794    1.2720   19.8643 C   0  0  0  0  0  0  0  0  0  0  0  0
   18.6282    0.0772   19.0773 C   0  0  0  0  0  0  0  0  0  0  0  0
  1  2  1  0
  2  3  2  0
  3  4  1  0
  4  5  1  0
  4  6  2  0
  6  7  1  0
  7  8  2  0
  8  9  1  0
  9 10  1  0
 10 11  2  0
 10 12  1  0
 12 13  1  0
 13 14  2  0
 13 15  2  0
 13 16  1  0
 16 17  2  0
 17 18  1  0
 18 19  2  0
 19 20  1  0
 19 21  1  0
 21 22  2  0
 12 23  1  0
 23 24  1  0
 24 25  1  0
 25 26  1  0
 26 27  1  0
  8  2  1  0
 27 12  1  0
 22 16  1  0
M  END
>  <ref_mols>  (1124) 
B1396a

>  <gnina_score>  (1124) 
5.401

>  <smina_score_min>  (1124) 
-3.325

>  <ref_pdb>  (1124) 
B1396a

>  <inspiration_score>  (1124) 
None

>  <inchikey>  (1124) 
CVLRXPSMMUTWRL-UHFFFAOYSA-N

>  <tags>  (1124) 
BulkDock Fragalysis export,openbind_d68ev3c_c2_elabs_scored,openbind_d68ev3c_c2_elabs_scored_4.5plus,openbind_d68ev3c_c2_elabs,openbind_d68ev3c_c2_elabs_scored_5plus,syndirella_product,openbind_d68ev3c_c2_elabs_scored_top80percent,syndirella_placed

>  <smiles>  (1124) 
Cc1cc(Cl)ccc1NC(=O)C1(S(=O)(=O)c2ccc(F)cc2)CCCCC1

>  <subsites>  (1124) 
None

>  <rmsd(smina/fragmenstein)>  (1124) 
1.915

>  <alias>  (1124) 
None

>  <energy_score>  (1124) 
-54.194169

>  <HIPPO Pose ID>  (1124) 
95528

>  <distance_score>  (1124) 
0.565981

>  <HIPPO Compound ID>  (1124) 
129420

>  <gnina_score_min>  (1124) 
5.244

>  <name>  (1124) 
P95528

>  <exports>  (1124) 
['/opt/xchem-fragalysis-2/maxwin/BulkDock/OUTPUTS/openbind_d68ev3c_c2_elabs_1LOTQJ3.sdf', '/opt/xchem-fragalysis-2/maxwin/BulkDock/OUTPUTS/openbind_d68ev3c_c2_elabs_1LSYI5W.sdf']

$$$$
P95529
     RDKit          3D

 27 29  0  0  0  0  0  0  0  0999 V2000
   13.7361   -4.1914   17.6094 C   0  0  0  0  0  0  0  0  0  0  0  0
   13.2871   -3.0137   16.7869 C   0  0  0  0  0  0  0  0  0  0  0  0
   12.1011   -3.1205   16.0408 C   0  0  0  0  0  0  0  0  0  0  0  0
   11.6365   -2.0546   15.2722 C   0  0  0  0  0  0  0  0  0  0  0  0
   12.3597   -0.8688   15.2452 C   0  0  0  0  0  0  0  0  0  0  0  0
   11.7832    0.4536   14.3067 Cl  0  0  0  0  0  0  0  0  0  0  0  0
   13.5460   -0.7446   15.9692 C   0  0  0  0  0  0  0  0  0  0  0  0
   14.0161   -1.8129   16.7395 C   0  0  0  0  0  0  0  0  0  0  0  0
   15.2088   -1.6987   17.4563 N   0  0  0  0  0  0  0  0  0  0  0  0
   16.2505   -0.5338   17.5142 C   0  0  0  0  0  0  0  0  0  0  0  0
   16.3013    0.4693   16.9104 O   0  0  0  0  0  0  0  0  0  0  0  0
   17.3001   -0.8451   18.6180 C   0  0  0  0  0  0  0  0  0  0  0  0
   18.2030   -2.3358   18.1206 S   0  0  0  0  0  0  0  0  0  0  0  0
   19.4145   -2.4467   18.9120 O   0  0  0  0  0  0  0  0  0  0  0  0
   17.2594   -3.4434   18.1182 O   0  0  0  0  0  0  0  0  0  0  0  0
   18.7147   -2.0875   16.4312 C   0  0  0  0  0  0  0  0  0  0  0  0
   19.8802   -1.3593   16.1679 C   0  0  0  0  0  0  0  0  0  0  0  0
   20.3004   -1.1910   14.8484 C   0  0  0  0  0  0  0  0  0  0  0  0
   19.5704   -1.7668   13.8140 C   0  0  0  0  0  0  0  0  0  0  0  0
   19.9817   -1.6039   12.5506 F   0  0  0  0  0  0  0  0  0  0  0  0
   18.4262   -2.5154   14.0716 C   0  0  0  0  0  0  0  0  0  0  0  0
   17.9950   -2.6867   15.3886 C   0  0  0  0  0  0  0  0  0  0  0  0
   18.3045    0.3435   18.7421 C   0  0  0  0  0  0  0  0  0  0  0  0
   17.7883    1.4339   19.6779 C   0  0  0  0  0  0  0  0  0  0  0  0
   17.6253    0.9177   21.1061 C   0  0  0  0  0  0  0  0  0  0  0  0
   17.3699   -0.5861   21.1754 C   0  0  0  0  0  0  0  0  0  0  0  0
   16.5708   -1.0804   19.9731 C   0  0  0  0  0  0  0  0  0  0  0  0
  1  2  1  0
  2  3  2  0
  3  4  1  0
  4  5  2  0
  5  6  1  0
  5  7  1  0
  7  8  2  0
  8  9  1  0
  9 10  1  0
 10 11  2  0
 10 12  1  0
 12 13  1  0
 13 14  2  0
 13 15  2  0
 13 16  1  0
 16 17  2  0
 17 18  1  0
 18 19  2  0
 19 20  1  0
 19 21  1  0
 21 22  2  0
 12 23  1  0
 23 24  1  0
 24 25  1  0
 25 26  1  0
 26 27  1  0
  8  2  1  0
 27 12  1  0
 22 16  1  0
M  END
>  <ref_mols>  (1125) 
B1396a

>  <gnina_score>  (1125) 
5.284

>  <smina_score_min>  (1125) 
-4.007

>  <ref_pdb>  (1125) 
B1396a

>  <inspiration_score>  (1125) 
None

>  <inchikey>  (1125) 
KVLLJKQECSUQBD-UHFFFAOYSA-N

>  <tags>  (1125) 
BulkDock Fragalysis export,openbind_d68ev3c_c2_elabs_scored,openbind_d68ev3c_c2_elabs_scored_4.5plus,openbind_d68ev3c_c2_elabs,openbind_d68ev3c_c2_elabs_scored_5plus,syndirella_product,openbind_d68ev3c_c2_elabs_scored_top80percent,syndirella_placed

>  <smiles>  (1125) 
Cc1ccc(Cl)cc1NC(=O)C1(S(=O)(=O)c2ccc(F)cc2)CCCCC1

>  <subsites>  (1125) 
None

>  <rmsd(smina/fragmenstein)>  (1125) 
2.13

>  <alias>  (1125) 
None

>  <energy_score>  (1125) 
-47.340625

>  <HIPPO Pose ID>  (1125) 
95529

>  <distance_score>  (1125) 
0.411673

>  <HIPPO Compound ID>  (1125) 
129421

>  <gnina_score_min>  (1125) 
5.254

>  <name>  (1125) 
P95529

>  <exports>  (1125) 
['/opt/xchem-fragalysis-2/maxwin/BulkDock/OUTPUTS/openbind_d68ev3c_c2_elabs_1LOTQJ3.sdf', '/opt/xchem-fragalysis-2/maxwin/BulkDock/OUTPUTS/openbind_d68ev3c_c2_elabs_1LSYI5W.sdf']

$$$$
P95530
     RDKit          3D

 27 29  0  0  0  0  0  0  0  0999 V2000
   13.8191   -4.1275   17.5423 C   0  0  0  0  0  0  0  0  0  0  0  0
   13.2939   -2.9310   16.7856 C   0  0  0  0  0  0  0  0  0  0  0  0
   12.1302   -3.1096   16.0135 C   0  0  0  0  0  0  0  0  0  0  0  0
   11.5771   -2.0602   15.2931 C   0  0  0  0  0  0  0  0  0  0  0  0
   12.1581   -0.8034   15.3776 C   0  0  0  0  0  0  0  0  0  0  0  0
   13.3125   -0.5930   16.1503 C   0  0  0  0  0  0  0  0  0  0  0  0
   13.7368    1.0692   16.3433 Cl  0  0  0  0  0  0  0  0  0  0  0  0
   13.9342   -1.6655   16.8224 C   0  0  0  0  0  0  0  0  0  0  0  0
   15.1408   -1.5995   17.5535 N   0  0  0  0  0  0  0  0  0  0  0  0
   16.2798   -0.5234   17.5415 C   0  0  0  0  0  0  0  0  0  0  0  0
   16.4205    0.4255   16.8673 O   0  0  0  0  0  0  0  0  0  0  0  0
   17.3123   -0.8360   18.6650 C   0  0  0  0  0  0  0  0  0  0  0  0
   18.1813   -2.3446   18.1567 S   0  0  0  0  0  0  0  0  0  0  0  0
   19.4059   -2.4639   18.9270 O   0  0  0  0  0  0  0  0  0  0  0  0
   17.2181   -3.4345   18.1906 O   0  0  0  0  0  0  0  0  0  0  0  0
   18.6708   -2.1357   16.4521 C   0  0  0  0  0  0  0  0  0  0  0  0
   19.9131   -1.5598   16.1589 C   0  0  0  0  0  0  0  0  0  0  0  0
   20.3097   -1.4136   14.8294 C   0  0  0  0  0  0  0  0  0  0  0  0
   19.4793   -1.8665   13.8111 C   0  0  0  0  0  0  0  0  0  0  0  0
   19.8641   -1.7239   12.5369 F   0  0  0  0  0  0  0  0  0  0  0  0
   18.2598   -2.4732   14.0956 C   0  0  0  0  0  0  0  0  0  0  0  0
   17.8531   -2.6224   15.4238 C   0  0  0  0  0  0  0  0  0  0  0  0
   16.6380   -1.0741   20.0513 C   0  0  0  0  0  0  0  0  0  0  0  0
   16.4579    0.2204   20.8401 C   0  0  0  0  0  0  0  0  0  0  0  0
   17.8001    0.8530   21.1978 C   0  0  0  0  0  0  0  0  0  0  0  0
   18.8961    0.5320   20.1850 C   0  0  0  0  0  0  0  0  0  0  0  0
   18.3230    0.3547   18.7804 C   0  0  0  0  0  0  0  0  0  0  0  0
  1  2  1  0
  2  3  2  0
  3  4  1  0
  4  5  2  0
  5  6  1  0
  6  7  1  0
  6  8  2  0
  8  9  1  0
  9 10  1  0
 10 11  2  0
 10 12  1  0
 12 13  1  0
 13 14  2  0
 13 15  2  0
 13 16  1  0
 16 17  2  0
 17 18  1  0
 18 19  2  0
 19 20  1  0
 19 21  1  0
 21 22  2  0
 12 23  1  0
 23 24  1  0
 24 25  1  0
 25 26  1  0
 26 27  1  0
  8  2  1  0
 27 12  1  0
 22 16  1  0
M  END
>  <ref_mols>  (1126) 
B1396a

>  <gnina_score>  (1126) 
5.292

>  <smina_score_min>  (1126) 
-4.002

>  <ref_pdb>  (1126) 
B1396a

>  <inspiration_score>  (1126) 
None

>  <inchikey>  (1126) 
UUDQAJJKYCLDOG-UHFFFAOYSA-N

>  <tags>  (1126) 
BulkDock Fragalysis export,openbind_d68ev3c_c2_elabs_scored,openbind_d68ev3c_c2_elabs_scored_4.5plus,openbind_d68ev3c_c2_elabs,openbind_d68ev3c_c2_elabs_scored_5plus,syndirella_product,openbind_d68ev3c_c2_elabs_scored_top80percent,syndirella_placed

>  <smiles>  (1126) 
Cc1cccc(Cl)c1NC(=O)C1(S(=O)(=O)c2ccc(F)cc2)CCCCC1

>  <subsites>  (1126) 
None

>  <rmsd(smina/fragmenstein)>  (1126) 
2.105

>  <alias>  (1126) 
None

>  <energy_score>  (1126) 
-36.715474

>  <HIPPO Pose ID>  (1126) 
95530

>  <distance_score>  (1126) 
0.421121

>  <HIPPO Compound ID>  (1126) 
129422

>  <gnina_score_min>  (1126) 
5.181

>  <name>  (1126) 
P95530

>  <exports>  (1126) 
['/opt/xchem-fragalysis-2/maxwin/BulkDock/OUTPUTS/openbind_d68ev3c_c2_elabs_1LOTQJ3.sdf', '/opt/xchem-fragalysis-2/maxwin/BulkDock/OUTPUTS/openbind_d68ev3c_c2_elabs_1LSYI5W.sdf']

$$$$
P95531
     RDKit          3D

 27 29  0  0  0  0  0  0  0  0999 V2000
   19.9506   -1.4177   12.5224 C   0  0  0  0  0  0  0  0  0  0  0  0
   19.4988   -1.7071   13.9286 C   0  0  0  0  0  0  0  0  0  0  0  0
   19.5143   -0.6744   14.8791 C   0  0  0  0  0  0  0  0  0  0  0  0
   19.1329   -0.9015   16.2046 C   0  0  0  0  0  0  0  0  0  0  0  0
   18.7102   -2.1687   16.5866 C   0  0  0  0  0  0  0  0  0  0  0  0
   18.2697   -2.5616   18.2648 S   0  0  0  0  0  0  0  0  0  0  0  0
   19.5194   -2.8871   18.9259 O   0  0  0  0  0  0  0  0  0  0  0  0
   17.2225   -3.5706   18.1718 O   0  0  0  0  0  0  0  0  0  0  0  0
   17.5242   -1.1858   19.1102 C   0  0  0  0  0  0  0  0  0  0  0  0
   16.5222   -0.4829   18.1770 C   0  0  0  0  0  0  0  0  0  0  0  0
   16.6808    0.6423   17.8860 O   0  0  0  0  0  0  0  0  0  0  0  0
   15.3471   -1.4604   17.8414 N   0  0  0  0  0  0  0  0  0  0  0  0
   14.2214   -1.2818   17.0309 C   0  0  0  0  0  0  0  0  0  0  0  0
   13.9331    0.0042   16.5554 C   0  0  0  0  0  0  0  0  0  0  0  0
   12.8641    0.2338   15.6966 C   0  0  0  0  0  0  0  0  0  0  0  0
   12.1042   -0.8340   15.2628 C   0  0  0  0  0  0  0  0  0  0  0  0
   12.3923   -2.1217   15.7208 C   0  0  0  0  0  0  0  0  0  0  0  0
   11.4035   -3.4613   14.8591 Br  0  0  0  0  0  0  0  0  0  0  0  0
   13.4030   -2.3709   16.6703 C   0  0  0  0  0  0  0  0  0  0  0  0
   13.6405   -3.7363   17.2673 C   0  0  0  0  0  0  0  0  0  0  0  0
   18.5704   -0.1973   19.6746 C   0  0  0  0  0  0  0  0  0  0  0  0
   17.8890    0.5052   20.8508 C   0  0  0  0  0  0  0  0  0  0  0  0
   16.7197   -0.3813   21.2589 C   0  0  0  0  0  0  0  0  0  0  0  0
   16.8519   -1.6463   20.4209 C   0  0  0  0  0  0  0  0  0  0  0  0
   18.6896   -3.2131   15.6486 C   0  0  0  0  0  0  0  0  0  0  0  0
   19.1030   -2.9988   14.3231 C   0  0  0  0  0  0  0  0  0  0  0  0
   19.1737   -4.1586   13.3669 C   0  0  0  0  0  0  0  0  0  0  0  0
  1  2  1  0
  2  3  2  0
  3  4  1  0
  4  5  2  0
  5  6  1  0
  6  7  2  0
  6  8  2  0
  6  9  1  0
  9 10  1  0
 10 11  2  0
 10 12  1  0
 12 13  1  0
 13 14  2  0
 14 15  1  0
 15 16  2  0
 16 17  1  0
 17 18  1  0
 17 19  2  0
 19 20  1  0
  9 21  1  0
 21 22  1  0
 22 23  1  0
 23 24  1  0
  5 25  1  0
 25 26  2  0
 26 27  1  0
 26  2  1  0
 24  9  1  0
 19 13  1  0
M  END
>  <ref_mols>  (1127) 
B1396a

>  <gnina_score>  (1127) 
5.32

>  <smina_score_min>  (1127) 
-3.414

>  <ref_pdb>  (1127) 
B1396a

>  <inspiration_score>  (1127) 
None

>  <inchikey>  (1127) 
AWDPHHXTXBYIOY-UHFFFAOYSA-N

>  <tags>  (1127) 
BulkDock Fragalysis export,openbind_d68ev3c_c2_elabs_scored,openbind_d68ev3c_c2_elabs_scored_4.5plus,openbind_d68ev3c_c2_elabs,openbind_d68ev3c_c2_elabs_scored_5plus,syndirella_product,openbind_d68ev3c_c2_elabs_scored_top80percent,syndirella_placed

>  <smiles>  (1127) 
Cc1ccc(S(=O)(=O)C2(C(=O)Nc3cccc(Br)c3C)CCCC2)cc1C

>  <subsites>  (1127) 
None

>  <rmsd(smina/fragmenstein)>  (1127) 
1.906

>  <alias>  (1127) 
None

>  <energy_score>  (1127) 
-37.367308

>  <HIPPO Pose ID>  (1127) 
95531

>  <distance_score>  (1127) 
0.922411

>  <HIPPO Compound ID>  (1127) 
129423

>  <gnina_score_min>  (1127) 
5.218

>  <name>  (1127) 
P95531

>  <exports>  (1127) 
['/opt/xchem-fragalysis-2/maxwin/BulkDock/OUTPUTS/openbind_d68ev3c_c2_elabs_1LOTQJ3.sdf', '/opt/xchem-fragalysis-2/maxwin/BulkDock/OUTPUTS/openbind_d68ev3c_c2_elabs_1LSYI5W.sdf']

$$$$
P95532
     RDKit          3D

 27 29  0  0  0  0  0  0  0  0999 V2000
   19.8988   -1.6756   12.3224 C   0  0  0  0  0  0  0  0  0  0  0  0
   19.4975   -1.8378   13.7648 C   0  0  0  0  0  0  0  0  0  0  0  0
   18.3289   -2.5534   14.0725 C   0  0  0  0  0  0  0  0  0  0  0  0
   17.9198   -2.7254   15.3952 C   0  0  0  0  0  0  0  0  0  0  0  0
   18.6769   -2.1601   16.4205 C   0  0  0  0  0  0  0  0  0  0  0  0
   18.1735   -2.3617   18.1135 S   0  0  0  0  0  0  0  0  0  0  0  0
   17.1811   -3.4237   18.1564 O   0  0  0  0  0  0  0  0  0  0  0  0
   19.3856   -2.4947   18.9017 O   0  0  0  0  0  0  0  0  0  0  0  0
   17.3469   -0.8488   18.5710 C   0  0  0  0  0  0  0  0  0  0  0  0
   16.2936   -0.5191   17.4865 C   0  0  0  0  0  0  0  0  0  0  0  0
   16.4325    0.4183   16.7955 O   0  0  0  0  0  0  0  0  0  0  0  0
   15.1039   -1.5304   17.5957 N   0  0  0  0  0  0  0  0  0  0  0  0
   13.9214   -1.6417   16.8298 C   0  0  0  0  0  0  0  0  0  0  0  0
   13.2990   -2.9178   16.8124 C   0  0  0  0  0  0  0  0  0  0  0  0
   13.8334   -4.0957   17.5913 C   0  0  0  0  0  0  0  0  0  0  0  0
   12.1478   -3.1294   16.0317 C   0  0  0  0  0  0  0  0  0  0  0  0
   11.5901   -2.1044   15.2836 C   0  0  0  0  0  0  0  0  0  0  0  0
   12.1556   -0.8386   15.3440 C   0  0  0  0  0  0  0  0  0  0  0  0
   13.3034   -0.5844   16.1210 C   0  0  0  0  0  0  0  0  0  0  0  0
   13.6879    1.1597   16.2503 S   0  0  0  0  0  0  0  0  0  0  0  0
   18.3468    0.3166   18.7379 C   0  0  0  0  0  0  0  0  0  0  0  0
   17.6410    1.3236   19.6455 C   0  0  0  0  0  0  0  0  0  0  0  0
   16.5780    0.5363   20.4050 C   0  0  0  0  0  0  0  0  0  0  0  0
   16.7619   -0.9198   19.9903 C   0  0  0  0  0  0  0  0  0  0  0  0
   19.8568   -1.4669   16.1366 C   0  0  0  0  0  0  0  0  0  0  0  0
   20.2722   -1.2915   14.8080 C   0  0  0  0  0  0  0  0  0  0  0  0
   21.5410   -0.5330   14.5265 C   0  0  0  0  0  0  0  0  0  0  0  0
  1  2  1  0
  2  3  2  0
  3  4  1  0
  4  5  2  0
  5  6  1  0
  6  7  2  0
  6  8  2  0
  6  9  1  0
  9 10  1  0
 10 11  2  0
 10 12  1  0
 12 13  1  0
 13 14  2  0
 14 15  1  0
 14 16  1  0
 16 17  2  0
 17 18  1  0
 18 19  2  0
 19 20  1  0
  9 21  1  0
 21 22  1  0
 22 23  1  0
 23 24  1  0
  5 25  1  0
 25 26  2  0
 26 27  1  0
 26  2  1  0
 24  9  1  0
 19 13  1  0
M  END
>  <ref_mols>  (1128) 
B1396a

>  <gnina_score>  (1128) 
5.256

>  <smina_score_min>  (1128) 
-3.825

>  <ref_pdb>  (1128) 
B1396a

>  <inspiration_score>  (1128) 
None

>  <inchikey>  (1128) 
ZRFXMNPFGUFCDU-UHFFFAOYSA-N

>  <tags>  (1128) 
BulkDock Fragalysis export,openbind_d68ev3c_c2_elabs_scored,openbind_d68ev3c_c2_elabs_scored_4.5plus,openbind_d68ev3c_c2_elabs,openbind_d68ev3c_c2_elabs_scored_5plus,syndirella_product,openbind_d68ev3c_c2_elabs_scored_top80percent,syndirella_placed

>  <smiles>  (1128) 
Cc1ccc(S(=O)(=O)C2(C(=O)Nc3c(C)cccc3S)CCCC2)cc1C

>  <subsites>  (1128) 
None

>  <rmsd(smina/fragmenstein)>  (1128) 
2.09

>  <alias>  (1128) 
None

>  <energy_score>  (1128) 
-45.467711

>  <HIPPO Pose ID>  (1128) 
95532

>  <distance_score>  (1128) 
0.393334

>  <HIPPO Compound ID>  (1128) 
129424

>  <gnina_score_min>  (1128) 
5.218

>  <name>  (1128) 
P95532

>  <exports>  (1128) 
['/opt/xchem-fragalysis-2/maxwin/BulkDock/OUTPUTS/openbind_d68ev3c_c2_elabs_1LOTQJ3.sdf', '/opt/xchem-fragalysis-2/maxwin/BulkDock/OUTPUTS/openbind_d68ev3c_c2_elabs_1LSYI5W.sdf']

$$$$
P95533
     RDKit          3D

 27 29  0  0  0  0  0  0  0  0999 V2000
   19.9009   -1.6763   12.3248 C   0  0  0  0  0  0  0  0  0  0  0  0
   19.4991   -1.8382   13.7671 C   0  0  0  0  0  0  0  0  0  0  0  0
   18.3293   -2.5520   14.0745 C   0  0  0  0  0  0  0  0  0  0  0  0
   17.9186   -2.7216   15.3971 C   0  0  0  0  0  0  0  0  0  0  0  0
   18.6749   -2.1556   16.4225 C   0  0  0  0  0  0  0  0  0  0  0  0
   18.1724   -2.3587   18.1154 S   0  0  0  0  0  0  0  0  0  0  0  0
   19.3850   -2.4968   18.9022 O   0  0  0  0  0  0  0  0  0  0  0  0
   17.1784   -3.4198   18.1576 O   0  0  0  0  0  0  0  0  0  0  0  0
   17.3491   -0.8465   18.5794 C   0  0  0  0  0  0  0  0  0  0  0  0
   16.2881   -0.5160   17.5037 C   0  0  0  0  0  0  0  0  0  0  0  0
   16.4176    0.4261   16.8179 O   0  0  0  0  0  0  0  0  0  0  0  0
   15.1034   -1.5353   17.6140 N   0  0  0  0  0  0  0  0  0  0  0  0
   13.9182   -1.6481   16.8552 C   0  0  0  0  0  0  0  0  0  0  0  0
   13.2967   -2.9213   16.8179 C   0  0  0  0  0  0  0  0  0  0  0  0
   13.8293   -4.1079   17.5834 C   0  0  0  0  0  0  0  0  0  0  0  0
   12.1487   -3.1186   16.0265 C   0  0  0  0  0  0  0  0  0  0  0  0
   11.5952   -2.0813   15.2878 C   0  0  0  0  0  0  0  0  0  0  0  0
   12.1596   -0.8168   15.3707 C   0  0  0  0  0  0  0  0  0  0  0  0
   13.2967   -0.5883   16.1623 C   0  0  0  0  0  0  0  0  0  0  0  0
   13.7015    1.0794   16.3613 Cl  0  0  0  0  0  0  0  0  0  0  0  0
   18.3500    0.3184   18.7420 C   0  0  0  0  0  0  0  0  0  0  0  0
   17.6517    1.3231   19.6580 C   0  0  0  0  0  0  0  0  0  0  0  0
   16.5910    0.5354   20.4201 C   0  0  0  0  0  0  0  0  0  0  0  0
   16.7720   -0.9200   20.0019 C   0  0  0  0  0  0  0  0  0  0  0  0
   19.8555   -1.4636   16.1388 C   0  0  0  0  0  0  0  0  0  0  0  0
   20.2722   -1.2898   14.8103 C   0  0  0  0  0  0  0  0  0  0  0  0
   21.5411   -0.5313   14.5292 C   0  0  0  0  0  0  0  0  0  0  0  0
  1  2  1  0
  2  3  2  0
  3  4  1  0
  4  5  2  0
  5  6  1  0
  6  7  2  0
  6  8  2  0
  6  9  1  0
  9 10  1  0
 10 11  2  0
 10 12  1  0
 12 13  1  0
 13 14  2  0
 14 15  1  0
 14 16  1  0
 16 17  2  0
 17 18  1  0
 18 19  2  0
 19 20  1  0
  9 21  1  0
 21 22  1  0
 22 23  1  0
 23 24  1  0
  5 25  1  0
 25 26  2  0
 26 27  1  0
 26  2  1  0
 24  9  1  0
 19 13  1  0
M  END
>  <ref_mols>  (1129) 
B1396a

>  <gnina_score>  (1129) 
5.289

>  <smina_score_min>  (1129) 
-3.952

>  <ref_pdb>  (1129) 
B1396a

>  <inspiration_score>  (1129) 
None

>  <inchikey>  (1129) 
UNNZIOSHRMDOGO-UHFFFAOYSA-N

>  <tags>  (1129) 
BulkDock Fragalysis export,openbind_d68ev3c_c2_elabs_scored,openbind_d68ev3c_c2_elabs_scored_4.5plus,openbind_d68ev3c_c2_elabs,openbind_d68ev3c_c2_elabs_scored_5plus,syndirella_product,openbind_d68ev3c_c2_elabs_scored_top80percent,syndirella_placed

>  <smiles>  (1129) 
Cc1ccc(S(=O)(=O)C2(C(=O)Nc3c(C)cccc3Cl)CCCC2)cc1C

>  <subsites>  (1129) 
None

>  <rmsd(smina/fragmenstein)>  (1129) 
2.119

>  <alias>  (1129) 
None

>  <energy_score>  (1129) 
-44.62267

>  <HIPPO Pose ID>  (1129) 
95533

>  <distance_score>  (1129) 
0.395102

>  <HIPPO Compound ID>  (1129) 
129425

>  <gnina_score_min>  (1129) 
5.223

>  <name>  (1129) 
P95533

>  <exports>  (1129) 
['/opt/xchem-fragalysis-2/maxwin/BulkDock/OUTPUTS/openbind_d68ev3c_c2_elabs_1LOTQJ3.sdf', '/opt/xchem-fragalysis-2/maxwin/BulkDock/OUTPUTS/openbind_d68ev3c_c2_elabs_1LSYI5W.sdf']

$$$$
P95534
     RDKit          3D

 27 29  0  0  0  0  0  0  0  0999 V2000
   19.8551   -1.3015   12.3254 C   0  0  0  0  0  0  0  0  0  0  0  0
   19.4124   -1.5918   13.7349 C   0  0  0  0  0  0  0  0  0  0  0  0
   20.2928   -1.3251   14.7947 C   0  0  0  0  0  0  0  0  0  0  0  0
   19.9133   -1.5572   16.1159 C   0  0  0  0  0  0  0  0  0  0  0  0
   18.6425   -2.0609   16.3873 C   0  0  0  0  0  0  0  0  0  0  0  0
   18.1762   -2.3887   18.0743 S   0  0  0  0  0  0  0  0  0  0  0  0
   17.2247   -3.4888   18.0475 O   0  0  0  0  0  0  0  0  0  0  0  0
   19.4086   -2.5417   18.8265 O   0  0  0  0  0  0  0  0  0  0  0  0
   17.3029   -0.9397   18.6691 C   0  0  0  0  0  0  0  0  0  0  0  0
   16.2260   -0.5405   17.6417 C   0  0  0  0  0  0  0  0  0  0  0  0
   16.2788    0.4888   17.0835 O   0  0  0  0  0  0  0  0  0  0  0  0
   15.1334   -1.6598   17.6014 N   0  0  0  0  0  0  0  0  0  0  0  0
   13.9787   -1.7724   16.8223 C   0  0  0  0  0  0  0  0  0  0  0  0
   13.5315   -0.6889   16.0603 C   0  0  0  0  0  0  0  0  0  0  0  0
   12.3784   -0.8048   15.2832 C   0  0  0  0  0  0  0  0  0  0  0  0
   11.8274    0.5399   14.3610 Cl  0  0  0  0  0  0  0  0  0  0  0  0
   11.6660   -1.9973   15.2483 C   0  0  0  0  0  0  0  0  0  0  0  0
   12.1084   -3.0796   16.0068 C   0  0  0  0  0  0  0  0  0  0  0  0
   13.2612   -2.9816   16.8051 C   0  0  0  0  0  0  0  0  0  0  0  0
   13.6903   -4.1792   17.6092 C   0  0  0  0  0  0  0  0  0  0  0  0
   18.2653    0.2314   18.9570 C   0  0  0  0  0  0  0  0  0  0  0  0
   18.7528    0.0571   20.3944 C   0  0  0  0  0  0  0  0  0  0  0  0
   17.8035   -0.9304   21.0581 C   0  0  0  0  0  0  0  0  0  0  0  0
   16.6817   -1.1732   20.0576 C   0  0  0  0  0  0  0  0  0  0  0  0
   17.7635   -2.3670   15.3430 C   0  0  0  0  0  0  0  0  0  0  0  0
   18.1256   -2.0975   14.0126 C   0  0  0  0  0  0  0  0  0  0  0  0
   17.1264   -2.3156   12.9079 C   0  0  0  0  0  0  0  0  0  0  0  0
  1  2  1  0
  2  3  2  0
  3  4  1  0
  4  5  2  0
  5  6  1  0
  6  7  2  0
  6  8  2  0
  6  9  1  0
  9 10  1  0
 10 11  2  0
 10 12  1  0
 12 13  1  0
 13 14  2  0
 14 15  1  0
 15 16  1  0
 15 17  2  0
 17 18  1  0
 18 19  2  0
 19 20  1  0
  9 21  1  0
 21 22  1  0
 22 23  1  0
 23 24  1  0
  5 25  1  0
 25 26  2  0
 26 27  1  0
 26  2  1  0
 24  9  1  0
 19 13  1  0
M  END
>  <ref_mols>  (1130) 
B1396a

>  <gnina_score>  (1130) 
5.196

>  <smina_score_min>  (1130) 
-3.875

>  <ref_pdb>  (1130) 
B1396a

>  <inspiration_score>  (1130) 
None

>  <inchikey>  (1130) 
WTGGZPJOJWXACZ-UHFFFAOYSA-N

>  <tags>  (1130) 
BulkDock Fragalysis export,openbind_d68ev3c_c2_elabs_scored,openbind_d68ev3c_c2_elabs_scored_4.5plus,openbind_d68ev3c_c2_elabs,openbind_d68ev3c_c2_elabs_scored_5plus,syndirella_product,openbind_d68ev3c_c2_elabs_scored_top80percent,syndirella_placed

>  <smiles>  (1130) 
Cc1ccc(S(=O)(=O)C2(C(=O)Nc3cc(Cl)ccc3C)CCCC2)cc1C

>  <subsites>  (1130) 
None

>  <rmsd(smina/fragmenstein)>  (1130) 
1.712

>  <alias>  (1130) 
None

>  <energy_score>  (1130) 
-48.155043

>  <HIPPO Pose ID>  (1130) 
95534

>  <distance_score>  (1130) 
0.510382

>  <HIPPO Compound ID>  (1130) 
129426

>  <gnina_score_min>  (1130) 
5.153

>  <name>  (1130) 
P95534

>  <exports>  (1130) 
['/opt/xchem-fragalysis-2/maxwin/BulkDock/OUTPUTS/openbind_d68ev3c_c2_elabs_1LOTQJ3.sdf', '/opt/xchem-fragalysis-2/maxwin/BulkDock/OUTPUTS/openbind_d68ev3c_c2_elabs_1LSYI5W.sdf']

$$$$
P95535
     RDKit          3D

 27 29  0  0  0  0  0  0  0  0999 V2000
   19.9452   -1.5684   12.3539 C   0  0  0  0  0  0  0  0  0  0  0  0
   19.5384   -1.8192   13.7813 C   0  0  0  0  0  0  0  0  0  0  0  0
   19.5767   -0.7601   14.7008 C   0  0  0  0  0  0  0  0  0  0  0  0
   19.2384   -0.9540   16.0419 C   0  0  0  0  0  0  0  0  0  0  0  0
   18.8366   -2.2142   16.4715 C   0  0  0  0  0  0  0  0  0  0  0  0
   18.4393   -2.5444   18.1735 S   0  0  0  0  0  0  0  0  0  0  0  0
   17.4547   -3.6179   18.1591 O   0  0  0  0  0  0  0  0  0  0  0  0
   19.7061   -2.7536   18.8484 O   0  0  0  0  0  0  0  0  0  0  0  0
   17.6258   -1.1344   18.9133 C   0  0  0  0  0  0  0  0  0  0  0  0
   16.5180   -0.6195   17.9739 C   0  0  0  0  0  0  0  0  0  0  0  0
   16.5252    0.4914   17.5987 O   0  0  0  0  0  0  0  0  0  0  0  0
   15.4596   -1.7529   17.7640 N   0  0  0  0  0  0  0  0  0  0  0  0
   14.2927   -1.7712   17.0014 C   0  0  0  0  0  0  0  0  0  0  0  0
   13.8749   -0.6059   16.3504 C   0  0  0  0  0  0  0  0  0  0  0  0
   12.6431   -0.5575   15.7035 C   0  0  0  0  0  0  0  0  0  0  0  0
   11.8337   -1.6831   15.6923 C   0  0  0  0  0  0  0  0  0  0  0  0
   10.2432   -1.5429   15.0773 Cl  0  0  0  0  0  0  0  0  0  0  0  0
   12.2679   -2.8766   16.2658 C   0  0  0  0  0  0  0  0  0  0  0  0
   13.4986   -2.9315   16.9421 C   0  0  0  0  0  0  0  0  0  0  0  0
   13.8931   -4.2116   17.6269 C   0  0  0  0  0  0  0  0  0  0  0  0
   18.6464   -0.0126   19.2815 C   0  0  0  0  0  0  0  0  0  0  0  0
   18.3843    0.3440   20.7396 C   0  0  0  0  0  0  0  0  0  0  0  0
   17.9374   -0.9672   21.3451 C   0  0  0  0  0  0  0  0  0  0  0  0
   17.0009   -1.5240   20.2845 C   0  0  0  0  0  0  0  0  0  0  0  0
   18.7897   -3.2835   15.5658 C   0  0  0  0  0  0  0  0  0  0  0  0
   19.1596   -3.1016   14.2229 C   0  0  0  0  0  0  0  0  0  0  0  0
   19.2117   -4.2879   13.2976 C   0  0  0  0  0  0  0  0  0  0  0  0
  1  2  1  0
  2  3  2  0
  3  4  1  0
  4  5  2  0
  5  6  1  0
  6  7  2  0
  6  8  2  0
  6  9  1  0
  9 10  1  0
 10 11  2  0
 10 12  1  0
 12 13  1  0
 13 14  2  0
 14 15  1  0
 15 16  2  0
 16 17  1  0
 16 18  1  0
 18 19  2  0
 19 20  1  0
  9 21  1  0
 21 22  1  0
 22 23  1  0
 23 24  1  0
  5 25  1  0
 25 26  2  0
 26 27  1  0
 26  2  1  0
 24  9  1  0
 19 13  1  0
M  END
>  <ref_mols>  (1131) 
B1396a

>  <gnina_score>  (1131) 
5.506

>  <smina_score_min>  (1131) 
-3.525

>  <ref_pdb>  (1131) 
B1396a

>  <inspiration_score>  (1131) 
None

>  <inchikey>  (1131) 
ALQCYKXLEHFUAN-UHFFFAOYSA-N

>  <tags>  (1131) 
BulkDock Fragalysis export,openbind_d68ev3c_c2_elabs_scored,openbind_d68ev3c_c2_elabs_scored_4.5plus,openbind_d68ev3c_c2_elabs,openbind_d68ev3c_c2_elabs_scored_5plus,syndirella_product,openbind_d68ev3c_c2_elabs_scored_top80percent,syndirella_placed

>  <smiles>  (1131) 
Cc1ccc(S(=O)(=O)C2(C(=O)Nc3ccc(Cl)cc3C)CCCC2)cc1C

>  <subsites>  (1131) 
None

>  <rmsd(smina/fragmenstein)>  (1131) 
2.291

>  <alias>  (1131) 
None

>  <energy_score>  (1131) 
-48.232155

>  <HIPPO Pose ID>  (1131) 
95535

>  <distance_score>  (1131) 
0.635848

>  <HIPPO Compound ID>  (1131) 
129427

>  <gnina_score_min>  (1131) 
5.237

>  <name>  (1131) 
P95535

>  <exports>  (1131) 
['/opt/xchem-fragalysis-2/maxwin/BulkDock/OUTPUTS/openbind_d68ev3c_c2_elabs_1LOTQJ3.sdf', '/opt/xchem-fragalysis-2/maxwin/BulkDock/OUTPUTS/openbind_d68ev3c_c2_elabs_1LSYI5W.sdf']

$$$$
P95536
     RDKit          3D

 27 29  0  0  0  0  0  0  0  0999 V2000
   19.9023   -1.2653   12.3488 C   0  0  0  0  0  0  0  0  0  0  0  0
   19.4612   -1.5648   13.7569 C   0  0  0  0  0  0  0  0  0  0  0  0
   20.3369   -1.2889   14.8186 C   0  0  0  0  0  0  0  0  0  0  0  0
   19.9607   -1.5312   16.1388 C   0  0  0  0  0  0  0  0  0  0  0  0
   18.6980   -2.0555   16.4062 C   0  0  0  0  0  0  0  0  0  0  0  0
   18.2339   -2.3917   18.0896 S   0  0  0  0  0  0  0  0  0  0  0  0
   19.4598   -2.6090   18.8375 O   0  0  0  0  0  0  0  0  0  0  0  0
   17.2341   -3.4476   18.0632 O   0  0  0  0  0  0  0  0  0  0  0  0
   17.4445   -0.9036   18.7061 C   0  0  0  0  0  0  0  0  0  0  0  0
   16.3330   -0.4519   17.7289 C   0  0  0  0  0  0  0  0  0  0  0  0
   16.3446    0.6270   17.2705 O   0  0  0  0  0  0  0  0  0  0  0  0
   15.2689   -1.5921   17.6082 N   0  0  0  0  0  0  0  0  0  0  0  0
   14.0981   -1.6625   16.8507 C   0  0  0  0  0  0  0  0  0  0  0  0
   13.6738   -0.5582   16.1001 C   0  0  0  0  0  0  0  0  0  0  0  0
   12.5177   -0.6224   15.3170 C   0  0  0  0  0  0  0  0  0  0  0  0
   11.7848   -1.7987   15.2679 C   0  0  0  0  0  0  0  0  0  0  0  0
   12.2116   -2.8913   16.0126 C   0  0  0  0  0  0  0  0  0  0  0  0
   11.4958   -4.0154   15.9384 F   0  0  0  0  0  0  0  0  0  0  0  0
   13.3531   -2.8504   16.8224 C   0  0  0  0  0  0  0  0  0  0  0  0
   13.7440   -4.0717   17.6055 C   0  0  0  0  0  0  0  0  0  0  0  0
   16.8461   -1.1325   20.1195 C   0  0  0  0  0  0  0  0  0  0  0  0
   17.6418   -0.2441   21.0698 C   0  0  0  0  0  0  0  0  0  0  0  0
   18.0775    0.9170   20.1993 C   0  0  0  0  0  0  0  0  0  0  0  0
   18.4940    0.2248   18.9102 C   0  0  0  0  0  0  0  0  0  0  0  0
   17.8216   -2.3658   15.3609 C   0  0  0  0  0  0  0  0  0  0  0  0
   18.1806   -2.0870   14.0318 C   0  0  0  0  0  0  0  0  0  0  0  0
   17.1869   -2.3200   12.9255 C   0  0  0  0  0  0  0  0  0  0  0  0
  1  2  1  0
  2  3  2  0
  3  4  1  0
  4  5  2  0
  5  6  1  0
  6  7  2  0
  6  8  2  0
  6  9  1  0
  9 10  1  0
 10 11  2  0
 10 12  1  0
 12 13  1  0
 13 14  2  0
 14 15  1  0
 15 16  2  0
 16 17  1  0
 17 18  1  0
 17 19  2  0
 19 20  1  0
  9 21  1  0
 21 22  1  0
 22 23  1  0
 23 24  1  0
  5 25  1  0
 25 26  2  0
 26 27  1  0
 26  2  1  0
 24  9  1  0
 19 13  1  0
M  END
>  <ref_mols>  (1132) 
B1396a

>  <gnina_score>  (1132) 
5.177

>  <smina_score_min>  (1132) 
-4.02

>  <ref_pdb>  (1132) 
B1396a

>  <inspiration_score>  (1132) 
None

>  <inchikey>  (1132) 
ASZBFTPGWLRJBU-UHFFFAOYSA-N

>  <tags>  (1132) 
BulkDock Fragalysis export,openbind_d68ev3c_c2_elabs_scored,openbind_d68ev3c_c2_elabs_scored_4.5plus,openbind_d68ev3c_c2_elabs,openbind_d68ev3c_c2_elabs_scored_5plus,syndirella_product,openbind_d68ev3c_c2_elabs_scored_top80percent,syndirella_placed

>  <smiles>  (1132) 
Cc1ccc(S(=O)(=O)C2(C(=O)Nc3cccc(F)c3C)CCCC2)cc1C

>  <subsites>  (1132) 
None

>  <rmsd(smina/fragmenstein)>  (1132) 
1.654

>  <alias>  (1132) 
None

>  <energy_score>  (1132) 
-38.633381

>  <HIPPO Pose ID>  (1132) 
95536

>  <distance_score>  (1132) 
0.594034

>  <HIPPO Compound ID>  (1132) 
129428

>  <gnina_score_min>  (1132) 
5.116

>  <name>  (1132) 
P95536

>  <exports>  (1132) 
['/opt/xchem-fragalysis-2/maxwin/BulkDock/OUTPUTS/openbind_d68ev3c_c2_elabs_1LOTQJ3.sdf', '/opt/xchem-fragalysis-2/maxwin/BulkDock/OUTPUTS/openbind_d68ev3c_c2_elabs_1LSYI5W.sdf']

$$$$
P95537
     RDKit          3D

 27 29  0  0  0  0  0  0  0  0999 V2000
   19.7713   -1.3619   12.4484 C   0  0  0  0  0  0  0  0  0  0  0  0
   19.3957   -1.6203   13.8836 C   0  0  0  0  0  0  0  0  0  0  0  0
   18.2584   -2.3938   14.1636 C   0  0  0  0  0  0  0  0  0  0  0  0
   17.8779   -2.6543   15.4800 C   0  0  0  0  0  0  0  0  0  0  0  0
   18.6319   -2.1281   16.5303 C   0  0  0  0  0  0  0  0  0  0  0  0
   18.1994   -2.5211   18.2098 S   0  0  0  0  0  0  0  0  0  0  0  0
   19.4366   -2.8461   18.8952 O   0  0  0  0  0  0  0  0  0  0  0  0
   17.1368   -3.5146   18.1521 O   0  0  0  0  0  0  0  0  0  0  0  0
   17.4942   -1.0540   18.9499 C   0  0  0  0  0  0  0  0  0  0  0  0
   16.4661   -0.4341   17.9796 C   0  0  0  0  0  0  0  0  0  0  0  0
   16.6095    0.6639   17.5929 O   0  0  0  0  0  0  0  0  0  0  0  0
   15.2913   -1.4450   17.7498 N   0  0  0  0  0  0  0  0  0  0  0  0
   14.1479   -1.3416   16.9497 C   0  0  0  0  0  0  0  0  0  0  0  0
   13.8270   -0.0923   16.4010 C   0  0  0  0  0  0  0  0  0  0  0  0
   12.7394    0.0664   15.5481 C   0  0  0  0  0  0  0  0  0  0  0  0
   11.9891   -1.0386   15.1959 C   0  0  0  0  0  0  0  0  0  0  0  0
   12.3091   -2.2900   15.7256 C   0  0  0  0  0  0  0  0  0  0  0  0
   11.4023   -3.5819   15.0717 Cl  0  0  0  0  0  0  0  0  0  0  0  0
   13.3472   -2.4643   16.6639 C   0  0  0  0  0  0  0  0  0  0  0  0
   13.6267   -3.7959   17.3156 C   0  0  0  0  0  0  0  0  0  0  0  0
   18.6036   -0.0258   19.3093 C   0  0  0  0  0  0  0  0  0  0  0  0
   18.1473    0.5960   20.6203 C   0  0  0  0  0  0  0  0  0  0  0  0
   17.5961   -0.5978   21.3720 C   0  0  0  0  0  0  0  0  0  0  0  0
   16.8199   -1.3733   20.3120 C   0  0  0  0  0  0  0  0  0  0  0  0
   19.7773   -1.3724   16.2717 C   0  0  0  0  0  0  0  0  0  0  0  0
   20.1619   -1.1016   14.9483 C   0  0  0  0  0  0  0  0  0  0  0  0
   21.3997   -0.2836   14.6950 C   0  0  0  0  0  0  0  0  0  0  0  0
  1  2  1  0
  2  3  2  0
  3  4  1  0
  4  5  2  0
  5  6  1  0
  6  7  2  0
  6  8  2  0
  6  9  1  0
  9 10  1  0
 10 11  2  0
 10 12  1  0
 12 13  1  0
 13 14  2  0
 14 15  1  0
 15 16  2  0
 16 17  1  0
 17 18  1  0
 17 19  2  0
 19 20  1  0
  9 21  1  0
 21 22  1  0
 22 23  1  0
 23 24  1  0
  5 25  1  0
 25 26  2  0
 26 27  1  0
 26  2  1  0
 24  9  1  0
 19 13  1  0
M  END
>  <ref_mols>  (1133) 
B1396a

>  <gnina_score>  (1133) 
5.323

>  <smina_score_min>  (1133) 
-4.13

>  <ref_pdb>  (1133) 
B1396a

>  <inspiration_score>  (1133) 
None

>  <inchikey>  (1133) 
KVFDQXPEXFXYKB-UHFFFAOYSA-N

>  <tags>  (1133) 
BulkDock Fragalysis export,openbind_d68ev3c_c2_elabs_scored,openbind_d68ev3c_c2_elabs_scored_4.5plus,openbind_d68ev3c_c2_elabs,openbind_d68ev3c_c2_elabs_scored_5plus,syndirella_product,openbind_d68ev3c_c2_elabs_scored_top80percent,syndirella_placed

>  <smiles>  (1133) 
Cc1ccc(S(=O)(=O)C2(C(=O)Nc3cccc(Cl)c3C)CCCC2)cc1C

>  <subsites>  (1133) 
None

>  <rmsd(smina/fragmenstein)>  (1133) 
2.891

>  <alias>  (1133) 
None

>  <energy_score>  (1133) 
-35.292025

>  <HIPPO Pose ID>  (1133) 
95537

>  <distance_score>  (1133) 
0.80046

>  <HIPPO Compound ID>  (1133) 
129429

>  <gnina_score_min>  (1133) 
5.069

>  <name>  (1133) 
P95537

>  <exports>  (1133) 
['/opt/xchem-fragalysis-2/maxwin/BulkDock/OUTPUTS/openbind_d68ev3c_c2_elabs_1LOTQJ3.sdf', '/opt/xchem-fragalysis-2/maxwin/BulkDock/OUTPUTS/openbind_d68ev3c_c2_elabs_1LSYI5W.sdf']

$$$$
P95538
     RDKit          3D

 27 29  0  0  0  0  0  0  0  0999 V2000
   19.7958   -1.5776   12.3213 C   0  0  0  0  0  0  0  0  0  0  0  0
   19.4140   -1.7637   13.7661 C   0  0  0  0  0  0  0  0  0  0  0  0
   18.2359   -2.4619   14.0766 C   0  0  0  0  0  0  0  0  0  0  0  0
   17.8452   -2.6551   15.4018 C   0  0  0  0  0  0  0  0  0  0  0  0
   18.6293   -2.1293   16.4280 C   0  0  0  0  0  0  0  0  0  0  0  0
   18.1633   -2.3927   18.1229 S   0  0  0  0  0  0  0  0  0  0  0  0
   19.3920   -2.5581   18.8797 O   0  0  0  0  0  0  0  0  0  0  0  0
   17.1787   -3.4625   18.1465 O   0  0  0  0  0  0  0  0  0  0  0  0
   17.3482   -0.8930   18.6662 C   0  0  0  0  0  0  0  0  0  0  0  0
   16.2676   -0.4901   17.6345 C   0  0  0  0  0  0  0  0  0  0  0  0
   16.3400    0.5372   17.0729 O   0  0  0  0  0  0  0  0  0  0  0  0
   15.1437   -1.5838   17.6098 N   0  0  0  0  0  0  0  0  0  0  0  0
   13.9633   -1.6696   16.8359 C   0  0  0  0  0  0  0  0  0  0  0  0
   13.3786   -0.6229   16.0907 C   0  0  0  0  0  0  0  0  0  0  0  0
   13.8491    0.8033   16.0712 C   0  0  0  0  0  0  0  0  0  0  0  0
   12.2286   -0.8826   15.3093 C   0  0  0  0  0  0  0  0  0  0  0  0
   11.6241   -2.1299   15.2927 C   0  0  0  0  0  0  0  0  0  0  0  0
   12.1556   -3.1434   16.0711 C   0  0  0  0  0  0  0  0  0  0  0  0
   13.3116   -2.9335   16.8447 C   0  0  0  0  0  0  0  0  0  0  0  0
   13.8248   -4.1084   17.6432 C   0  0  0  0  0  0  0  0  0  0  0  0
   18.3836    0.2533   18.8561 C   0  0  0  0  0  0  0  0  0  0  0  0
   17.9218    0.9962   20.1005 C   0  0  0  0  0  0  0  0  0  0  0  0
   17.4789   -0.1329   21.0076 C   0  0  0  0  0  0  0  0  0  0  0  0
   16.7185   -1.0690   20.0745 C   0  0  0  0  0  0  0  0  0  0  0  0
   19.8163   -1.4506   16.1402 C   0  0  0  0  0  0  0  0  0  0  0  0
   20.2136   -1.2527   14.8088 C   0  0  0  0  0  0  0  0  0  0  0  0
   21.4934   -0.5143   14.5237 C   0  0  0  0  0  0  0  0  0  0  0  0
  1  2  1  0
  2  3  2  0
  3  4  1  0
  4  5  2  0
  5  6  1  0
  6  7  2  0
  6  8  2  0
  6  9  1  0
  9 10  1  0
 10 11  2  0
 10 12  1  0
 12 13  1  0
 13 14  2  0
 14 15  1  0
 14 16  1  0
 16 17  2  0
 17 18  1  0
 18 19  2  0
 19 20  1  0
  9 21  1  0
 21 22  1  0
 22 23  1  0
 23 24  1  0
  5 25  1  0
 25 26  2  0
 26 27  1  0
 26  2  1  0
 24  9  1  0
 19 13  1  0
M  END
>  <ref_mols>  (1134) 
B1396a

>  <gnina_score>  (1134) 
5.131

>  <smina_score_min>  (1134) 
-4.1

>  <ref_pdb>  (1134) 
B1396a

>  <inspiration_score>  (1134) 
None

>  <inchikey>  (1134) 
CXLKMKXNJGNBQS-UHFFFAOYSA-N

>  <tags>  (1134) 
BulkDock Fragalysis export,openbind_d68ev3c_c2_elabs_scored,openbind_d68ev3c_c2_elabs_scored_4.5plus,openbind_d68ev3c_c2_elabs,openbind_d68ev3c_c2_elabs_scored_5plus,syndirella_product,openbind_d68ev3c_c2_elabs_scored_top80percent,syndirella_placed

>  <smiles>  (1134) 
Cc1ccc(S(=O)(=O)C2(C(=O)Nc3c(C)cccc3C)CCCC2)cc1C

>  <subsites>  (1134) 
None

>  <rmsd(smina/fragmenstein)>  (1134) 
2.879

>  <alias>  (1134) 
None

>  <energy_score>  (1134) 
-41.485716

>  <HIPPO Pose ID>  (1134) 
95538

>  <distance_score>  (1134) 
0.446571

>  <HIPPO Compound ID>  (1134) 
129430

>  <gnina_score_min>  (1134) 
5.087

>  <name>  (1134) 
P95538

>  <exports>  (1134) 
['/opt/xchem-fragalysis-2/maxwin/BulkDock/OUTPUTS/openbind_d68ev3c_c2_elabs_1LOTQJ3.sdf', '/opt/xchem-fragalysis-2/maxwin/BulkDock/OUTPUTS/openbind_d68ev3c_c2_elabs_1LSYI5W.sdf']

$$$$
P95540
     RDKit          3D

 27 29  0  0  0  0  0  0  0  0999 V2000
   19.8938   -1.5907   12.2709 C   0  0  0  0  0  0  0  0  0  0  0  0
   19.5219   -1.7533   13.7212 C   0  0  0  0  0  0  0  0  0  0  0  0
   18.4147   -2.5488   14.0574 C   0  0  0  0  0  0  0  0  0  0  0  0
   18.0362   -2.7237   15.3884 C   0  0  0  0  0  0  0  0  0  0  0  0
   18.7620   -2.0850   16.3936 C   0  0  0  0  0  0  0  0  0  0  0  0
   18.3137   -2.3159   18.0982 S   0  0  0  0  0  0  0  0  0  0  0  0
   17.3859   -3.4359   18.1554 O   0  0  0  0  0  0  0  0  0  0  0  0
   19.5531   -2.3948   18.8503 O   0  0  0  0  0  0  0  0  0  0  0  0
   17.4227   -0.8429   18.5891 C   0  0  0  0  0  0  0  0  0  0  0  0
   16.3248   -0.5271   17.5442 C   0  0  0  0  0  0  0  0  0  0  0  0
   16.3086    0.5043   16.9878 O   0  0  0  0  0  0  0  0  0  0  0  0
   15.3313   -1.7306   17.4730 N   0  0  0  0  0  0  0  0  0  0  0  0
   14.1149   -1.8629   16.8011 C   0  0  0  0  0  0  0  0  0  0  0  0
   13.5983   -0.8008   16.0520 C   0  0  0  0  0  0  0  0  0  0  0  0
   12.3850   -0.9309   15.3731 C   0  0  0  0  0  0  0  0  0  0  0  0
   11.6808   -2.1266   15.4328 C   0  0  0  0  0  0  0  0  0  0  0  0
   12.1898   -3.1896   16.1794 C   0  0  0  0  0  0  0  0  0  0  0  0
   13.4095   -3.0794   16.8742 C   0  0  0  0  0  0  0  0  0  0  0  0
   13.9535   -4.2988   17.5845 C   0  0  0  0  0  0  0  0  0  0  0  0
   14.1095   -4.1081   19.3766 S   0  0  0  0  0  0  0  0  0  0  0  0
   16.8470   -0.9806   20.0069 C   0  0  0  0  0  0  0  0  0  0  0  0
   16.6233    0.4529   20.4757 C   0  0  0  0  0  0  0  0  0  0  0  0
   17.6640    1.2979   19.7496 C   0  0  0  0  0  0  0  0  0  0  0  0
   18.3744    0.3582   18.7755 C   0  0  0  0  0  0  0  0  0  0  0  0
   19.8823   -1.3112   16.0813 C   0  0  0  0  0  0  0  0  0  0  0  0
   20.2659   -1.1302   14.7439 C   0  0  0  0  0  0  0  0  0  0  0  0
   21.4717   -0.2858   14.4311 C   0  0  0  0  0  0  0  0  0  0  0  0
  1  2  1  0
  2  3  2  0
  3  4  1  0
  4  5  2  0
  5  6  1  0
  6  7  2  0
  6  8  2  0
  6  9  1  0
  9 10  1  0
 10 11  2  0
 10 12  1  0
 12 13  1  0
 13 14  2  0
 14 15  1  0
 15 16  2  0
 16 17  1  0
 17 18  2  0
 18 19  1  0
 19 20  1  0
  9 21  1  0
 21 22  1  0
 22 23  1  0
 23 24  1  0
  5 25  1  0
 25 26  2  0
 26 27  1  0
 26  2  1  0
 24  9  1  0
 18 13  1  0
M  END
>  <ref_mols>  (1135) 
B1396a

>  <gnina_score>  (1135) 
5.085

>  <smina_score_min>  (1135) 
-3.428

>  <ref_pdb>  (1135) 
B1396a

>  <inspiration_score>  (1135) 
None

>  <inchikey>  (1135) 
DIDJYYNPLYVEOT-UHFFFAOYSA-N

>  <tags>  (1135) 
BulkDock Fragalysis export,openbind_d68ev3c_c2_elabs_scored,openbind_d68ev3c_c2_elabs_scored_4.5plus,openbind_d68ev3c_c2_elabs,openbind_d68ev3c_c2_elabs_scored_5plus,syndirella_product,openbind_d68ev3c_c2_elabs_scored_top80percent,syndirella_placed

>  <smiles>  (1135) 
Cc1ccc(S(=O)(=O)C2(C(=O)Nc3ccccc3CS)CCCC2)cc1C

>  <subsites>  (1135) 
None

>  <rmsd(smina/fragmenstein)>  (1135) 
1.984

>  <alias>  (1135) 
None

>  <energy_score>  (1135) 
-39.93175

>  <HIPPO Pose ID>  (1135) 
95540

>  <distance_score>  (1135) 
0.420796

>  <HIPPO Compound ID>  (1135) 
129432

>  <gnina_score_min>  (1135) 
5.101

>  <name>  (1135) 
P95540

>  <exports>  (1135) 
['/opt/xchem-fragalysis-2/maxwin/BulkDock/OUTPUTS/openbind_d68ev3c_c2_elabs_1LOTQJ3.sdf', '/opt/xchem-fragalysis-2/maxwin/BulkDock/OUTPUTS/openbind_d68ev3c_c2_elabs_1LSYI5W.sdf']

$$$$
P95542
     RDKit          3D

 27 29  0  0  0  0  0  0  0  0999 V2000
   19.8337   -1.7033   12.2954 C   0  0  0  0  0  0  0  0  0  0  0  0
   19.4531   -1.8603   13.7438 C   0  0  0  0  0  0  0  0  0  0  0  0
   18.2496   -2.5072   14.0678 C   0  0  0  0  0  0  0  0  0  0  0  0
   17.8576   -2.6705   15.3969 C   0  0  0  0  0  0  0  0  0  0  0  0
   18.6645   -2.1606   16.4137 C   0  0  0  0  0  0  0  0  0  0  0  0
   18.1846   -2.3664   18.1161 S   0  0  0  0  0  0  0  0  0  0  0  0
   17.2257   -3.4595   18.1623 O   0  0  0  0  0  0  0  0  0  0  0  0
   19.4118   -2.4728   18.8845 O   0  0  0  0  0  0  0  0  0  0  0  0
   17.3144   -0.8768   18.5963 C   0  0  0  0  0  0  0  0  0  0  0  0
   16.2920   -0.5498   17.4930 C   0  0  0  0  0  0  0  0  0  0  0  0
   16.4764    0.3431   16.7560 O   0  0  0  0  0  0  0  0  0  0  0  0
   15.0647   -1.5139   17.6316 N   0  0  0  0  0  0  0  0  0  0  0  0
   13.8965   -1.6264   16.8500 C   0  0  0  0  0  0  0  0  0  0  0  0
   13.2754   -2.9007   16.8138 C   0  0  0  0  0  0  0  0  0  0  0  0
   13.8002   -4.0822   17.5932 C   0  0  0  0  0  0  0  0  0  0  0  0
   12.1389   -3.1057   16.0089 C   0  0  0  0  0  0  0  0  0  0  0  0
   11.5980   -2.0751   15.2529 C   0  0  0  0  0  0  0  0  0  0  0  0
   12.1636   -0.8105   15.3296 C   0  0  0  0  0  0  0  0  0  0  0  0
   13.2894   -0.5732   16.1365 C   0  0  0  0  0  0  0  0  0  0  0  0
   13.7055    1.2709   16.3500 Br  0  0  0  0  0  0  0  0  0  0  0  0
   18.2726    0.3138   18.8158 C   0  0  0  0  0  0  0  0  0  0  0  0
   18.7504    0.2353   20.2636 C   0  0  0  0  0  0  0  0  0  0  0  0
   17.7806   -0.6873   20.9867 C   0  0  0  0  0  0  0  0  0  0  0  0
   16.6729   -1.0002   19.9891 C   0  0  0  0  0  0  0  0  0  0  0  0
   19.8803   -1.5410   16.1120 C   0  0  0  0  0  0  0  0  0  0  0  0
   20.2797   -1.3751   14.7770 C   0  0  0  0  0  0  0  0  0  0  0  0
   21.5874   -0.6932   14.4784 C   0  0  0  0  0  0  0  0  0  0  0  0
  1  2  1  0
  2  3  2  0
  3  4  1  0
  4  5  2  0
  5  6  1  0
  6  7  2  0
  6  8  2  0
  6  9  1  0
  9 10  1  0
 10 11  2  0
 10 12  1  0
 12 13  1  0
 13 14  2  0
 14 15  1  0
 14 16  1  0
 16 17  2  0
 17 18  1  0
 18 19  2  0
 19 20  1  0
  9 21  1  0
 21 22  1  0
 22 23  1  0
 23 24  1  0
  5 25  1  0
 25 26  2  0
 26 27  1  0
 26  2  1  0
 24  9  1  0
 19 13  1  0
M  END
>  <ref_mols>  (1136) 
B1396a

>  <gnina_score>  (1136) 
5.233

>  <smina_score_min>  (1136) 
-3.771

>  <ref_pdb>  (1136) 
B1396a

>  <inspiration_score>  (1136) 
None

>  <inchikey>  (1136) 
FEVJJTQIIBUPQV-UHFFFAOYSA-N

>  <tags>  (1136) 
BulkDock Fragalysis export,openbind_d68ev3c_c2_elabs_scored,openbind_d68ev3c_c2_elabs_scored_4.5plus,openbind_d68ev3c_c2_elabs,openbind_d68ev3c_c2_elabs_scored_5plus,syndirella_product,openbind_d68ev3c_c2_elabs_scored_top80percent,syndirella_placed

>  <smiles>  (1136) 
Cc1ccc(S(=O)(=O)C2(C(=O)Nc3c(C)cccc3Br)CCCC2)cc1C

>  <subsites>  (1136) 
None

>  <rmsd(smina/fragmenstein)>  (1136) 
1.697

>  <alias>  (1136) 
None

>  <energy_score>  (1136) 
-30.183313

>  <HIPPO Pose ID>  (1136) 
95542

>  <distance_score>  (1136) 
0.394308

>  <HIPPO Compound ID>  (1136) 
129434

>  <gnina_score_min>  (1136) 
5.139

>  <name>  (1136) 
P95542

>  <exports>  (1136) 
['/opt/xchem-fragalysis-2/maxwin/BulkDock/OUTPUTS/openbind_d68ev3c_c2_elabs_1LOTQJ3.sdf', '/opt/xchem-fragalysis-2/maxwin/BulkDock/OUTPUTS/openbind_d68ev3c_c2_elabs_1LSYI5W.sdf']

$$$$
P95543
     RDKit          3D

 27 29  0  0  0  0  0  0  0  0999 V2000
   14.4097   -5.0102   18.1000 C   0  0  0  0  0  0  0  0  0  0  0  0
   13.8797   -4.1018   17.5220 C   0  0  0  0  0  0  0  0  0  0  0  0
   13.3744   -2.9623   16.8129 C   0  0  0  0  0  0  0  0  0  0  0  0
   12.2006   -3.0924   16.0613 C   0  0  0  0  0  0  0  0  0  0  0  0
   11.7119   -2.0134   15.3259 C   0  0  0  0  0  0  0  0  0  0  0  0
   12.3965   -0.8005   15.3443 C   0  0  0  0  0  0  0  0  0  0  0  0
   13.5709   -0.6624   16.0924 C   0  0  0  0  0  0  0  0  0  0  0  0
   14.0694   -1.7386   16.8296 C   0  0  0  0  0  0  0  0  0  0  0  0
   15.2275   -1.6058   17.6071 N   0  0  0  0  0  0  0  0  0  0  0  0
   16.2825   -0.4537   17.6677 C   0  0  0  0  0  0  0  0  0  0  0  0
   16.2987    0.5894   17.1332 O   0  0  0  0  0  0  0  0  0  0  0  0
   17.3739   -0.8321   18.7000 C   0  0  0  0  0  0  0  0  0  0  0  0
   18.2569   -2.2856   18.1316 S   0  0  0  0  0  0  0  0  0  0  0  0
   17.3117   -3.3900   18.2153 O   0  0  0  0  0  0  0  0  0  0  0  0
   19.5154   -2.3737   18.8491 O   0  0  0  0  0  0  0  0  0  0  0  0
   18.6854   -2.1309   16.4114 C   0  0  0  0  0  0  0  0  0  0  0  0
   19.0151   -0.9080   15.8365 C   0  0  0  0  0  0  0  0  0  0  0  0
   19.3957   -0.8587   14.4934 C   0  0  0  0  0  0  0  0  0  0  0  0
   19.4641   -2.0234   13.7142 C   0  0  0  0  0  0  0  0  0  0  0  0
   19.9030   -1.9234   12.2779 C   0  0  0  0  0  0  0  0  0  0  0  0
   19.1361   -3.2622   14.2974 C   0  0  0  0  0  0  0  0  0  0  0  0
   19.2918   -4.5506   13.5337 C   0  0  0  0  0  0  0  0  0  0  0  0
   18.7376   -3.3027   15.6438 C   0  0  0  0  0  0  0  0  0  0  0  0
   16.7294   -1.1086   20.0934 C   0  0  0  0  0  0  0  0  0  0  0  0
   17.0623    0.0973   20.9594 C   0  0  0  0  0  0  0  0  0  0  0  0
   18.4520    0.4698   20.4989 C   0  0  0  0  0  0  0  0  0  0  0  0
   18.3590    0.3429   18.9836 C   0  0  0  0  0  0  0  0  0  0  0  0
  1  2  3  0
  2  3  1  0
  3  4  2  0
  4  5  1  0
  5  6  2  0
  6  7  1  0
  7  8  2  0
  8  9  1  0
  9 10  1  0
 10 11  2  0
 10 12  1  0
 12 13  1  0
 13 14  2  0
 13 15  2  0
 13 16  1  0
 16 17  2  0
 17 18  1  0
 18 19  2  0
 19 20  1  0
 19 21  1  0
 21 22  1  0
 21 23  2  0
 12 24  1  0
 24 25  1  0
 25 26  1  0
 26 27  1  0
  8  3  1  0
 27 12  1  0
 23 16  1  0
M  END
>  <ref_mols>  (1137) 
B1396a

>  <gnina_score>  (1137) 
5.041

>  <smina_score_min>  (1137) 
-3.817

>  <ref_pdb>  (1137) 
B1396a

>  <inspiration_score>  (1137) 
None

>  <inchikey>  (1137) 
YJSUGLZMJKMLQQ-UHFFFAOYSA-N

>  <tags>  (1137) 
BulkDock Fragalysis export,openbind_d68ev3c_c2_elabs_scored,openbind_d68ev3c_c2_elabs_scored_4.5plus,openbind_d68ev3c_c2_elabs,openbind_d68ev3c_c2_elabs_scored_5plus,syndirella_product,openbind_d68ev3c_c2_elabs_scored_top80percent,syndirella_placed

>  <smiles>  (1137) 
C#Cc1ccccc1NC(=O)C1(S(=O)(=O)c2ccc(C)c(C)c2)CCCC1

>  <subsites>  (1137) 
None

>  <rmsd(smina/fragmenstein)>  (1137) 
1.989

>  <alias>  (1137) 
None

>  <energy_score>  (1137) 
-54.837297

>  <HIPPO Pose ID>  (1137) 
95543

>  <distance_score>  (1137) 
0.509941

>  <HIPPO Compound ID>  (1137) 
129435

>  <gnina_score_min>  (1137) 
5.028

>  <name>  (1137) 
P95543

>  <exports>  (1137) 
['/opt/xchem-fragalysis-2/maxwin/BulkDock/OUTPUTS/openbind_d68ev3c_c2_elabs_1LOTQJ3.sdf', '/opt/xchem-fragalysis-2/maxwin/BulkDock/OUTPUTS/openbind_d68ev3c_c2_elabs_1LSYI5W.sdf']

$$$$
P95547
     RDKit          3D

 27 29  0  0  0  0  0  0  0  0999 V2000
   19.7990   -1.4684   12.3231 C   0  0  0  0  0  0  0  0  0  0  0  0
   19.4560   -1.7054   13.7698 C   0  0  0  0  0  0  0  0  0  0  0  0
   18.3449   -2.5019   14.0884 C   0  0  0  0  0  0  0  0  0  0  0  0
   17.9987   -2.7494   15.4170 C   0  0  0  0  0  0  0  0  0  0  0  0
   18.7602   -2.1844   16.4407 C   0  0  0  0  0  0  0  0  0  0  0  0
   18.3684   -2.5463   18.1396 S   0  0  0  0  0  0  0  0  0  0  0  0
   19.6350   -2.6897   18.8328 O   0  0  0  0  0  0  0  0  0  0  0  0
   17.4293   -3.6582   18.1296 O   0  0  0  0  0  0  0  0  0  0  0  0
   17.4939   -1.1346   18.8004 C   0  0  0  0  0  0  0  0  0  0  0  0
   16.4840   -0.6314   17.7570 C   0  0  0  0  0  0  0  0  0  0  0  0
   16.5584    0.4581   17.3297 O   0  0  0  0  0  0  0  0  0  0  0  0
   15.4051   -1.7412   17.5212 N   0  0  0  0  0  0  0  0  0  0  0  0
   14.2017   -1.6989   16.8164 C   0  0  0  0  0  0  0  0  0  0  0  0
   13.8129   -0.5145   16.1866 C   0  0  0  0  0  0  0  0  0  0  0  0
   12.5441   -0.3920   15.6228 C   0  0  0  0  0  0  0  0  0  0  0  0
   11.6605   -1.4643   15.6552 C   0  0  0  0  0  0  0  0  0  0  0  0
    9.9673   -1.1746   15.2048 S   0  0  0  0  0  0  0  0  0  0  0  0
   12.0861   -2.6901   16.1774 C   0  0  0  0  0  0  0  0  0  0  0  0
   13.3479   -2.8146   16.7918 C   0  0  0  0  0  0  0  0  0  0  0  0
   13.7009   -4.1088   17.4758 C   0  0  0  0  0  0  0  0  0  0  0  0
   16.7913   -1.4617   20.1320 C   0  0  0  0  0  0  0  0  0  0  0  0
   17.8718   -1.3545   21.1987 C   0  0  0  0  0  0  0  0  0  0  0  0
   18.8572   -0.3143   20.6866 C   0  0  0  0  0  0  0  0  0  0  0  0
   18.4557   -0.0101   19.2434 C   0  0  0  0  0  0  0  0  0  0  0  0
   19.8851   -1.4120   16.1427 C   0  0  0  0  0  0  0  0  0  0  0  0
   20.2352   -1.1548   14.8078 C   0  0  0  0  0  0  0  0  0  0  0  0
   21.4513   -0.3178   14.5147 C   0  0  0  0  0  0  0  0  0  0  0  0
  1  2  1  0
  2  3  2  0
  3  4  1  0
  4  5  2  0
  5  6  1  0
  6  7  2  0
  6  8  2  0
  6  9  1  0
  9 10  1  0
 10 11  2  0
 10 12  1  0
 12 13  1  0
 13 14  2  0
 14 15  1  0
 15 16  2  0
 16 17  1  0
 16 18  1  0
 18 19  2  0
 19 20  1  0
  9 21  1  0
 21 22  1  0
 22 23  1  0
 23 24  1  0
  5 25  1  0
 25 26  2  0
 26 27  1  0
 26  2  1  0
 24  9  1  0
 19 13  1  0
M  END
>  <ref_mols>  (1138) 
B1396a

>  <gnina_score>  (1138) 
5.524

>  <smina_score_min>  (1138) 
-3.132

>  <ref_pdb>  (1138) 
B1396a

>  <inspiration_score>  (1138) 
None

>  <inchikey>  (1138) 
DAAGFPZMVOGYLI-UHFFFAOYSA-N

>  <tags>  (1138) 
BulkDock Fragalysis export,openbind_d68ev3c_c2_elabs_scored,openbind_d68ev3c_c2_elabs_scored_4.5plus,openbind_d68ev3c_c2_elabs,openbind_d68ev3c_c2_elabs_scored_5plus,syndirella_product,openbind_d68ev3c_c2_elabs_scored_top80percent,syndirella_placed

>  <smiles>  (1138) 
Cc1ccc(S(=O)(=O)C2(C(=O)Nc3ccc(S)cc3C)CCCC2)cc1C

>  <subsites>  (1138) 
None

>  <rmsd(smina/fragmenstein)>  (1138) 
1.982

>  <alias>  (1138) 
None

>  <energy_score>  (1138) 
-33.055491

>  <HIPPO Pose ID>  (1138) 
95547

>  <distance_score>  (1138) 
0.564042

>  <HIPPO Compound ID>  (1138) 
129439

>  <gnina_score_min>  (1138) 
5.187

>  <name>  (1138) 
P95547

>  <exports>  (1138) 
['/opt/xchem-fragalysis-2/maxwin/BulkDock/OUTPUTS/openbind_d68ev3c_c2_elabs_1LOTQJ3.sdf', '/opt/xchem-fragalysis-2/maxwin/BulkDock/OUTPUTS/openbind_d68ev3c_c2_elabs_1LSYI5W.sdf']

$$$$
P95549
     RDKit          3D

 27 29  0  0  0  0  0  0  0  0999 V2000
   13.9803   -4.1710   17.6604 C   0  0  0  0  0  0  0  0  0  0  0  0
   13.4054   -3.0009   16.9000 C   0  0  0  0  0  0  0  0  0  0  0  0
   12.2148   -3.2197   16.1922 C   0  0  0  0  0  0  0  0  0  0  0  0
   11.6305   -2.1966   15.4720 C   0  0  0  0  0  0  0  0  0  0  0  0
   10.4785   -2.4211   14.8320 F   0  0  0  0  0  0  0  0  0  0  0  0
   12.1888   -0.9326   15.4632 C   0  0  0  0  0  0  0  0  0  0  0  0
   13.3770   -0.6722   16.1693 C   0  0  0  0  0  0  0  0  0  0  0  0
   13.7741    1.0712   16.2427 S   0  0  0  0  0  0  0  0  0  0  0  0
   14.0262   -1.7225   16.8654 C   0  0  0  0  0  0  0  0  0  0  0  0
   15.2478   -1.6202   17.5628 N   0  0  0  0  0  0  0  0  0  0  0  0
   16.3943   -0.5601   17.4540 C   0  0  0  0  0  0  0  0  0  0  0  0
   16.5280    0.3402   16.7151 O   0  0  0  0  0  0  0  0  0  0  0  0
   17.4363   -0.8355   18.5626 C   0  0  0  0  0  0  0  0  0  0  0  0
   18.2980   -2.3494   18.1292 S   0  0  0  0  0  0  0  0  0  0  0  0
   19.5065   -2.4543   18.9254 O   0  0  0  0  0  0  0  0  0  0  0  0
   17.3260   -3.4304   18.1718 O   0  0  0  0  0  0  0  0  0  0  0  0
   18.8070   -2.1577   16.4330 C   0  0  0  0  0  0  0  0  0  0  0  0
   19.9509   -1.4085   16.1424 C   0  0  0  0  0  0  0  0  0  0  0  0
   20.3509   -1.2487   14.8149 C   0  0  0  0  0  0  0  0  0  0  0  0
   19.6202   -1.8531   13.7929 C   0  0  0  0  0  0  0  0  0  0  0  0
   20.1677   -1.6326   11.9974 Br  0  0  0  0  0  0  0  0  0  0  0  0
   18.4945   -2.6241   14.0842 C   0  0  0  0  0  0  0  0  0  0  0  0
   18.0862   -2.7859   15.4108 C   0  0  0  0  0  0  0  0  0  0  0  0
   18.4339    0.3494   18.7005 C   0  0  0  0  0  0  0  0  0  0  0  0
   17.9427    1.1418   19.9026 C   0  0  0  0  0  0  0  0  0  0  0  0
   17.5120    0.0496   20.8589 C   0  0  0  0  0  0  0  0  0  0  0  0
   16.7729   -0.9358   19.9615 C   0  0  0  0  0  0  0  0  0  0  0  0
  1  2  1  0
  2  3  2  0
  3  4  1  0
  4  5  1  0
  4  6  2  0
  6  7  1  0
  7  8  1  0
  7  9  2  0
  9 10  1  0
 10 11  1  0
 11 12  2  0
 11 13  1  0
 13 14  1  0
 14 15  2  0
 14 16  2  0
 14 17  1  0
 17 18  2  0
 18 19  1  0
 19 20  2  0
 20 21  1  0
 20 22  1  0
 22 23  2  0
 13 24  1  0
 24 25  1  0
 25 26  1  0
 26 27  1  0
  9  2  1  0
 27 13  1  0
 23 17  1  0
M  END
>  <ref_mols>  (1139) 
B1396a

>  <gnina_score>  (1139) 
5.494

>  <smina_score_min>  (1139) 
-3.762

>  <ref_pdb>  (1139) 
B1396a

>  <inspiration_score>  (1139) 
None

>  <inchikey>  (1139) 
KXTVDWNCAHIIIJ-UHFFFAOYSA-N

>  <tags>  (1139) 
BulkDock Fragalysis export,openbind_d68ev3c_c2_elabs_scored,openbind_d68ev3c_c2_elabs_scored_4.5plus,openbind_d68ev3c_c2_elabs,openbind_d68ev3c_c2_elabs_scored_5plus,syndirella_product,openbind_d68ev3c_c2_elabs_scored_top80percent,syndirella_placed

>  <smiles>  (1139) 
Cc1cc(F)cc(S)c1NC(=O)C1(S(=O)(=O)c2ccc(Br)cc2)CCCC1

>  <subsites>  (1139) 
None

>  <rmsd(smina/fragmenstein)>  (1139) 
1.753

>  <alias>  (1139) 
None

>  <energy_score>  (1139) 
-36.254415

>  <HIPPO Pose ID>  (1139) 
95549

>  <distance_score>  (1139) 
0.37703

>  <HIPPO Compound ID>  (1139) 
129442

>  <gnina_score_min>  (1139) 
5.426

>  <name>  (1139) 
P95549

>  <exports>  (1139) 
['/opt/xchem-fragalysis-2/maxwin/BulkDock/OUTPUTS/openbind_d68ev3c_c2_elabs_1LOTQJ3.sdf', '/opt/xchem-fragalysis-2/maxwin/BulkDock/OUTPUTS/openbind_d68ev3c_c2_elabs_1LSYI5W.sdf']

$$$$
P95550
     RDKit          3D

 27 29  0  0  0  0  0  0  0  0999 V2000
   13.7809   -4.1397   17.5024 C   0  0  0  0  0  0  0  0  0  0  0  0
   13.4146   -2.8755   16.7706 C   0  0  0  0  0  0  0  0  0  0  0  0
   12.1443   -2.7811   16.1724 C   0  0  0  0  0  0  0  0  0  0  0  0
   11.7087   -1.5776   15.6031 C   0  0  0  0  0  0  0  0  0  0  0  0
   10.3196   -1.3570   15.3342 C   0  0  0  0  0  0  0  0  0  0  0  0
    9.1834   -1.1210   15.3467 N   0  0  0  0  0  0  0  0  0  0  0  0
   12.5873   -0.5030   15.5071 C   0  0  0  0  0  0  0  0  0  0  0  0
   13.8614   -0.5972   16.0647 C   0  0  0  0  0  0  0  0  0  0  0  0
   14.2595   -1.7525   16.7440 C   0  0  0  0  0  0  0  0  0  0  0  0
   15.4591   -1.7546   17.4560 N   0  0  0  0  0  0  0  0  0  0  0  0
   16.5108   -0.6160   17.6782 C   0  0  0  0  0  0  0  0  0  0  0  0
   16.5625    0.4670   17.2322 O   0  0  0  0  0  0  0  0  0  0  0  0
   17.5292   -1.0789   18.7395 C   0  0  0  0  0  0  0  0  0  0  0  0
   18.3995   -2.5162   18.1093 S   0  0  0  0  0  0  0  0  0  0  0  0
   19.6507   -2.6600   18.8293 O   0  0  0  0  0  0  0  0  0  0  0  0
   17.4486   -3.6182   18.1012 O   0  0  0  0  0  0  0  0  0  0  0  0
   18.8178   -2.1797   16.4098 C   0  0  0  0  0  0  0  0  0  0  0  0
   19.9570   -1.4257   16.1156 C   0  0  0  0  0  0  0  0  0  0  0  0
   20.3022   -1.1876   14.7839 C   0  0  0  0  0  0  0  0  0  0  0  0
   19.5235   -1.7223   13.7584 C   0  0  0  0  0  0  0  0  0  0  0  0
   19.9972   -1.3954   11.9582 Br  0  0  0  0  0  0  0  0  0  0  0  0
   18.4043   -2.5017   14.0495 C   0  0  0  0  0  0  0  0  0  0  0  0
   18.0518   -2.7404   15.3801 C   0  0  0  0  0  0  0  0  0  0  0  0
   18.5229    0.0555   19.1149 C   0  0  0  0  0  0  0  0  0  0  0  0
   18.7010   -0.0392   20.6235 C   0  0  0  0  0  0  0  0  0  0  0  0
   17.3076   -0.3845   21.0993 C   0  0  0  0  0  0  0  0  0  0  0  0
   16.8231   -1.4146   20.0853 C   0  0  0  0  0  0  0  0  0  0  0  0
  1  2  1  0
  2  3  2  0
  3  4  1  0
  4  5  1  0
  5  6  3  0
  4  7  2  0
  7  8  1  0
  8  9  2  0
  9 10  1  0
 10 11  1  0
 11 12  2  0
 11 13  1  0
 13 14  1  0
 14 15  2  0
 14 16  2  0
 14 17  1  0
 17 18  2  0
 18 19  1  0
 19 20  2  0
 20 21  1  0
 20 22  1  0
 22 23  2  0
 13 24  1  0
 24 25  1  0
 25 26  1  0
 26 27  1  0
  9  2  1  0
 27 13  1  0
 23 17  1  0
M  END
>  <ref_mols>  (1140) 
B1396a

>  <gnina_score>  (1140) 
5.363

>  <smina_score_min>  (1140) 
-3.649

>  <ref_pdb>  (1140) 
B1396a

>  <inspiration_score>  (1140) 
None

>  <inchikey>  (1140) 
AXYLHUWOTJRFGQ-UHFFFAOYSA-N

>  <tags>  (1140) 
BulkDock Fragalysis export,openbind_d68ev3c_c2_elabs_scored,openbind_d68ev3c_c2_elabs_scored_4.5plus,openbind_d68ev3c_c2_elabs,openbind_d68ev3c_c2_elabs_scored_5plus,syndirella_product,openbind_d68ev3c_c2_elabs_scored_top80percent,syndirella_placed

>  <smiles>  (1140) 
Cc1cc(C#N)ccc1NC(=O)C1(S(=O)(=O)c2ccc(Br)cc2)CCCC1

>  <subsites>  (1140) 
None

>  <rmsd(smina/fragmenstein)>  (1140) 
2.174

>  <alias>  (1140) 
None

>  <energy_score>  (1140) 
-27.067749

>  <HIPPO Pose ID>  (1140) 
95550

>  <distance_score>  (1140) 
0.547634

>  <HIPPO Compound ID>  (1140) 
129443

>  <gnina_score_min>  (1140) 
5.329

>  <name>  (1140) 
P95550

>  <exports>  (1140) 
['/opt/xchem-fragalysis-2/maxwin/BulkDock/OUTPUTS/openbind_d68ev3c_c2_elabs_1LOTQJ3.sdf', '/opt/xchem-fragalysis-2/maxwin/BulkDock/OUTPUTS/openbind_d68ev3c_c2_elabs_1LSYI5W.sdf']

$$$$
P95554
     RDKit          3D

 27 29  0  0  0  0  0  0  0  0999 V2000
   10.8070   -2.0537   14.6236 C   0  0  0  0  0  0  0  0  0  0  0  0
   11.9624   -1.9595   15.5595 C   0  0  0  0  0  0  0  0  0  0  0  0
   12.6794   -0.7685   15.6522 C   0  0  0  0  0  0  0  0  0  0  0  0
   13.8252   -0.7039   16.4397 C   0  0  0  0  0  0  0  0  0  0  0  0
   14.2740   -1.8300   17.1333 C   0  0  0  0  0  0  0  0  0  0  0  0
   15.4371   -1.7577   17.8976 N   0  0  0  0  0  0  0  0  0  0  0  0
   16.4944   -0.6136   18.0306 C   0  0  0  0  0  0  0  0  0  0  0  0
   16.5042    0.4676   17.5772 O   0  0  0  0  0  0  0  0  0  0  0  0
   17.5997   -1.0667   19.0027 C   0  0  0  0  0  0  0  0  0  0  0  0
   18.4646   -2.4516   18.2896 S   0  0  0  0  0  0  0  0  0  0  0  0
   17.5229   -3.5628   18.3326 O   0  0  0  0  0  0  0  0  0  0  0  0
   19.7510   -2.5847   18.9466 O   0  0  0  0  0  0  0  0  0  0  0  0
   18.8267   -2.1746   16.5691 C   0  0  0  0  0  0  0  0  0  0  0  0
   19.2426   -0.9337   16.0999 C   0  0  0  0  0  0  0  0  0  0  0  0
   19.5763   -0.7814   14.7518 C   0  0  0  0  0  0  0  0  0  0  0  0
   19.5284   -1.8671   13.8650 C   0  0  0  0  0  0  0  0  0  0  0  0
   19.9360   -1.6634   12.4305 C   0  0  0  0  0  0  0  0  0  0  0  0
   19.1396   -3.1318   14.3464 C   0  0  0  0  0  0  0  0  0  0  0  0
   19.2004   -4.3500   13.4643 C   0  0  0  0  0  0  0  0  0  0  0  0
   18.7686   -3.2697   15.6952 C   0  0  0  0  0  0  0  0  0  0  0  0
   17.0328   -1.4358   20.3903 C   0  0  0  0  0  0  0  0  0  0  0  0
   16.7702   -0.0983   21.0655 C   0  0  0  0  0  0  0  0  0  0  0  0
   17.8604    0.8298   20.5508 C   0  0  0  0  0  0  0  0  0  0  0  0
   18.5376    0.1006   19.3865 C   0  0  0  0  0  0  0  0  0  0  0  0
   13.5530   -3.0340   17.0585 C   0  0  0  0  0  0  0  0  0  0  0  0
   13.9823   -4.2773   17.7861 C   0  0  0  0  0  0  0  0  0  0  0  0
   12.3992   -3.0840   16.2632 C   0  0  0  0  0  0  0  0  0  0  0  0
  1  2  1  0
  2  3  2  0
  3  4  1  0
  4  5  2  0
  5  6  1  0
  6  7  1  0
  7  8  2  0
  7  9  1  0
  9 10  1  0
 10 11  2  0
 10 12  2  0
 10 13  1  0
 13 14  2  0
 14 15  1  0
 15 16  2  0
 16 17  1  0
 16 18  1  0
 18 19  1  0
 18 20  2  0
  9 21  1  0
 21 22  1  0
 22 23  1  0
 23 24  1  0
  5 25  1  0
 25 26  1  0
 25 27  2  0
 27  2  1  0
 24  9  1  0
 20 13  1  0
M  END
>  <ref_mols>  (1141) 
B1396a

>  <gnina_score>  (1141) 
5.259

>  <smina_score_min>  (1141) 
-3.725

>  <ref_pdb>  (1141) 
B1396a

>  <inspiration_score>  (1141) 
None

>  <inchikey>  (1141) 
RLYBSXQSFJUDJK-UHFFFAOYSA-N

>  <tags>  (1141) 
BulkDock Fragalysis export,openbind_d68ev3c_c2_elabs_scored,openbind_d68ev3c_c2_elabs_scored_4.5plus,openbind_d68ev3c_c2_elabs,openbind_d68ev3c_c2_elabs_scored_5plus,syndirella_product,openbind_d68ev3c_c2_elabs_scored_top80percent,syndirella_placed

>  <smiles>  (1141) 
Cc1ccc(NC(=O)C2(S(=O)(=O)c3ccc(C)c(C)c3)CCCC2)c(C)c1

>  <subsites>  (1141) 
None

>  <rmsd(smina/fragmenstein)>  (1141) 
2.132

>  <alias>  (1141) 
None

>  <energy_score>  (1141) 
-40.851812

>  <HIPPO Pose ID>  (1141) 
95554

>  <distance_score>  (1141) 
0.630137

>  <HIPPO Compound ID>  (1141) 
129447

>  <gnina_score_min>  (1141) 
5.006

>  <name>  (1141) 
P95554

>  <exports>  (1141) 
['/opt/xchem-fragalysis-2/maxwin/BulkDock/OUTPUTS/openbind_d68ev3c_c2_elabs_1LOTQJ3.sdf', '/opt/xchem-fragalysis-2/maxwin/BulkDock/OUTPUTS/openbind_d68ev3c_c2_elabs_1LSYI5W.sdf']

$$$$
P95555
     RDKit          3D

 27 29  0  0  0  0  0  0  0  0999 V2000
   20.1894   -1.7025   12.4451 C   0  0  0  0  0  0  0  0  0  0  0  0
   19.6663   -1.8747   13.8461 C   0  0  0  0  0  0  0  0  0  0  0  0
   19.7518   -0.8006   14.7435 C   0  0  0  0  0  0  0  0  0  0  0  0
   19.3157   -0.9284   16.0633 C   0  0  0  0  0  0  0  0  0  0  0  0
   18.7501   -2.1263   16.4887 C   0  0  0  0  0  0  0  0  0  0  0  0
   18.2348   -2.3439   18.1780 S   0  0  0  0  0  0  0  0  0  0  0  0
   19.4546   -2.3982   18.9621 O   0  0  0  0  0  0  0  0  0  0  0  0
   17.3285   -3.4847   18.1912 O   0  0  0  0  0  0  0  0  0  0  0  0
   17.2592   -0.9481   18.7128 C   0  0  0  0  0  0  0  0  0  0  0  0
   16.2445   -0.5851   17.6070 C   0  0  0  0  0  0  0  0  0  0  0  0
   16.2903    0.4569   17.0722 O   0  0  0  0  0  0  0  0  0  0  0  0
   15.2176   -1.7537   17.4599 N   0  0  0  0  0  0  0  0  0  0  0  0
   14.0337   -1.8324   16.7240 C   0  0  0  0  0  0  0  0  0  0  0  0
   13.5825   -0.7366   15.9818 C   0  0  0  0  0  0  0  0  0  0  0  0
   12.3974   -0.8238   15.2480 C   0  0  0  0  0  0  0  0  0  0  0  0
   11.7383    0.8152   14.1506 I   0  0  0  0  0  0  0  0  0  0  0  0
   11.6553   -1.9993   15.2416 C   0  0  0  0  0  0  0  0  0  0  0  0
   12.0996   -3.0900   15.9879 C   0  0  0  0  0  0  0  0  0  0  0  0
   13.2841   -3.0211   16.7408 C   0  0  0  0  0  0  0  0  0  0  0  0
   13.7021   -4.2183   17.5509 C   0  0  0  0  0  0  0  0  0  0  0  0
   18.1191    0.2732   19.1104 C   0  0  0  0  0  0  0  0  0  0  0  0
   17.3041    1.0501   20.1486 C   0  0  0  0  0  0  0  0  0  0  0  0
   16.1990    0.1148   20.6172 C   0  0  0  0  0  0  0  0  0  0  0  0
   16.5696   -1.2514   20.0601 C   0  0  0  0  0  0  0  0  0  0  0  0
   18.6648   -3.2137   15.6088 C   0  0  0  0  0  0  0  0  0  0  0  0
   19.1490   -3.1062   14.2934 C   0  0  0  0  0  0  0  0  0  0  0  0
   19.1705   -4.3201   13.4039 C   0  0  0  0  0  0  0  0  0  0  0  0
  1  2  1  0
  2  3  2  0
  3  4  1  0
  4  5  2  0
  5  6  1  0
  6  7  2  0
  6  8  2  0
  6  9  1  0
  9 10  1  0
 10 11  2  0
 10 12  1  0
 12 13  1  0
 13 14  2  0
 14 15  1  0
 15 16  1  0
 15 17  2  0
 17 18  1  0
 18 19  2  0
 19 20  1  0
  9 21  1  0
 21 22  1  0
 22 23  1  0
 23 24  1  0
  5 25  1  0
 25 26  2  0
 26 27  1  0
 26  2  1  0
 24  9  1  0
 19 13  1  0
M  END
>  <ref_mols>  (1142) 
B1396a

>  <gnina_score>  (1142) 
5.326

>  <smina_score_min>  (1142) 
-4.163

>  <ref_pdb>  (1142) 
B1396a

>  <inspiration_score>  (1142) 
None

>  <inchikey>  (1142) 
IGAIWOYOWFLXCM-UHFFFAOYSA-N

>  <tags>  (1142) 
BulkDock Fragalysis export,openbind_d68ev3c_c2_elabs_scored,openbind_d68ev3c_c2_elabs_scored_4.5plus,openbind_d68ev3c_c2_elabs,openbind_d68ev3c_c2_elabs_scored_5plus,syndirella_product,openbind_d68ev3c_c2_elabs_scored_top80percent,syndirella_placed

>  <smiles>  (1142) 
Cc1ccc(S(=O)(=O)C2(C(=O)Nc3cc(I)ccc3C)CCCC2)cc1C

>  <subsites>  (1142) 
None

>  <rmsd(smina/fragmenstein)>  (1142) 
2.237

>  <alias>  (1142) 
None

>  <energy_score>  (1142) 
-55.87444

>  <HIPPO Pose ID>  (1142) 
95555

>  <distance_score>  (1142) 
0.437575

>  <HIPPO Compound ID>  (1142) 
129448

>  <gnina_score_min>  (1142) 
5.168

>  <name>  (1142) 
P95555

>  <exports>  (1142) 
['/opt/xchem-fragalysis-2/maxwin/BulkDock/OUTPUTS/openbind_d68ev3c_c2_elabs_1LOTQJ3.sdf', '/opt/xchem-fragalysis-2/maxwin/BulkDock/OUTPUTS/openbind_d68ev3c_c2_elabs_1LSYI5W.sdf']

$$$$
P95556
     RDKit          3D

 27 29  0  0  0  0  0  0  0  0999 V2000
   19.8639   -1.5863   12.3050 C   0  0  0  0  0  0  0  0  0  0  0  0
   19.4712   -1.7578   13.7488 C   0  0  0  0  0  0  0  0  0  0  0  0
   18.3160   -2.4929   14.0596 C   0  0  0  0  0  0  0  0  0  0  0  0
   17.9165   -2.6733   15.3838 C   0  0  0  0  0  0  0  0  0  0  0  0
   18.6689   -2.0991   16.4083 C   0  0  0  0  0  0  0  0  0  0  0  0
   18.1895   -2.3420   18.1021 S   0  0  0  0  0  0  0  0  0  0  0  0
   17.2168   -3.4242   18.1281 O   0  0  0  0  0  0  0  0  0  0  0  0
   19.4099   -2.4773   18.8767 O   0  0  0  0  0  0  0  0  0  0  0  0
   17.3385   -0.8482   18.6097 C   0  0  0  0  0  0  0  0  0  0  0  0
   16.2431   -0.5025   17.5715 C   0  0  0  0  0  0  0  0  0  0  0  0
   16.2674    0.5182   16.9955 O   0  0  0  0  0  0  0  0  0  0  0  0
   15.1737   -1.6447   17.5640 N   0  0  0  0  0  0  0  0  0  0  0  0
   14.0116   -1.7943   16.8016 C   0  0  0  0  0  0  0  0  0  0  0  0
   13.5397   -0.7343   16.0200 C   0  0  0  0  0  0  0  0  0  0  0  0
   12.3729   -0.8798   15.2679 C   0  0  0  0  0  0  0  0  0  0  0  0
   11.7384    0.5620   14.2216 Br  0  0  0  0  0  0  0  0  0  0  0  0
   11.6685   -2.0770   15.2792 C   0  0  0  0  0  0  0  0  0  0  0  0
   12.1354   -3.1342   16.0579 C   0  0  0  0  0  0  0  0  0  0  0  0
   13.3041   -3.0086   16.8289 C   0  0  0  0  0  0  0  0  0  0  0  0
   13.7572   -4.1824   17.6539 C   0  0  0  0  0  0  0  0  0  0  0  0
   18.3411    0.3278   18.7726 C   0  0  0  0  0  0  0  0  0  0  0  0
   17.8530    1.0904   19.9950 C   0  0  0  0  0  0  0  0  0  0  0  0
   17.4361   -0.0256   20.9306 C   0  0  0  0  0  0  0  0  0  0  0  0
   16.7103   -1.0107   20.0203 C   0  0  0  0  0  0  0  0  0  0  0  0
   19.8352   -1.3858   16.1208 C   0  0  0  0  0  0  0  0  0  0  0  0
   20.2406   -1.1999   14.7902 C   0  0  0  0  0  0  0  0  0  0  0  0
   21.4968   -0.4219   14.5045 C   0  0  0  0  0  0  0  0  0  0  0  0
  1  2  1  0
  2  3  2  0
  3  4  1  0
  4  5  2  0
  5  6  1  0
  6  7  2  0
  6  8  2  0
  6  9  1  0
  9 10  1  0
 10 11  2  0
 10 12  1  0
 12 13  1  0
 13 14  2  0
 14 15  1  0
 15 16  1  0
 15 17  2  0
 17 18  1  0
 18 19  2  0
 19 20  1  0
  9 21  1  0
 21 22  1  0
 22 23  1  0
 23 24  1  0
  5 25  1  0
 25 26  2  0
 26 27  1  0
 26  2  1  0
 24  9  1  0
 19 13  1  0
M  END
>  <ref_mols>  (1143) 
B1396a

>  <gnina_score>  (1143) 
5.282

>  <smina_score_min>  (1143) 
-3.997

>  <ref_pdb>  (1143) 
B1396a

>  <inspiration_score>  (1143) 
None

>  <inchikey>  (1143) 
NVRWAYORWIGTDX-UHFFFAOYSA-N

>  <tags>  (1143) 
BulkDock Fragalysis export,openbind_d68ev3c_c2_elabs_scored,openbind_d68ev3c_c2_elabs_scored_4.5plus,openbind_d68ev3c_c2_elabs,openbind_d68ev3c_c2_elabs_scored_5plus,syndirella_product,openbind_d68ev3c_c2_elabs_scored_top80percent,syndirella_placed

>  <smiles>  (1143) 
Cc1ccc(S(=O)(=O)C2(C(=O)Nc3cc(Br)ccc3C)CCCC2)cc1C

>  <subsites>  (1143) 
None

>  <rmsd(smina/fragmenstein)>  (1143) 
2.264

>  <alias>  (1143) 
None

>  <energy_score>  (1143) 
-36.861535

>  <HIPPO Pose ID>  (1143) 
95556

>  <distance_score>  (1143) 
0.426763

>  <HIPPO Compound ID>  (1143) 
129449

>  <gnina_score_min>  (1143) 
5.287

>  <name>  (1143) 
P95556

>  <exports>  (1143) 
['/opt/xchem-fragalysis-2/maxwin/BulkDock/OUTPUTS/openbind_d68ev3c_c2_elabs_1LOTQJ3.sdf', '/opt/xchem-fragalysis-2/maxwin/BulkDock/OUTPUTS/openbind_d68ev3c_c2_elabs_1LSYI5W.sdf']

$$$$
P95557
     RDKit          3D

 27 29  0  0  0  0  0  0  0  0999 V2000
   13.8757   -4.2698   19.0507 C   0  0  0  0  0  0  0  0  0  0  0  0
   13.8518   -4.2562   17.7123 C   0  0  0  0  0  0  0  0  0  0  0  0
   13.3783   -3.1035   16.9308 C   0  0  0  0  0  0  0  0  0  0  0  0
   12.1901   -3.2448   16.1999 C   0  0  0  0  0  0  0  0  0  0  0  0
   11.6986   -2.1980   15.4183 C   0  0  0  0  0  0  0  0  0  0  0  0
   12.3934   -0.9945   15.3638 C   0  0  0  0  0  0  0  0  0  0  0  0
   13.5855   -0.8412   16.0766 C   0  0  0  0  0  0  0  0  0  0  0  0
   14.0879   -1.8894   16.8537 C   0  0  0  0  0  0  0  0  0  0  0  0
   15.2960   -1.7541   17.5411 N   0  0  0  0  0  0  0  0  0  0  0  0
   16.3117   -0.5673   17.5830 C   0  0  0  0  0  0  0  0  0  0  0  0
   16.3246    0.4415   16.9873 O   0  0  0  0  0  0  0  0  0  0  0  0
   17.3883   -0.8811   18.6442 C   0  0  0  0  0  0  0  0  0  0  0  0
   18.3152   -2.3315   18.1156 S   0  0  0  0  0  0  0  0  0  0  0  0
   17.4088   -3.4690   18.1730 O   0  0  0  0  0  0  0  0  0  0  0  0
   19.5612   -2.3877   18.8588 O   0  0  0  0  0  0  0  0  0  0  0  0
   18.7394   -2.0891   16.4045 C   0  0  0  0  0  0  0  0  0  0  0  0
   17.9430   -2.6496   15.4053 C   0  0  0  0  0  0  0  0  0  0  0  0
   18.3007   -2.4778   14.0679 C   0  0  0  0  0  0  0  0  0  0  0  0
   19.4609   -1.7697   13.7170 C   0  0  0  0  0  0  0  0  0  0  0  0
   19.8086   -1.6082   12.2607 C   0  0  0  0  0  0  0  0  0  0  0  0
   20.2791   -1.2328   14.7313 C   0  0  0  0  0  0  0  0  0  0  0  0
   21.5456   -0.4890   14.4032 C   0  0  0  0  0  0  0  0  0  0  0  0
   19.9144   -1.4091   16.0752 C   0  0  0  0  0  0  0  0  0  0  0  0
   16.7504   -1.1267   20.0419 C   0  0  0  0  0  0  0  0  0  0  0  0
   17.2259    0.0086   20.9416 C   0  0  0  0  0  0  0  0  0  0  0  0
   18.5780    0.3794   20.3736 C   0  0  0  0  0  0  0  0  0  0  0  0
   18.3338    0.3292   18.8723 C   0  0  0  0  0  0  0  0  0  0  0  0
  1  2  2  0
  2  3  1  0
  3  4  2  0
  4  5  1  0
  5  6  2  0
  6  7  1  0
  7  8  2  0
  8  9  1  0
  9 10  1  0
 10 11  2  0
 10 12  1  0
 12 13  1  0
 13 14  2  0
 13 15  2  0
 13 16  1  0
 16 17  2  0
 17 18  1  0
 18 19  2  0
 19 20  1  0
 19 21  1  0
 21 22  1  0
 21 23  2  0
 12 24  1  0
 24 25  1  0
 25 26  1  0
 26 27  1  0
  8  3  1  0
 27 12  1  0
 23 16  1  0
M  END
>  <ref_mols>  (1144) 
B1396a

>  <gnina_score>  (1144) 
5.103

>  <smina_score_min>  (1144) 
-3.641

>  <ref_pdb>  (1144) 
B1396a

>  <inspiration_score>  (1144) 
None

>  <inchikey>  (1144) 
WWKOACBEEDGTFK-UHFFFAOYSA-N

>  <tags>  (1144) 
BulkDock Fragalysis export,openbind_d68ev3c_c2_elabs_scored,openbind_d68ev3c_c2_elabs_scored_4.5plus,openbind_d68ev3c_c2_elabs,openbind_d68ev3c_c2_elabs_scored_5plus,syndirella_product,openbind_d68ev3c_c2_elabs_scored_top80percent,syndirella_placed

>  <smiles>  (1144) 
C=Cc1ccccc1NC(=O)C1(S(=O)(=O)c2ccc(C)c(C)c2)CCCC1

>  <subsites>  (1144) 
None

>  <rmsd(smina/fragmenstein)>  (1144) 
1.761

>  <alias>  (1144) 
None

>  <energy_score>  (1144) 
-49.431544

>  <HIPPO Pose ID>  (1144) 
95557

>  <distance_score>  (1144) 
0.420582

>  <HIPPO Compound ID>  (1144) 
129451

>  <gnina_score_min>  (1144) 
5.081

>  <name>  (1144) 
P95557

>  <exports>  (1144) 
['/opt/xchem-fragalysis-2/maxwin/BulkDock/OUTPUTS/openbind_d68ev3c_c2_elabs_1LOTQJ3.sdf', '/opt/xchem-fragalysis-2/maxwin/BulkDock/OUTPUTS/openbind_d68ev3c_c2_elabs_1LSYI5W.sdf']

$$$$
P95558
     RDKit          3D

 27 29  0  0  0  0  0  0  0  0999 V2000
   19.8158   -1.3040   12.3324 C   0  0  0  0  0  0  0  0  0  0  0  0
   19.3853   -1.5942   13.7456 C   0  0  0  0  0  0  0  0  0  0  0  0
   20.2812   -1.3464   14.7968 C   0  0  0  0  0  0  0  0  0  0  0  0
   19.9142   -1.5830   16.1209 C   0  0  0  0  0  0  0  0  0  0  0  0
   18.6397   -2.0700   16.4048 C   0  0  0  0  0  0  0  0  0  0  0  0
   18.1894   -2.4111   18.0930 S   0  0  0  0  0  0  0  0  0  0  0  0
   17.2259   -3.5006   18.0667 O   0  0  0  0  0  0  0  0  0  0  0  0
   19.4255   -2.5817   18.8363 O   0  0  0  0  0  0  0  0  0  0  0  0
   17.3410   -0.9562   18.7252 C   0  0  0  0  0  0  0  0  0  0  0  0
   16.2437   -0.5391   17.7213 C   0  0  0  0  0  0  0  0  0  0  0  0
   16.2794    0.5082   17.1954 O   0  0  0  0  0  0  0  0  0  0  0  0
   15.1625   -1.6691   17.6567 N   0  0  0  0  0  0  0  0  0  0  0  0
   14.0009   -1.7699   16.8862 C   0  0  0  0  0  0  0  0  0  0  0  0
   13.5425   -0.6636   16.1637 C   0  0  0  0  0  0  0  0  0  0  0  0
   12.3841   -0.7629   15.3974 C   0  0  0  0  0  0  0  0  0  0  0  0
   11.9063    0.3058   14.6981 O   0  0  0  0  0  0  0  0  0  0  0  0
   11.6778   -1.9527   15.3249 C   0  0  0  0  0  0  0  0  0  0  0  0
   12.1308   -3.0580   16.0426 C   0  0  0  0  0  0  0  0  0  0  0  0
   13.2881   -2.9809   16.8379 C   0  0  0  0  0  0  0  0  0  0  0  0
   13.7236   -4.1981   17.6068 C   0  0  0  0  0  0  0  0  0  0  0  0
   18.3509    0.1971   18.9783 C   0  0  0  0  0  0  0  0  0  0  0  0
   18.6454    0.1612   20.4712 C   0  0  0  0  0  0  0  0  0  0  0  0
   17.2974   -0.1805   21.0674 C   0  0  0  0  0  0  0  0  0  0  0  0
   16.7411   -1.2467   20.1299 C   0  0  0  0  0  0  0  0  0  0  0  0
   17.7455   -2.3581   15.3683 C   0  0  0  0  0  0  0  0  0  0  0  0
   18.0964   -2.0876   14.0350 C   0  0  0  0  0  0  0  0  0  0  0  0
   17.0824   -2.2911   12.9409 C   0  0  0  0  0  0  0  0  0  0  0  0
  1  2  1  0
  2  3  2  0
  3  4  1  0
  4  5  2  0
  5  6  1  0
  6  7  2  0
  6  8  2  0
  6  9  1  0
  9 10  1  0
 10 11  2  0
 10 12  1  0
 12 13  1  0
 13 14  2  0
 14 15  1  0
 15 16  1  0
 15 17  2  0
 17 18  1  0
 18 19  2  0
 19 20  1  0
  9 21  1  0
 21 22  1  0
 22 23  1  0
 23 24  1  0
  5 25  1  0
 25 26  2  0
 26 27  1  0
 26  2  1  0
 24  9  1  0
 19 13  1  0
M  END
>  <ref_mols>  (1145) 
B1396a

>  <gnina_score>  (1145) 
5.019

>  <smina_score_min>  (1145) 
-4.121

>  <ref_pdb>  (1145) 
B1396a

>  <inspiration_score>  (1145) 
None

>  <inchikey>  (1145) 
AJDVNYFCNZHVFS-UHFFFAOYSA-N

>  <tags>  (1145) 
BulkDock Fragalysis export,openbind_d68ev3c_c2_elabs_scored,openbind_d68ev3c_c2_elabs_scored_4.5plus,openbind_d68ev3c_c2_elabs,openbind_d68ev3c_c2_elabs_scored_5plus,syndirella_product,openbind_d68ev3c_c2_elabs_scored_top80percent,syndirella_placed

>  <smiles>  (1145) 
Cc1ccc(S(=O)(=O)C2(C(=O)Nc3cc(O)ccc3C)CCCC2)cc1C

>  <subsites>  (1145) 
None

>  <rmsd(smina/fragmenstein)>  (1145) 
1.991

>  <alias>  (1145) 
None

>  <energy_score>  (1145) 
-51.475509

>  <HIPPO Pose ID>  (1145) 
95558

>  <distance_score>  (1145) 
0.530038

>  <HIPPO Compound ID>  (1145) 
129452

>  <gnina_score_min>  (1145) 
5.052

>  <name>  (1145) 
P95558

>  <exports>  (1145) 
['/opt/xchem-fragalysis-2/maxwin/BulkDock/OUTPUTS/openbind_d68ev3c_c2_elabs_1LOTQJ3.sdf', '/opt/xchem-fragalysis-2/maxwin/BulkDock/OUTPUTS/openbind_d68ev3c_c2_elabs_1LSYI5W.sdf']

$$$$
P95559
     RDKit          3D

 27 29  0  0  0  0  0  0  0  0999 V2000
   14.7692   -5.1508   17.6195 C   0  0  0  0  0  0  0  0  0  0  0  0
   13.7813   -4.1070   18.1059 C   0  0  0  0  0  0  0  0  0  0  0  0
   13.3977   -3.0849   17.0582 C   0  0  0  0  0  0  0  0  0  0  0  0
   12.2368   -3.3038   16.2959 C   0  0  0  0  0  0  0  0  0  0  0  0
   11.7911   -2.3628   15.3680 C   0  0  0  0  0  0  0  0  0  0  0  0
   12.5072   -1.1863   15.1867 C   0  0  0  0  0  0  0  0  0  0  0  0
   13.6817   -0.9660   15.9102 C   0  0  0  0  0  0  0  0  0  0  0  0
   14.1412   -1.9119   16.8327 C   0  0  0  0  0  0  0  0  0  0  0  0
   15.3369   -1.7046   17.5228 N   0  0  0  0  0  0  0  0  0  0  0  0
   16.3449   -0.5098   17.4710 C   0  0  0  0  0  0  0  0  0  0  0  0
   16.3605    0.4405   16.7854 O   0  0  0  0  0  0  0  0  0  0  0  0
   17.4196   -0.7287   18.5583 C   0  0  0  0  0  0  0  0  0  0  0  0
   18.3728   -2.1962   18.1271 S   0  0  0  0  0  0  0  0  0  0  0  0
   19.6145   -2.1877   18.8795 O   0  0  0  0  0  0  0  0  0  0  0  0
   17.4835   -3.3408   18.2521 O   0  0  0  0  0  0  0  0  0  0  0  0
   18.8035   -2.0458   16.4067 C   0  0  0  0  0  0  0  0  0  0  0  0
   18.0103   -2.6517   15.4323 C   0  0  0  0  0  0  0  0  0  0  0  0
   18.3663   -2.5310   14.0887 C   0  0  0  0  0  0  0  0  0  0  0  0
   19.5218   -1.8309   13.7078 C   0  0  0  0  0  0  0  0  0  0  0  0
   19.8664   -1.7257   12.2457 C   0  0  0  0  0  0  0  0  0  0  0  0
   20.3388   -1.2512   14.6988 C   0  0  0  0  0  0  0  0  0  0  0  0
   21.6005   -0.5136   14.3397 C   0  0  0  0  0  0  0  0  0  0  0  0
   19.9753   -1.3745   16.0486 C   0  0  0  0  0  0  0  0  0  0  0  0
   18.3424    0.5109   18.7032 C   0  0  0  0  0  0  0  0  0  0  0  0
   18.5914    0.6616   20.1969 C   0  0  0  0  0  0  0  0  0  0  0  0
   17.2476    0.3063   20.7937 C   0  0  0  0  0  0  0  0  0  0  0  0
   16.7841   -0.8894   19.9687 C   0  0  0  0  0  0  0  0  0  0  0  0
  1  2  1  0
  2  3  1  0
  3  4  2  0
  4  5  1  0
  5  6  2  0
  6  7  1  0
  7  8  2  0
  8  9  1  0
  9 10  1  0
 10 11  2  0
 10 12  1  0
 12 13  1  0
 13 14  2  0
 13 15  2  0
 13 16  1  0
 16 17  2  0
 17 18  1  0
 18 19  2  0
 19 20  1  0
 19 21  1  0
 21 22  1  0
 21 23  2  0
 12 24  1  0
 24 25  1  0
 25 26  1  0
 26 27  1  0
  8  3  1  0
 27 12  1  0
 23 16  1  0
M  END
>  <ref_mols>  (1146) 
B1396a

>  <gnina_score>  (1146) 
5.146

>  <smina_score_min>  (1146) 
-3.258

>  <ref_pdb>  (1146) 
B1396a

>  <inspiration_score>  (1146) 
None

>  <inchikey>  (1146) 
INAFEMJWQSZHCT-UHFFFAOYSA-N

>  <tags>  (1146) 
BulkDock Fragalysis export,openbind_d68ev3c_c2_elabs_scored,openbind_d68ev3c_c2_elabs_scored_4.5plus,openbind_d68ev3c_c2_elabs,openbind_d68ev3c_c2_elabs_scored_5plus,syndirella_product,openbind_d68ev3c_c2_elabs_scored_top80percent,syndirella_placed

>  <smiles>  (1146) 
CCc1ccccc1NC(=O)C1(S(=O)(=O)c2ccc(C)c(C)c2)CCCC1

>  <subsites>  (1146) 
None

>  <rmsd(smina/fragmenstein)>  (1146) 
2.212

>  <alias>  (1146) 
None

>  <energy_score>  (1146) 
-62.728669

>  <HIPPO Pose ID>  (1146) 
95559

>  <distance_score>  (1146) 
0.473876

>  <HIPPO Compound ID>  (1146) 
129453

>  <gnina_score_min>  (1146) 
5.116

>  <name>  (1146) 
P95559

>  <exports>  (1146) 
['/opt/xchem-fragalysis-2/maxwin/BulkDock/OUTPUTS/openbind_d68ev3c_c2_elabs_1LOTQJ3.sdf', '/opt/xchem-fragalysis-2/maxwin/BulkDock/OUTPUTS/openbind_d68ev3c_c2_elabs_1LSYI5W.sdf']

$$$$
P95560
     RDKit          3D

 27 29  0  0  0  0  0  0  0  0999 V2000
   11.8924    0.2641   14.3361 C   0  0  0  0  0  0  0  0  0  0  0  0
   12.3492   -0.8628   15.2152 C   0  0  0  0  0  0  0  0  0  0  0  0
   11.6346   -2.0601   15.2481 C   0  0  0  0  0  0  0  0  0  0  0  0
   12.0880   -3.1212   16.0305 C   0  0  0  0  0  0  0  0  0  0  0  0
   13.2654   -3.0162   16.7873 C   0  0  0  0  0  0  0  0  0  0  0  0
   13.7049   -4.1927   17.6156 C   0  0  0  0  0  0  0  0  0  0  0  0
   13.9977   -1.8198   16.7387 C   0  0  0  0  0  0  0  0  0  0  0  0
   15.1844   -1.7102   17.4655 N   0  0  0  0  0  0  0  0  0  0  0  0
   16.2322   -0.5509   17.5295 C   0  0  0  0  0  0  0  0  0  0  0  0
   16.2941    0.4504   16.9233 O   0  0  0  0  0  0  0  0  0  0  0  0
   17.2633   -0.8835   18.6240 C   0  0  0  0  0  0  0  0  0  0  0  0
   18.2058   -2.3254   18.1224 S   0  0  0  0  0  0  0  0  0  0  0  0
   17.2987   -3.4631   18.1591 O   0  0  0  0  0  0  0  0  0  0  0  0
   19.4404   -2.3834   18.8837 O   0  0  0  0  0  0  0  0  0  0  0  0
   18.6685   -2.0825   16.4206 C   0  0  0  0  0  0  0  0  0  0  0  0
   17.9106   -2.6629   15.4035 C   0  0  0  0  0  0  0  0  0  0  0  0
   18.3026   -2.4914   14.0755 C   0  0  0  0  0  0  0  0  0  0  0  0
   19.4586   -1.7630   13.7528 C   0  0  0  0  0  0  0  0  0  0  0  0
   19.8442   -1.6041   12.3058 C   0  0  0  0  0  0  0  0  0  0  0  0
   20.2373   -1.2039   14.7862 C   0  0  0  0  0  0  0  0  0  0  0  0
   21.4976   -0.4371   14.4891 C   0  0  0  0  0  0  0  0  0  0  0  0
   19.8383   -1.3796   16.1203 C   0  0  0  0  0  0  0  0  0  0  0  0
   16.5775   -1.0917   19.9867 C   0  0  0  0  0  0  0  0  0  0  0  0
   17.6452   -0.7974   21.0312 C   0  0  0  0  0  0  0  0  0  0  0  0
   18.5905    0.2086   20.3902 C   0  0  0  0  0  0  0  0  0  0  0  0
   18.1706    0.3271   18.9258 C   0  0  0  0  0  0  0  0  0  0  0  0
   13.5384   -0.7567   15.9529 C   0  0  0  0  0  0  0  0  0  0  0  0
  1  2  1  0
  2  3  2  0
  3  4  1  0
  4  5  2  0
  5  6  1  0
  5  7  1  0
  7  8  1  0
  8  9  1  0
  9 10  2  0
  9 11  1  0
 11 12  1  0
 12 13  2  0
 12 14  2  0
 12 15  1  0
 15 16  2  0
 16 17  1  0
 17 18  2  0
 18 19  1  0
 18 20  1  0
 20 21  1  0
 20 22  2  0
 11 23  1  0
 23 24  1  0
 24 25  1  0
 25 26  1  0
  7 27  2  0
 27  2  1  0
 26 11  1  0
 22 15  1  0
M  END
>  <ref_mols>  (1147) 
B1396a

>  <gnina_score>  (1147) 
5.192

>  <smina_score_min>  (1147) 
-3.982

>  <ref_pdb>  (1147) 
B1396a

>  <inspiration_score>  (1147) 
None

>  <inchikey>  (1147) 
PNNJXHSAQPNFFO-UHFFFAOYSA-N

>  <tags>  (1147) 
BulkDock Fragalysis export,openbind_d68ev3c_c2_elabs_scored,openbind_d68ev3c_c2_elabs_scored_4.5plus,openbind_d68ev3c_c2_elabs,openbind_d68ev3c_c2_elabs_scored_5plus,syndirella_product,openbind_d68ev3c_c2_elabs_scored_top80percent,syndirella_placed

>  <smiles>  (1147) 
Cc1ccc(C)c(NC(=O)C2(S(=O)(=O)c3ccc(C)c(C)c3)CCCC2)c1

>  <subsites>  (1147) 
None

>  <rmsd(smina/fragmenstein)>  (1147) 
2.153

>  <alias>  (1147) 
None

>  <energy_score>  (1147) 
-51.794492

>  <HIPPO Pose ID>  (1147) 
95560

>  <distance_score>  (1147) 
0.405136

>  <HIPPO Compound ID>  (1147) 
129454

>  <gnina_score_min>  (1147) 
5.215

>  <name>  (1147) 
P95560

>  <exports>  (1147) 
['/opt/xchem-fragalysis-2/maxwin/BulkDock/OUTPUTS/openbind_d68ev3c_c2_elabs_1LOTQJ3.sdf', '/opt/xchem-fragalysis-2/maxwin/BulkDock/OUTPUTS/openbind_d68ev3c_c2_elabs_1LSYI5W.sdf']

$$$$
P95561
     RDKit          3D

 27 29  0  0  0  0  0  0  0  0999 V2000
   20.1389   -1.7183   12.3515 C   0  0  0  0  0  0  0  0  0  0  0  0
   19.6484   -1.8794   13.7656 C   0  0  0  0  0  0  0  0  0  0  0  0
   19.7045   -0.7824   14.6383 C   0  0  0  0  0  0  0  0  0  0  0  0
   19.2930   -0.8958   15.9676 C   0  0  0  0  0  0  0  0  0  0  0  0
   18.7933   -2.1090   16.4295 C   0  0  0  0  0  0  0  0  0  0  0  0
   18.2875   -2.3177   18.1233 S   0  0  0  0  0  0  0  0  0  0  0  0
   17.3603   -3.4394   18.1289 O   0  0  0  0  0  0  0  0  0  0  0  0
   19.5076   -2.3950   18.9041 O   0  0  0  0  0  0  0  0  0  0  0  0
   17.3353   -0.8925   18.6560 C   0  0  0  0  0  0  0  0  0  0  0  0
   16.2912   -0.5540   17.5684 C   0  0  0  0  0  0  0  0  0  0  0  0
   16.3249    0.4703   16.9995 O   0  0  0  0  0  0  0  0  0  0  0  0
   15.2608   -1.7280   17.4804 N   0  0  0  0  0  0  0  0  0  0  0  0
   14.0570   -1.8304   16.7696 C   0  0  0  0  0  0  0  0  0  0  0  0
   13.5877   -0.7524   16.0124 C   0  0  0  0  0  0  0  0  0  0  0  0
   12.3976   -0.8555   15.2841 C   0  0  0  0  0  0  0  0  0  0  0  0
   11.6660   -2.0385   15.2985 C   0  0  0  0  0  0  0  0  0  0  0  0
   12.1194   -3.1158   16.0570 C   0  0  0  0  0  0  0  0  0  0  0  0
   13.3043   -3.0159   16.8014 C   0  0  0  0  0  0  0  0  0  0  0  0
   13.7371   -4.1461   17.5671 C   0  0  0  0  0  0  0  0  0  0  0  0
   14.1373   -5.0395   18.1872 N   0  0  0  0  0  0  0  0  0  0  0  0
   16.6248   -1.1832   20.0093 C   0  0  0  0  0  0  0  0  0  0  0  0
   17.4187   -0.4369   21.0701 C   0  0  0  0  0  0  0  0  0  0  0  0
   17.8294    0.8278   20.3505 C   0  0  0  0  0  0  0  0  0  0  0  0
   18.2558    0.3232   18.9777 C   0  0  0  0  0  0  0  0  0  0  0  0
   18.7338   -3.2172   15.5731 C   0  0  0  0  0  0  0  0  0  0  0  0
   19.1815   -3.1187   14.2451 C   0  0  0  0  0  0  0  0  0  0  0  0
   19.2190   -4.3490   13.3786 C   0  0  0  0  0  0  0  0  0  0  0  0
  1  2  1  0
  2  3  2  0
  3  4  1  0
  4  5  2  0
  5  6  1  0
  6  7  2  0
  6  8  2  0
  6  9  1  0
  9 10  1  0
 10 11  2  0
 10 12  1  0
 12 13  1  0
 13 14  2  0
 14 15  1  0
 15 16  2  0
 16 17  1  0
 17 18  2  0
 18 19  1  0
 19 20  3  0
  9 21  1  0
 21 22  1  0
 22 23  1  0
 23 24  1  0
  5 25  1  0
 25 26  2  0
 26 27  1  0
 26  2  1  0
 24  9  1  0
 18 13  1  0
M  END
>  <ref_mols>  (1148) 
B1396a

>  <gnina_score>  (1148) 
5.229

>  <smina_score_min>  (1148) 
-3.602

>  <ref_pdb>  (1148) 
B1396a

>  <inspiration_score>  (1148) 
None

>  <inchikey>  (1148) 
JLZWDUIBZJFSGP-UHFFFAOYSA-N

>  <tags>  (1148) 
BulkDock Fragalysis export,openbind_d68ev3c_c2_elabs_scored,openbind_d68ev3c_c2_elabs_scored_4.5plus,openbind_d68ev3c_c2_elabs,openbind_d68ev3c_c2_elabs_scored_5plus,syndirella_product,openbind_d68ev3c_c2_elabs_scored_top80percent,syndirella_placed

>  <smiles>  (1148) 
Cc1ccc(S(=O)(=O)C2(C(=O)Nc3ccccc3C#N)CCCC2)cc1C

>  <subsites>  (1148) 
None

>  <rmsd(smina/fragmenstein)>  (1148) 
1.888

>  <alias>  (1148) 
None

>  <energy_score>  (1148) 
-28.605581

>  <HIPPO Pose ID>  (1148) 
95561

>  <distance_score>  (1148) 
0.442875

>  <HIPPO Compound ID>  (1148) 
129455

>  <gnina_score_min>  (1148) 
5.121

>  <name>  (1148) 
P95561

>  <exports>  (1148) 
['/opt/xchem-fragalysis-2/maxwin/BulkDock/OUTPUTS/openbind_d68ev3c_c2_elabs_1LOTQJ3.sdf', '/opt/xchem-fragalysis-2/maxwin/BulkDock/OUTPUTS/openbind_d68ev3c_c2_elabs_1LSYI5W.sdf']

$$$$
P95563
     RDKit          3D

 27 30  0  0  0  0  0  0  0  0999 V2000
   20.6514   -1.5577   12.5369 C   0  0  0  0  0  0  0  0  0  0  0  0
   20.0184   -1.8336   13.8746 C   0  0  0  0  0  0  0  0  0  0  0  0
   20.2578   -0.9426   14.9320 C   0  0  0  0  0  0  0  0  0  0  0  0
   19.7118   -1.1646   16.1956 C   0  0  0  0  0  0  0  0  0  0  0  0
   18.8756   -2.2600   16.3983 C   0  0  0  0  0  0  0  0  0  0  0  0
   18.1590   -2.5409   18.0029 S   0  0  0  0  0  0  0  0  0  0  0  0
   19.2810   -2.6026   18.9245 O   0  0  0  0  0  0  0  0  0  0  0  0
   17.2847   -3.6962   17.8712 O   0  0  0  0  0  0  0  0  0  0  0  0
   17.1164   -1.1657   18.4649 C   0  0  0  0  0  0  0  0  0  0  0  0
   16.2948   -0.7340   17.2336 C   0  0  0  0  0  0  0  0  0  0  0  0
   16.8192   -0.1655   16.3425 O   0  0  0  0  0  0  0  0  0  0  0  0
   14.8351   -1.0661   17.4589 N   0  0  0  0  0  0  0  0  0  0  0  0
   14.4470   -2.5141   16.8195 C   0  0  0  0  0  0  0  0  0  0  0  0
   13.2657   -1.8939   16.2493 C   0  0  0  0  0  0  0  0  0  0  0  0
   12.1477   -1.9345   15.4636 C   0  0  0  0  0  0  0  0  0  0  0  0
   11.5800   -3.4751   14.5993 Br  0  0  0  0  0  0  0  0  0  0  0  0
   11.4639   -0.7444   15.1968 C   0  0  0  0  0  0  0  0  0  0  0  0
   11.9594    0.4749   15.6801 C   0  0  0  0  0  0  0  0  0  0  0  0
   13.1184    0.5019   16.4518 C   0  0  0  0  0  0  0  0  0  0  0  0
   13.6938   -0.7131   16.7253 C   0  0  0  0  0  0  0  0  0  0  0  0
   16.3300   -1.5102   19.7469 C   0  0  0  0  0  0  0  0  0  0  0  0
   15.9443   -0.1725   20.3728 C   0  0  0  0  0  0  0  0  0  0  0  0
   16.9262    0.8494   19.8118 C   0  0  0  0  0  0  0  0  0  0  0  0
   17.9193    0.0542   18.9668 C   0  0  0  0  0  0  0  0  0  0  0  0
   18.6560   -3.1818   15.3672 C   0  0  0  0  0  0  0  0  0  0  0  0
   19.2536   -2.9936   14.1086 C   0  0  0  0  0  0  0  0  0  0  0  0
   19.0681   -4.0307   13.0351 C   0  0  0  0  0  0  0  0  0  0  0  0
  1  2  1  0
  2  3  2  0
  3  4  1  0
  4  5  2  0
  5  6  1  0
  6  7  2  0
  6  8  2  0
  6  9  1  0
  9 10  1  0
 10 11  2  0
 10 12  1  0
 12 13  1  0
 13 14  1  0
 14 15  2  0
 15 16  1  0
 15 17  1  0
 17 18  2  0
 18 19  1  0
 19 20  2  0
  9 21  1  0
 21 22  1  0
 22 23  1  0
 23 24  1  0
  5 25  1  0
 25 26  2  0
 26 27  1  0
 26  2  1  0
 24  9  1  0
 20 12  1  0
 20 14  1  0
M  END
>  <ref_mols>  (1149) 
B1396a

>  <gnina_score>  (1149) 
5.272

>  <smina_score_min>  (1149) 
-3.621

>  <ref_pdb>  (1149) 
B1396a

>  <inspiration_score>  (1149) 
None

>  <inchikey>  (1149) 
DXDFHYBAWUVHEQ-UHFFFAOYSA-N

>  <tags>  (1149) 
BulkDock Fragalysis export,openbind_d68ev3c_c2_elabs_scored,openbind_d68ev3c_c2_elabs_scored_4.5plus,openbind_d68ev3c_c2_elabs,openbind_d68ev3c_c2_elabs_scored_5plus,syndirella_product,openbind_d68ev3c_c2_elabs_scored_top80percent,syndirella_placed

>  <smiles>  (1149) 
Cc1ccc(S(=O)(=O)C2(C(=O)N3Cc4c(Br)cccc43)CCCC2)cc1C

>  <subsites>  (1149) 
None

>  <rmsd(smina/fragmenstein)>  (1149) 
2.682

>  <alias>  (1149) 
None

>  <energy_score>  (1149) 
-10.167571

>  <HIPPO Pose ID>  (1149) 
95563

>  <distance_score>  (1149) 
0.96783

>  <HIPPO Compound ID>  (1149) 
129458

>  <gnina_score_min>  (1149) 
5.123

>  <name>  (1149) 
P95563

>  <exports>  (1149) 
['/opt/xchem-fragalysis-2/maxwin/BulkDock/OUTPUTS/openbind_d68ev3c_c2_elabs_1LOTQJ3.sdf', '/opt/xchem-fragalysis-2/maxwin/BulkDock/OUTPUTS/openbind_d68ev3c_c2_elabs_1LSYI5W.sdf']

$$$$
P95564
     RDKit          3D

 27 29  0  0  0  0  0  0  0  0999 V2000
   10.5446   -1.6839   14.9001 C   0  0  0  0  0  0  0  0  0  0  0  0
   11.8529   -1.7380   15.6179 C   0  0  0  0  0  0  0  0  0  0  0  0
   12.6186   -0.5795   15.7250 C   0  0  0  0  0  0  0  0  0  0  0  0
   13.8081   -0.5910   16.4465 C   0  0  0  0  0  0  0  0  0  0  0  0
   14.2417   -1.7533   17.0876 C   0  0  0  0  0  0  0  0  0  0  0  0
   15.4069   -1.7184   17.8538 N   0  0  0  0  0  0  0  0  0  0  0  0
   16.4964   -0.6033   17.9959 C   0  0  0  0  0  0  0  0  0  0  0  0
   16.5359    0.4808   17.5501 O   0  0  0  0  0  0  0  0  0  0  0  0
   17.6010   -1.0793   18.9785 C   0  0  0  0  0  0  0  0  0  0  0  0
   18.4002   -2.5176   18.2298 S   0  0  0  0  0  0  0  0  0  0  0  0
   19.6867   -2.7197   18.8698 O   0  0  0  0  0  0  0  0  0  0  0  0
   17.4274   -3.6000   18.2347 O   0  0  0  0  0  0  0  0  0  0  0  0
   18.7410   -2.1435   16.5174 C   0  0  0  0  0  0  0  0  0  0  0  0
   17.8690   -2.5939   15.5166 C   0  0  0  0  0  0  0  0  0  0  0  0
   18.1794   -2.3568   14.1753 C   0  0  0  0  0  0  0  0  0  0  0  0
   19.3589   -1.6962   13.8472 C   0  0  0  0  0  0  0  0  0  0  0  0
   19.6523   -1.4686   12.5612 F   0  0  0  0  0  0  0  0  0  0  0  0
   20.2422   -1.2741   14.8341 C   0  0  0  0  0  0  0  0  0  0  0  0
   19.9417   -1.5093   16.1765 C   0  0  0  0  0  0  0  0  0  0  0  0
   16.9910   -1.4954   20.3530 C   0  0  0  0  0  0  0  0  0  0  0  0
   16.8815   -0.3192   21.3195 C   0  0  0  0  0  0  0  0  0  0  0  0
   18.2541    0.2406   21.6839 C   0  0  0  0  0  0  0  0  0  0  0  0
   19.2902    0.0422   20.5803 C   0  0  0  0  0  0  0  0  0  0  0  0
   18.6444    0.0665   19.1959 C   0  0  0  0  0  0  0  0  0  0  0  0
   13.4833   -2.9323   16.9874 C   0  0  0  0  0  0  0  0  0  0  0  0
   13.8845   -4.2076   17.6758 C   0  0  0  0  0  0  0  0  0  0  0  0
   12.2915   -2.9109   16.2422 C   0  0  0  0  0  0  0  0  0  0  0  0
  1  2  1  0
  2  3  2  0
  3  4  1  0
  4  5  2  0
  5  6  1  0
  6  7  1  0
  7  8  2  0
  7  9  1  0
  9 10  1  0
 10 11  2  0
 10 12  2  0
 10 13  1  0
 13 14  2  0
 14 15  1  0
 15 16  2  0
 16 17  1  0
 16 18  1  0
 18 19  2  0
  9 20  1  0
 20 21  1  0
 21 22  1  0
 22 23  1  0
 23 24  1  0
  5 25  1  0
 25 26  1  0
 25 27  2  0
 27  2  1  0
 24  9  1  0
 19 13  1  0
M  END
>  <ref_mols>  (1150) 
B1396a

>  <gnina_score>  (1150) 
5.238

>  <smina_score_min>  (1150) 
-3.512

>  <ref_pdb>  (1150) 
B1396a

>  <inspiration_score>  (1150) 
None

>  <inchikey>  (1150) 
NIOGOZQWCHTERB-UHFFFAOYSA-N

>  <tags>  (1150) 
BulkDock Fragalysis export,openbind_d68ev3c_c2_elabs_scored,openbind_d68ev3c_c2_elabs_scored_4.5plus,openbind_d68ev3c_c2_elabs,openbind_d68ev3c_c2_elabs_scored_5plus,syndirella_product,openbind_d68ev3c_c2_elabs_scored_top80percent,syndirella_placed

>  <smiles>  (1150) 
Cc1ccc(NC(=O)C2(S(=O)(=O)c3ccc(F)cc3)CCCCC2)c(C)c1

>  <subsites>  (1150) 
None

>  <rmsd(smina/fragmenstein)>  (1150) 
1.741

>  <alias>  (1150) 
None

>  <energy_score>  (1150) 
-47.878951

>  <HIPPO Pose ID>  (1150) 
95564

>  <distance_score>  (1150) 
0.6266

>  <HIPPO Compound ID>  (1150) 
129459

>  <gnina_score_min>  (1150) 
5.061

>  <name>  (1150) 
P95564

>  <exports>  (1150) 
['/opt/xchem-fragalysis-2/maxwin/BulkDock/OUTPUTS/openbind_d68ev3c_c2_elabs_1LOTQJ3.sdf', '/opt/xchem-fragalysis-2/maxwin/BulkDock/OUTPUTS/openbind_d68ev3c_c2_elabs_1LSYI5W.sdf']

$$$$
P95565
     RDKit          3D

 27 29  0  0  0  0  0  0  0  0999 V2000
   13.7161   -4.1979   17.5962 C   0  0  0  0  0  0  0  0  0  0  0  0
   13.2852   -3.0081   16.7819 C   0  0  0  0  0  0  0  0  0  0  0  0
   12.1050   -3.0959   16.0240 C   0  0  0  0  0  0  0  0  0  0  0  0
   11.6541   -2.0175   15.2637 C   0  0  0  0  0  0  0  0  0  0  0  0
   12.3872   -0.8365   15.2578 C   0  0  0  0  0  0  0  0  0  0  0  0
   11.7217    0.7818   14.1346 I   0  0  0  0  0  0  0  0  0  0  0  0
   13.5684   -0.7309   15.9956 C   0  0  0  0  0  0  0  0  0  0  0  0
   14.0232   -1.8124   16.7567 C   0  0  0  0  0  0  0  0  0  0  0  0
   15.2079   -1.7149   17.4895 N   0  0  0  0  0  0  0  0  0  0  0  0
   16.2511   -0.5535   17.5825 C   0  0  0  0  0  0  0  0  0  0  0  0
   16.3110    0.4616   16.9989 O   0  0  0  0  0  0  0  0  0  0  0  0
   17.2954   -0.8838   18.6919 C   0  0  0  0  0  0  0  0  0  0  0  0
   18.2094   -2.3468   18.1484 S   0  0  0  0  0  0  0  0  0  0  0  0
   17.2777   -3.4649   18.1516 O   0  0  0  0  0  0  0  0  0  0  0  0
   19.4443   -2.4649   18.8996 O   0  0  0  0  0  0  0  0  0  0  0  0
   18.6846   -2.0812   16.4486 C   0  0  0  0  0  0  0  0  0  0  0  0
   19.8742   -1.3983   16.1689 C   0  0  0  0  0  0  0  0  0  0  0  0
   20.2738   -1.2266   14.8434 C   0  0  0  0  0  0  0  0  0  0  0  0
   19.4999   -1.7570   13.8171 C   0  0  0  0  0  0  0  0  0  0  0  0
   19.8896   -1.5901   12.5474 F   0  0  0  0  0  0  0  0  0  0  0  0
   18.3332   -2.4646   14.0893 C   0  0  0  0  0  0  0  0  0  0  0  0
   17.9234   -2.6397   15.4130 C   0  0  0  0  0  0  0  0  0  0  0  0
   18.2290    0.3512   18.8619 C   0  0  0  0  0  0  0  0  0  0  0  0
   19.1025    0.3628   20.1153 C   0  0  0  0  0  0  0  0  0  0  0  0
   18.2902    0.1081   21.3748 C   0  0  0  0  0  0  0  0  0  0  0  0
   17.4745   -1.1691   21.2586 C   0  0  0  0  0  0  0  0  0  0  0  0
   16.5624   -1.1515   20.0332 C   0  0  0  0  0  0  0  0  0  0  0  0
  1  2  1  0
  2  3  2  0
  3  4  1  0
  4  5  2  0
  5  6  1  0
  5  7  1  0
  7  8  2  0
  8  9  1  0
  9 10  1  0
 10 11  2  0
 10 12  1  0
 12 13  1  0
 13 14  2  0
 13 15  2  0
 13 16  1  0
 16 17  2  0
 17 18  1  0
 18 19  2  0
 19 20  1  0
 19 21  1  0
 21 22  2  0
 12 23  1  0
 23 24  1  0
 24 25  1  0
 25 26  1  0
 26 27  1  0
  8  2  1  0
 27 12  1  0
 22 16  1  0
M  END
>  <ref_mols>  (1151) 
B1396a

>  <gnina_score>  (1151) 
5.298

>  <smina_score_min>  (1151) 
-4.052

>  <ref_pdb>  (1151) 
B1396a

>  <inspiration_score>  (1151) 
None

>  <inchikey>  (1151) 
WXTSOGZYZSBIEP-UHFFFAOYSA-N

>  <tags>  (1151) 
BulkDock Fragalysis export,openbind_d68ev3c_c2_elabs_scored,openbind_d68ev3c_c2_elabs_scored_4.5plus,openbind_d68ev3c_c2_elabs,openbind_d68ev3c_c2_elabs_scored_5plus,syndirella_product,openbind_d68ev3c_c2_elabs_scored_top80percent,syndirella_placed

>  <smiles>  (1151) 
Cc1ccc(I)cc1NC(=O)C1(S(=O)(=O)c2ccc(F)cc2)CCCCC1

>  <subsites>  (1151) 
None

>  <rmsd(smina/fragmenstein)>  (1151) 
2.252

>  <alias>  (1151) 
None

>  <energy_score>  (1151) 
-52.025517

>  <HIPPO Pose ID>  (1151) 
95565

>  <distance_score>  (1151) 
0.428453

>  <HIPPO Compound ID>  (1151) 
129460

>  <gnina_score_min>  (1151) 
5.271

>  <name>  (1151) 
P95565

>  <exports>  (1151) 
['/opt/xchem-fragalysis-2/maxwin/BulkDock/OUTPUTS/openbind_d68ev3c_c2_elabs_1LOTQJ3.sdf', '/opt/xchem-fragalysis-2/maxwin/BulkDock/OUTPUTS/openbind_d68ev3c_c2_elabs_1LSYI5W.sdf']

$$$$
P95566
     RDKit          3D

 27 29  0  0  0  0  0  0  0  0999 V2000
   13.7514   -4.1912   17.6576 C   0  0  0  0  0  0  0  0  0  0  0  0
   13.3008   -3.0165   16.8322 C   0  0  0  0  0  0  0  0  0  0  0  0
   12.1368   -3.1426   16.0541 C   0  0  0  0  0  0  0  0  0  0  0  0
   11.6736   -2.0852   15.2734 C   0  0  0  0  0  0  0  0  0  0  0  0
   12.3769   -0.8873   15.2672 C   0  0  0  0  0  0  0  0  0  0  0  0
   11.7465    0.5550   14.2195 Br  0  0  0  0  0  0  0  0  0  0  0  0
   13.5389   -0.7414   16.0264 C   0  0  0  0  0  0  0  0  0  0  0  0
   14.0067   -1.8014   16.8106 C   0  0  0  0  0  0  0  0  0  0  0  0
   15.1608   -1.6490   17.5842 N   0  0  0  0  0  0  0  0  0  0  0  0
   16.2322   -0.5092   17.5956 C   0  0  0  0  0  0  0  0  0  0  0  0
   16.2646    0.5076   17.0132 O   0  0  0  0  0  0  0  0  0  0  0  0
   17.3243   -0.8450   18.6511 C   0  0  0  0  0  0  0  0  0  0  0  0
   18.1865   -2.3432   18.1146 S   0  0  0  0  0  0  0  0  0  0  0  0
   17.2220   -3.4322   18.1119 O   0  0  0  0  0  0  0  0  0  0  0  0
   19.4081   -2.4884   18.8848 O   0  0  0  0  0  0  0  0  0  0  0  0
   18.6768   -2.0798   16.4218 C   0  0  0  0  0  0  0  0  0  0  0  0
   17.9185   -2.6329   15.3814 C   0  0  0  0  0  0  0  0  0  0  0  0
   18.3369   -2.4570   14.0607 C   0  0  0  0  0  0  0  0  0  0  0  0
   19.5065   -1.7505   13.7971 C   0  0  0  0  0  0  0  0  0  0  0  0
   19.9042   -1.5824   12.5301 F   0  0  0  0  0  0  0  0  0  0  0  0
   20.2740   -1.2210   14.8289 C   0  0  0  0  0  0  0  0  0  0  0  0
   19.8665   -1.3940   16.1517 C   0  0  0  0  0  0  0  0  0  0  0  0
   16.6482   -1.0774   20.0344 C   0  0  0  0  0  0  0  0  0  0  0  0
   17.5032   -0.6028   21.2058 C   0  0  0  0  0  0  0  0  0  0  0  0
   17.7793    0.8973   21.1347 C   0  0  0  0  0  0  0  0  0  0  0  0
   17.8902    1.4204   19.7041 C   0  0  0  0  0  0  0  0  0  0  0  0
   18.3503    0.3289   18.7407 C   0  0  0  0  0  0  0  0  0  0  0  0
  1  2  1  0
  2  3  2  0
  3  4  1  0
  4  5  2  0
  5  6  1  0
  5  7  1  0
  7  8  2  0
  8  9  1  0
  9 10  1  0
 10 11  2  0
 10 12  1  0
 12 13  1  0
 13 14  2  0
 13 15  2  0
 13 16  1  0
 16 17  2  0
 17 18  1  0
 18 19  2  0
 19 20  1  0
 19 21  1  0
 21 22  2  0
 12 23  1  0
 23 24  1  0
 24 25  1  0
 25 26  1  0
 26 27  1  0
  8  2  1  0
 27 12  1  0
 22 16  1  0
M  END
>  <ref_mols>  (1152) 
B1396a

>  <gnina_score>  (1152) 
5.25

>  <smina_score_min>  (1152) 
-4.055

>  <ref_pdb>  (1152) 
B1396a

>  <inspiration_score>  (1152) 
None

>  <inchikey>  (1152) 
SXDSCVKHODYSIG-UHFFFAOYSA-N

>  <tags>  (1152) 
BulkDock Fragalysis export,openbind_d68ev3c_c2_elabs_scored,openbind_d68ev3c_c2_elabs_scored_4.5plus,openbind_d68ev3c_c2_elabs,openbind_d68ev3c_c2_elabs_scored_5plus,syndirella_product,openbind_d68ev3c_c2_elabs_scored_top80percent,syndirella_placed

>  <smiles>  (1152) 
Cc1ccc(Br)cc1NC(=O)C1(S(=O)(=O)c2ccc(F)cc2)CCCCC1

>  <subsites>  (1152) 
None

>  <rmsd(smina/fragmenstein)>  (1152) 
2.26

>  <alias>  (1152) 
None

>  <energy_score>  (1152) 
-56.203075

>  <HIPPO Pose ID>  (1152) 
95566

>  <distance_score>  (1152) 
0.435354

>  <HIPPO Compound ID>  (1152) 
129461

>  <gnina_score_min>  (1152) 
5.214

>  <name>  (1152) 
P95566

>  <exports>  (1152) 
['/opt/xchem-fragalysis-2/maxwin/BulkDock/OUTPUTS/openbind_d68ev3c_c2_elabs_1LOTQJ3.sdf', '/opt/xchem-fragalysis-2/maxwin/BulkDock/OUTPUTS/openbind_d68ev3c_c2_elabs_1LSYI5W.sdf']

$$$$
P95568
     RDKit          3D

 27 29  0  0  0  0  0  0  0  0999 V2000
   13.7255   -4.2089   17.6549 C   0  0  0  0  0  0  0  0  0  0  0  0
   13.3147   -3.0191   16.8314 C   0  0  0  0  0  0  0  0  0  0  0  0
   12.1509   -3.1064   16.0467 C   0  0  0  0  0  0  0  0  0  0  0  0
   11.7240   -2.0297   15.2724 C   0  0  0  0  0  0  0  0  0  0  0  0
   12.4645   -0.8587   15.2761 C   0  0  0  0  0  0  0  0  0  0  0  0
   12.0206    0.1773   14.5085 O   0  0  0  0  0  0  0  0  0  0  0  0
   13.6236   -0.7467   16.0402 C   0  0  0  0  0  0  0  0  0  0  0  0
   14.0519   -1.8223   16.8254 C   0  0  0  0  0  0  0  0  0  0  0  0
   15.1954   -1.7023   17.6187 N   0  0  0  0  0  0  0  0  0  0  0  0
   16.2300   -0.5367   17.7376 C   0  0  0  0  0  0  0  0  0  0  0  0
   16.2346    0.5272   17.2453 O   0  0  0  0  0  0  0  0  0  0  0  0
   17.3321   -0.9165   18.7692 C   0  0  0  0  0  0  0  0  0  0  0  0
   18.2027   -2.3832   18.1588 S   0  0  0  0  0  0  0  0  0  0  0  0
   17.2585   -3.4895   18.1653 O   0  0  0  0  0  0  0  0  0  0  0  0
   19.4505   -2.5225   18.8883 O   0  0  0  0  0  0  0  0  0  0  0  0
   18.6433   -2.0777   16.4597 C   0  0  0  0  0  0  0  0  0  0  0  0
   19.8268   -1.3863   16.1740 C   0  0  0  0  0  0  0  0  0  0  0  0
   20.2074   -1.1929   14.8459 C   0  0  0  0  0  0  0  0  0  0  0  0
   19.4194   -1.7083   13.8227 C   0  0  0  0  0  0  0  0  0  0  0  0
   19.7897   -1.5195   12.5502 F   0  0  0  0  0  0  0  0  0  0  0  0
   18.2566   -2.4204   14.1003 C   0  0  0  0  0  0  0  0  0  0  0  0
   17.8659   -2.6176   15.4268 C   0  0  0  0  0  0  0  0  0  0  0  0
   16.7356   -1.2387   20.1646 C   0  0  0  0  0  0  0  0  0  0  0  0
   16.1450   -0.0148   20.8610 C   0  0  0  0  0  0  0  0  0  0  0  0
   17.1890    1.0800   21.0263 C   0  0  0  0  0  0  0  0  0  0  0  0
   17.8035    1.4663   19.6890 C   0  0  0  0  0  0  0  0  0  0  0  0
   18.3499    0.2528   18.9288 C   0  0  0  0  0  0  0  0  0  0  0  0
  1  2  1  0
  2  3  2  0
  3  4  1  0
  4  5  2  0
  5  6  1  0
  5  7  1  0
  7  8  2  0
  8  9  1  0
  9 10  1  0
 10 11  2  0
 10 12  1  0
 12 13  1  0
 13 14  2  0
 13 15  2  0
 13 16  1  0
 16 17  2  0
 17 18  1  0
 18 19  2  0
 19 20  1  0
 19 21  1  0
 21 22  2  0
 12 23  1  0
 23 24  1  0
 24 25  1  0
 25 26  1  0
 26 27  1  0
  8  2  1  0
 27 12  1  0
 22 16  1  0
M  END
>  <ref_mols>  (1153) 
B1396a

>  <gnina_score>  (1153) 
5.099

>  <smina_score_min>  (1153) 
-4.148

>  <ref_pdb>  (1153) 
B1396a

>  <inspiration_score>  (1153) 
None

>  <inchikey>  (1153) 
NARDCGUAUFLGSN-UHFFFAOYSA-N

>  <tags>  (1153) 
BulkDock Fragalysis export,openbind_d68ev3c_c2_elabs_scored,openbind_d68ev3c_c2_elabs_scored_4.5plus,openbind_d68ev3c_c2_elabs,openbind_d68ev3c_c2_elabs_scored_5plus,syndirella_product,openbind_d68ev3c_c2_elabs_scored_top80percent,syndirella_placed

>  <smiles>  (1153) 
Cc1ccc(O)cc1NC(=O)C1(S(=O)(=O)c2ccc(F)cc2)CCCCC1

>  <subsites>  (1153) 
None

>  <rmsd(smina/fragmenstein)>  (1153) 
1.848

>  <alias>  (1153) 
None

>  <energy_score>  (1153) 
-49.614287

>  <HIPPO Pose ID>  (1153) 
95568

>  <distance_score>  (1153) 
0.476353

>  <HIPPO Compound ID>  (1153) 
129464

>  <gnina_score_min>  (1153) 
5.075

>  <name>  (1153) 
P95568

>  <exports>  (1153) 
['/opt/xchem-fragalysis-2/maxwin/BulkDock/OUTPUTS/openbind_d68ev3c_c2_elabs_1LOTQJ3.sdf', '/opt/xchem-fragalysis-2/maxwin/BulkDock/OUTPUTS/openbind_d68ev3c_c2_elabs_1LSYI5W.sdf']

$$$$
P95570
     RDKit          3D

 27 29  0  0  0  0  0  0  0  0999 V2000
   14.7579   -5.1532   17.6346 C   0  0  0  0  0  0  0  0  0  0  0  0
   13.7719   -4.1071   18.1205 C   0  0  0  0  0  0  0  0  0  0  0  0
   13.4087   -3.0778   17.0732 C   0  0  0  0  0  0  0  0  0  0  0  0
   12.2632   -3.2966   16.2866 C   0  0  0  0  0  0  0  0  0  0  0  0
   11.8401   -2.3586   15.3457 C   0  0  0  0  0  0  0  0  0  0  0  0
   12.5659   -1.1869   15.1727 C   0  0  0  0  0  0  0  0  0  0  0  0
   13.7225   -0.9643   15.9245 C   0  0  0  0  0  0  0  0  0  0  0  0
   14.1556   -1.9027   16.8676 C   0  0  0  0  0  0  0  0  0  0  0  0
   15.3115   -1.6697   17.6171 N   0  0  0  0  0  0  0  0  0  0  0  0
   16.3157   -0.4732   17.5868 C   0  0  0  0  0  0  0  0  0  0  0  0
   16.2814    0.5313   16.9839 O   0  0  0  0  0  0  0  0  0  0  0  0
   17.4471   -0.7184   18.6296 C   0  0  0  0  0  0  0  0  0  0  0  0
   18.3496   -2.2140   18.1397 S   0  0  0  0  0  0  0  0  0  0  0  0
   19.6045   -2.2633   18.8687 O   0  0  0  0  0  0  0  0  0  0  0  0
   17.4367   -3.3400   18.2471 O   0  0  0  0  0  0  0  0  0  0  0  0
   18.7687   -2.0273   16.4185 C   0  0  0  0  0  0  0  0  0  0  0  0
   17.9710   -2.6184   15.4308 C   0  0  0  0  0  0  0  0  0  0  0  0
   18.3354   -2.4867   14.0888 C   0  0  0  0  0  0  0  0  0  0  0  0
   19.4927   -1.7907   13.7526 C   0  0  0  0  0  0  0  0  0  0  0  0
   19.8370   -1.6659   12.4651 F   0  0  0  0  0  0  0  0  0  0  0  0
   20.3017   -1.2272   14.7325 C   0  0  0  0  0  0  0  0  0  0  0  0
   19.9470   -1.3533   16.0752 C   0  0  0  0  0  0  0  0  0  0  0  0
   18.4320    0.4886   18.6525 C   0  0  0  0  0  0  0  0  0  0  0  0
   17.8621    1.7537   19.3030 C   0  0  0  0  0  0  0  0  0  0  0  0
   17.2864    1.4823   20.6851 C   0  0  0  0  0  0  0  0  0  0  0  0
   16.2754    0.3454   20.6512 C   0  0  0  0  0  0  0  0  0  0  0  0
   16.8913   -0.9220   20.0632 C   0  0  0  0  0  0  0  0  0  0  0  0
  1  2  1  0
  2  3  1  0
  3  4  2  0
  4  5  1  0
  5  6  2  0
  6  7  1  0
  7  8  2  0
  8  9  1  0
  9 10  1  0
 10 11  2  0
 10 12  1  0
 12 13  1  0
 13 14  2  0
 13 15  2  0
 13 16  1  0
 16 17  2  0
 17 18  1  0
 18 19  2  0
 19 20  1  0
 19 21  1  0
 21 22  2  0
 12 23  1  0
 23 24  1  0
 24 25  1  0
 25 26  1  0
 26 27  1  0
  8  3  1  0
 27 12  1  0
 22 16  1  0
M  END
>  <ref_mols>  (1154) 
B1396a

>  <gnina_score>  (1154) 
5.107

>  <smina_score_min>  (1154) 
-3.36

>  <ref_pdb>  (1154) 
B1396a

>  <inspiration_score>  (1154) 
None

>  <inchikey>  (1154) 
SLBMWKUGIOJTKS-UHFFFAOYSA-N

>  <tags>  (1154) 
BulkDock Fragalysis export,openbind_d68ev3c_c2_elabs_scored,openbind_d68ev3c_c2_elabs_scored_4.5plus,openbind_d68ev3c_c2_elabs,openbind_d68ev3c_c2_elabs_scored_5plus,syndirella_product,openbind_d68ev3c_c2_elabs_scored_top80percent,syndirella_placed

>  <smiles>  (1154) 
CCc1ccccc1NC(=O)C1(S(=O)(=O)c2ccc(F)cc2)CCCCC1

>  <subsites>  (1154) 
None

>  <rmsd(smina/fragmenstein)>  (1154) 
1.417

>  <alias>  (1154) 
None

>  <energy_score>  (1154) 
-64.802223

>  <HIPPO Pose ID>  (1154) 
95570

>  <distance_score>  (1154) 
0.509246

>  <HIPPO Compound ID>  (1154) 
129466

>  <gnina_score_min>  (1154) 
5.065

>  <name>  (1154) 
P95570

>  <exports>  (1154) 
['/opt/xchem-fragalysis-2/maxwin/BulkDock/OUTPUTS/openbind_d68ev3c_c2_elabs_1LOTQJ3.sdf', '/opt/xchem-fragalysis-2/maxwin/BulkDock/OUTPUTS/openbind_d68ev3c_c2_elabs_1LSYI5W.sdf']

$$$$
P95571
     RDKit          3D

 27 29  0  0  0  0  0  0  0  0999 V2000
   13.7172   -4.0804   17.4694 C   0  0  0  0  0  0  0  0  0  0  0  0
   13.3452   -2.7895   16.7897 C   0  0  0  0  0  0  0  0  0  0  0  0
   12.0806   -2.6802   16.1769 C   0  0  0  0  0  0  0  0  0  0  0  0
   11.6359   -1.4583   15.6600 C   0  0  0  0  0  0  0  0  0  0  0  0
    9.9393   -1.1896   15.2094 S   0  0  0  0  0  0  0  0  0  0  0  0
   12.5015   -0.3718   15.6355 C   0  0  0  0  0  0  0  0  0  0  0  0
   13.7712   -0.4781   16.1995 C   0  0  0  0  0  0  0  0  0  0  0  0
   14.1824   -1.6616   16.8174 C   0  0  0  0  0  0  0  0  0  0  0  0
   15.3925   -1.6853   17.5106 N   0  0  0  0  0  0  0  0  0  0  0  0
   16.4992   -0.5879   17.6604 C   0  0  0  0  0  0  0  0  0  0  0  0
   16.5932    0.4687   17.1604 O   0  0  0  0  0  0  0  0  0  0  0  0
   17.5275   -1.0397   18.7303 C   0  0  0  0  0  0  0  0  0  0  0  0
   18.3457   -2.5249   18.1094 S   0  0  0  0  0  0  0  0  0  0  0  0
   17.3505   -3.5859   18.0706 O   0  0  0  0  0  0  0  0  0  0  0  0
   19.5767   -2.7332   18.8480 O   0  0  0  0  0  0  0  0  0  0  0  0
   18.8087   -2.1921   16.4205 C   0  0  0  0  0  0  0  0  0  0  0  0
   18.0565   -2.7396   15.3720 C   0  0  0  0  0  0  0  0  0  0  0  0
   18.4451   -2.5025   14.0523 C   0  0  0  0  0  0  0  0  0  0  0  0
   19.5786   -1.7374   13.7968 C   0  0  0  0  0  0  0  0  0  0  0  0
   19.9485   -1.5087   12.5307 F   0  0  0  0  0  0  0  0  0  0  0  0
   20.3397   -1.2110   14.8354 C   0  0  0  0  0  0  0  0  0  0  0  0
   19.9630   -1.4471   16.1578 C   0  0  0  0  0  0  0  0  0  0  0  0
   16.7839   -1.3415   20.0645 C   0  0  0  0  0  0  0  0  0  0  0  0
   17.6126   -1.0009   21.2996 C   0  0  0  0  0  0  0  0  0  0  0  0
   17.9560    0.4858   21.3581 C   0  0  0  0  0  0  0  0  0  0  0  0
   18.1362    1.1142   19.9778 C   0  0  0  0  0  0  0  0  0  0  0  0
   18.5917    0.0833   18.9476 C   0  0  0  0  0  0  0  0  0  0  0  0
  1  2  1  0
  2  3  2  0
  3  4  1  0
  4  5  1  0
  4  6  2  0
  6  7  1  0
  7  8  2  0
  8  9  1  0
  9 10  1  0
 10 11  2  0
 10 12  1  0
 12 13  1  0
 13 14  2  0
 13 15  2  0
 13 16  1  0
 16 17  2  0
 17 18  1  0
 18 19  2  0
 19 20  1  0
 19 21  1  0
 21 22  2  0
 12 23  1  0
 23 24  1  0
 24 25  1  0
 25 26  1  0
 26 27  1  0
  8  2  1  0
 27 12  1  0
 22 16  1  0
M  END
>  <ref_mols>  (1155) 
B1396a

>  <gnina_score>  (1155) 
5.503

>  <smina_score_min>  (1155) 
-3.879

>  <ref_pdb>  (1155) 
B1396a

>  <inspiration_score>  (1155) 
None

>  <inchikey>  (1155) 
COXFYAIDGOPAGU-UHFFFAOYSA-N

>  <tags>  (1155) 
BulkDock Fragalysis export,openbind_d68ev3c_c2_elabs_scored,openbind_d68ev3c_c2_elabs_scored_4.5plus,openbind_d68ev3c_c2_elabs,openbind_d68ev3c_c2_elabs_scored_5plus,syndirella_product,openbind_d68ev3c_c2_elabs_scored_top80percent,syndirella_placed

>  <smiles>  (1155) 
Cc1cc(S)ccc1NC(=O)C1(S(=O)(=O)c2ccc(F)cc2)CCCCC1

>  <subsites>  (1155) 
None

>  <rmsd(smina/fragmenstein)>  (1155) 
3.167

>  <alias>  (1155) 
None

>  <energy_score>  (1155) 
-54.568119

>  <HIPPO Pose ID>  (1155) 
95571

>  <distance_score>  (1155) 
0.558364

>  <HIPPO Compound ID>  (1155) 
129467

>  <gnina_score_min>  (1155) 
5.017

>  <name>  (1155) 
P95571

>  <exports>  (1155) 
['/opt/xchem-fragalysis-2/maxwin/BulkDock/OUTPUTS/openbind_d68ev3c_c2_elabs_1LOTQJ3.sdf', '/opt/xchem-fragalysis-2/maxwin/BulkDock/OUTPUTS/openbind_d68ev3c_c2_elabs_1LSYI5W.sdf']

$$$$
P95574
     RDKit          3D

 27 29  0  0  0  0  0  0  0  0999 V2000
   13.6093   -3.7978   17.3152 C   0  0  0  0  0  0  0  0  0  0  0  0
   13.3373   -2.4671   16.6588 C   0  0  0  0  0  0  0  0  0  0  0  0
   12.3045   -2.2923   15.7147 C   0  0  0  0  0  0  0  0  0  0  0  0
   11.3994   -3.5835   15.0573 Cl  0  0  0  0  0  0  0  0  0  0  0  0
   11.9905   -1.0412   15.1808 C   0  0  0  0  0  0  0  0  0  0  0  0
   12.7423    0.0626   15.5338 C   0  0  0  0  0  0  0  0  0  0  0  0
   13.8251   -0.0969   16.3924 C   0  0  0  0  0  0  0  0  0  0  0  0
   14.1390   -1.3457   16.9465 C   0  0  0  0  0  0  0  0  0  0  0  0
   15.2745   -1.4486   17.7575 N   0  0  0  0  0  0  0  0  0  0  0  0
   16.4532   -0.4432   17.9881 C   0  0  0  0  0  0  0  0  0  0  0  0
   16.6069    0.6502   17.5924 O   0  0  0  0  0  0  0  0  0  0  0  0
   17.4724   -1.0545   18.9829 C   0  0  0  0  0  0  0  0  0  0  0  0
   18.1932   -2.5233   18.2177 S   0  0  0  0  0  0  0  0  0  0  0  0
   19.4302   -2.8529   18.9007 O   0  0  0  0  0  0  0  0  0  0  0  0
   17.1424   -3.5261   18.1289 O   0  0  0  0  0  0  0  0  0  0  0  0
   18.6400   -2.1097   16.5411 C   0  0  0  0  0  0  0  0  0  0  0  0
   17.8652   -2.5927   15.4766 C   0  0  0  0  0  0  0  0  0  0  0  0
   18.2634   -2.3360   14.1630 C   0  0  0  0  0  0  0  0  0  0  0  0
   19.4291   -1.6144   13.9274 C   0  0  0  0  0  0  0  0  0  0  0  0
   19.8089   -1.3673   12.6678 F   0  0  0  0  0  0  0  0  0  0  0  0
   20.2105   -1.1488   14.9800 C   0  0  0  0  0  0  0  0  0  0  0  0
   19.8239   -1.4057   16.2966 C   0  0  0  0  0  0  0  0  0  0  0  0
   18.6082   -0.0206   19.2749 C   0  0  0  0  0  0  0  0  0  0  0  0
   18.2361    0.9380   20.4037 C   0  0  0  0  0  0  0  0  0  0  0  0
   18.0432    0.1983   21.7260 C   0  0  0  0  0  0  0  0  0  0  0  0
   17.6072   -1.2537   21.5429 C   0  0  0  0  0  0  0  0  0  0  0  0
   16.7361   -1.4302   20.3026 C   0  0  0  0  0  0  0  0  0  0  0  0
  1  2  1  0
  2  3  2  0
  3  4  1  0
  3  5  1  0
  5  6  2  0
  6  7  1  0
  7  8  2  0
  8  9  1  0
  9 10  1  0
 10 11  2  0
 10 12  1  0
 12 13  1  0
 13 14  2  0
 13 15  2  0
 13 16  1  0
 16 17  2  0
 17 18  1  0
 18 19  2  0
 19 20  1  0
 19 21  1  0
 21 22  2  0
 12 23  1  0
 23 24  1  0
 24 25  1  0
 25 26  1  0
 26 27  1  0
  8  2  1  0
 27 12  1  0
 22 16  1  0
M  END
>  <ref_mols>  (1156) 
B1396a

>  <gnina_score>  (1156) 
5.252

>  <smina_score_min>  (1156) 
-4.075

>  <ref_pdb>  (1156) 
B1396a

>  <inspiration_score>  (1156) 
None

>  <inchikey>  (1156) 
ATWBBGHSEKLPHL-UHFFFAOYSA-N

>  <tags>  (1156) 
BulkDock Fragalysis export,openbind_d68ev3c_c2_elabs_scored,openbind_d68ev3c_c2_elabs_scored_4.5plus,openbind_d68ev3c_c2_elabs,openbind_d68ev3c_c2_elabs_scored_5plus,syndirella_product,openbind_d68ev3c_c2_elabs_scored_top80percent,syndirella_placed

>  <smiles>  (1156) 
Cc1c(Cl)cccc1NC(=O)C1(S(=O)(=O)c2ccc(F)cc2)CCCCC1

>  <subsites>  (1156) 
None

>  <rmsd(smina/fragmenstein)>  (1156) 
2.675

>  <alias>  (1156) 
None

>  <energy_score>  (1156) 
-27.909322

>  <HIPPO Pose ID>  (1156) 
95574

>  <distance_score>  (1156) 
0.806494

>  <HIPPO Compound ID>  (1156) 
129470

>  <gnina_score_min>  (1156) 
5.073

>  <name>  (1156) 
P95574

>  <exports>  (1156) 
['/opt/xchem-fragalysis-2/maxwin/BulkDock/OUTPUTS/openbind_d68ev3c_c2_elabs_1LOTQJ3.sdf', '/opt/xchem-fragalysis-2/maxwin/BulkDock/OUTPUTS/openbind_d68ev3c_c2_elabs_1LSYI5W.sdf']

$$$$
P95575
     RDKit          3D

 27 29  0  0  0  0  0  0  0  0999 V2000
   13.6333   -3.7272   17.2654 C   0  0  0  0  0  0  0  0  0  0  0  0
   13.3844   -2.3647   16.6669 C   0  0  0  0  0  0  0  0  0  0  0  0
   12.3601   -2.1194   15.7317 C   0  0  0  0  0  0  0  0  0  0  0  0
   11.3877   -3.4665   14.8645 Br  0  0  0  0  0  0  0  0  0  0  0  0
   12.0590   -0.8335   15.2768 C   0  0  0  0  0  0  0  0  0  0  0  0
   12.8276    0.2360   15.6899 C   0  0  0  0  0  0  0  0  0  0  0  0
   13.9178    0.0081   16.5215 C   0  0  0  0  0  0  0  0  0  0  0  0
   14.2126   -1.2755   16.9997 C   0  0  0  0  0  0  0  0  0  0  0  0
   15.3722   -1.4582   17.7569 N   0  0  0  0  0  0  0  0  0  0  0  0
   16.5378   -0.4673   18.0839 C   0  0  0  0  0  0  0  0  0  0  0  0
   16.7357    0.6239   17.7032 O   0  0  0  0  0  0  0  0  0  0  0  0
   17.5161   -1.1200   19.0894 C   0  0  0  0  0  0  0  0  0  0  0  0
   18.2588   -2.5521   18.2715 S   0  0  0  0  0  0  0  0  0  0  0  0
   19.5174   -2.8631   18.9234 O   0  0  0  0  0  0  0  0  0  0  0  0
   17.2269   -3.5756   18.1915 O   0  0  0  0  0  0  0  0  0  0  0  0
   18.6641   -2.1102   16.5909 C   0  0  0  0  0  0  0  0  0  0  0  0
   17.8806   -2.5993   15.5351 C   0  0  0  0  0  0  0  0  0  0  0  0
   18.2528   -2.3279   14.2167 C   0  0  0  0  0  0  0  0  0  0  0  0
   19.4032   -1.5873   13.9665 C   0  0  0  0  0  0  0  0  0  0  0  0
   19.7587   -1.3270   12.7024 F   0  0  0  0  0  0  0  0  0  0  0  0
   20.1947   -1.1169   15.0093 C   0  0  0  0  0  0  0  0  0  0  0  0
   19.8335   -1.3878   16.3305 C   0  0  0  0  0  0  0  0  0  0  0  0
   18.6366   -0.1138   19.4880 C   0  0  0  0  0  0  0  0  0  0  0  0
   18.1592    1.0269   20.3929 C   0  0  0  0  0  0  0  0  0  0  0  0
   17.4246    0.5127   21.6226 C   0  0  0  0  0  0  0  0  0  0  0  0
   16.2930   -0.4300   21.2391 C   0  0  0  0  0  0  0  0  0  0  0  0
   16.8022   -1.5885   20.3837 C   0  0  0  0  0  0  0  0  0  0  0  0
  1  2  1  0
  2  3  2  0
  3  4  1  0
  3  5  1  0
  5  6  2  0
  6  7  1  0
  7  8  2  0
  8  9  1  0
  9 10  1  0
 10 11  2  0
 10 12  1  0
 12 13  1  0
 13 14  2  0
 13 15  2  0
 13 16  1  0
 16 17  2  0
 17 18  1  0
 18 19  2  0
 19 20  1  0
 19 21  1  0
 21 22  2  0
 12 23  1  0
 23 24  1  0
 24 25  1  0
 25 26  1  0
 26 27  1  0
  8  2  1  0
 27 12  1  0
 22 16  1  0
M  END
>  <ref_mols>  (1157) 
B1396a

>  <gnina_score>  (1157) 
5.196

>  <smina_score_min>  (1157) 
-3.595

>  <ref_pdb>  (1157) 
B1396a

>  <inspiration_score>  (1157) 
None

>  <inchikey>  (1157) 
RGJIJBJRJOIWQX-UHFFFAOYSA-N

>  <tags>  (1157) 
BulkDock Fragalysis export,openbind_d68ev3c_c2_elabs_scored,openbind_d68ev3c_c2_elabs_scored_4.5plus,openbind_d68ev3c_c2_elabs,openbind_d68ev3c_c2_elabs_scored_5plus,syndirella_product,openbind_d68ev3c_c2_elabs_scored_top80percent,syndirella_placed

>  <smiles>  (1157) 
Cc1c(Br)cccc1NC(=O)C1(S(=O)(=O)c2ccc(F)cc2)CCCCC1

>  <subsites>  (1157) 
None

>  <rmsd(smina/fragmenstein)>  (1157) 
2.371

>  <alias>  (1157) 
None

>  <energy_score>  (1157) 
-63.181438

>  <HIPPO Pose ID>  (1157) 
95575

>  <distance_score>  (1157) 
0.896112

>  <HIPPO Compound ID>  (1157) 
129471

>  <gnina_score_min>  (1157) 
5.054

>  <name>  (1157) 
P95575

>  <exports>  (1157) 
['/opt/xchem-fragalysis-2/maxwin/BulkDock/OUTPUTS/openbind_d68ev3c_c2_elabs_1LOTQJ3.sdf', '/opt/xchem-fragalysis-2/maxwin/BulkDock/OUTPUTS/openbind_d68ev3c_c2_elabs_1LSYI5W.sdf']

$$$$
P95576
     RDKit          3D

 27 29  0  0  0  0  0  0  0  0999 V2000
   13.8197   -4.1009   17.6006 C   0  0  0  0  0  0  0  0  0  0  0  0
   13.2953   -2.9220   16.8165 C   0  0  0  0  0  0  0  0  0  0  0  0
   12.1509   -3.1299   16.0252 C   0  0  0  0  0  0  0  0  0  0  0  0
   11.6045   -2.1033   15.2707 C   0  0  0  0  0  0  0  0  0  0  0  0
   12.1758   -0.8402   15.3331 C   0  0  0  0  0  0  0  0  0  0  0  0
   13.3165   -0.5895   16.1214 C   0  0  0  0  0  0  0  0  0  0  0  0
   13.7100    1.1524   16.2504 S   0  0  0  0  0  0  0  0  0  0  0  0
   13.9203   -1.6476   16.8410 C   0  0  0  0  0  0  0  0  0  0  0  0
   15.0873   -1.5358   17.6296 N   0  0  0  0  0  0  0  0  0  0  0  0
   16.2876   -0.5350   17.5325 C   0  0  0  0  0  0  0  0  0  0  0  0
   16.4483    0.3928   16.8327 O   0  0  0  0  0  0  0  0  0  0  0  0
   17.3320   -0.8519   18.6492 C   0  0  0  0  0  0  0  0  0  0  0  0
   18.1801   -2.3614   18.1345 S   0  0  0  0  0  0  0  0  0  0  0  0
   19.4055   -2.5182   18.8942 O   0  0  0  0  0  0  0  0  0  0  0  0
   17.2023   -3.4377   18.1490 O   0  0  0  0  0  0  0  0  0  0  0  0
   18.6729   -2.1360   16.4336 C   0  0  0  0  0  0  0  0  0  0  0  0
   17.8695   -2.6346   15.3999 C   0  0  0  0  0  0  0  0  0  0  0  0
   18.2815   -2.4737   14.0750 C   0  0  0  0  0  0  0  0  0  0  0  0
   19.4903   -1.8411   13.8003 C   0  0  0  0  0  0  0  0  0  0  0  0
   19.8797   -1.6865   12.5289 F   0  0  0  0  0  0  0  0  0  0  0  0
   20.3046   -1.3724   14.8249 C   0  0  0  0  0  0  0  0  0  0  0  0
   19.9034   -1.5304   16.1514 C   0  0  0  0  0  0  0  0  0  0  0  0
   16.6413   -1.0379   20.0259 C   0  0  0  0  0  0  0  0  0  0  0  0
   17.5895   -1.0163   21.2244 C   0  0  0  0  0  0  0  0  0  0  0  0
   18.4459    0.2382   21.2509 C   0  0  0  0  0  0  0  0  0  0  0  0
   19.2256    0.3989   19.9568 C   0  0  0  0  0  0  0  0  0  0  0  0
   18.3095    0.3600   18.7357 C   0  0  0  0  0  0  0  0  0  0  0  0
  1  2  1  0
  2  3  2  0
  3  4  1  0
  4  5  2  0
  5  6  1  0
  6  7  1  0
  6  8  2  0
  8  9  1  0
  9 10  1  0
 10 11  2  0
 10 12  1  0
 12 13  1  0
 13 14  2  0
 13 15  2  0
 13 16  1  0
 16 17  2  0
 17 18  1  0
 18 19  2  0
 19 20  1  0
 19 21  1  0
 21 22  2  0
 12 23  1  0
 23 24  1  0
 24 25  1  0
 25 26  1  0
 26 27  1  0
  8  2  1  0
 27 12  1  0
 22 16  1  0
M  END
>  <ref_mols>  (1158) 
B1396a

>  <gnina_score>  (1158) 
5.229

>  <smina_score_min>  (1158) 
-3.941

>  <ref_pdb>  (1158) 
B1396a

>  <inspiration_score>  (1158) 
None

>  <inchikey>  (1158) 
VZZDSYGJUIGRET-UHFFFAOYSA-N

>  <tags>  (1158) 
BulkDock Fragalysis export,openbind_d68ev3c_c2_elabs_scored,openbind_d68ev3c_c2_elabs_scored_4.5plus,openbind_d68ev3c_c2_elabs,openbind_d68ev3c_c2_elabs_scored_5plus,syndirella_product,openbind_d68ev3c_c2_elabs_scored_top80percent,syndirella_placed

>  <smiles>  (1158) 
Cc1cccc(S)c1NC(=O)C1(S(=O)(=O)c2ccc(F)cc2)CCCCC1

>  <subsites>  (1158) 
None

>  <rmsd(smina/fragmenstein)>  (1158) 
2.401

>  <alias>  (1158) 
None

>  <energy_score>  (1158) 
-55.788324

>  <HIPPO Pose ID>  (1158) 
95576

>  <distance_score>  (1158) 
0.414771

>  <HIPPO Compound ID>  (1158) 
129472

>  <gnina_score_min>  (1158) 
5.151

>  <name>  (1158) 
P95576

>  <exports>  (1158) 
['/opt/xchem-fragalysis-2/maxwin/BulkDock/OUTPUTS/openbind_d68ev3c_c2_elabs_1LOTQJ3.sdf', '/opt/xchem-fragalysis-2/maxwin/BulkDock/OUTPUTS/openbind_d68ev3c_c2_elabs_1LSYI5W.sdf']

$$$$
P95577
     RDKit          3D

 27 29  0  0  0  0  0  0  0  0999 V2000
   11.8722    0.2852   14.3881 C   0  0  0  0  0  0  0  0  0  0  0  0
   12.3690   -0.8681   15.2093 C   0  0  0  0  0  0  0  0  0  0  0  0
   11.6434   -2.0583   15.2556 C   0  0  0  0  0  0  0  0  0  0  0  0
   12.0985   -3.1222   16.0335 C   0  0  0  0  0  0  0  0  0  0  0  0
   13.2791   -3.0208   16.7863 C   0  0  0  0  0  0  0  0  0  0  0  0
   13.7183   -4.1992   17.6118 C   0  0  0  0  0  0  0  0  0  0  0  0
   14.0085   -1.8225   16.7443 C   0  0  0  0  0  0  0  0  0  0  0  0
   15.1929   -1.7098   17.4748 N   0  0  0  0  0  0  0  0  0  0  0  0
   16.2282   -0.5406   17.5555 C   0  0  0  0  0  0  0  0  0  0  0  0
   16.2807    0.4693   16.9621 O   0  0  0  0  0  0  0  0  0  0  0  0
   17.2758   -0.8553   18.6674 C   0  0  0  0  0  0  0  0  0  0  0  0
   18.1965   -2.3216   18.1406 S   0  0  0  0  0  0  0  0  0  0  0  0
   19.4295   -2.4288   18.8965 O   0  0  0  0  0  0  0  0  0  0  0  0
   17.2696   -3.4435   18.1509 O   0  0  0  0  0  0  0  0  0  0  0  0
   18.6765   -2.0686   16.4403 C   0  0  0  0  0  0  0  0  0  0  0  0
   17.9155   -2.6305   15.4064 C   0  0  0  0  0  0  0  0  0  0  0  0
   18.3288   -2.4642   14.0826 C   0  0  0  0  0  0  0  0  0  0  0  0
   19.4986   -1.7622   13.8090 C   0  0  0  0  0  0  0  0  0  0  0  0
   19.8909   -1.6030   12.5390 F   0  0  0  0  0  0  0  0  0  0  0  0
   20.2724   -1.2290   14.8338 C   0  0  0  0  0  0  0  0  0  0  0  0
   19.8692   -1.3917   16.1593 C   0  0  0  0  0  0  0  0  0  0  0  0
   18.2048    0.3851   18.8223 C   0  0  0  0  0  0  0  0  0  0  0  0
   19.0791    0.4144   20.0749 C   0  0  0  0  0  0  0  0  0  0  0  0
   18.2684    0.1714   21.3378 C   0  0  0  0  0  0  0  0  0  0  0  0
   17.4577   -1.1103   21.2373 C   0  0  0  0  0  0  0  0  0  0  0  0
   16.5450   -1.1112   20.0121 C   0  0  0  0  0  0  0  0  0  0  0  0
   13.5456   -0.7556   15.9656 C   0  0  0  0  0  0  0  0  0  0  0  0
  1  2  1  0
  2  3  2  0
  3  4  1  0
  4  5  2  0
  5  6  1  0
  5  7  1  0
  7  8  1  0
  8  9  1  0
  9 10  2  0
  9 11  1  0
 11 12  1  0
 12 13  2  0
 12 14  2  0
 12 15  1  0
 15 16  2  0
 16 17  1  0
 17 18  2  0
 18 19  1  0
 18 20  1  0
 20 21  2  0
 11 22  1  0
 22 23  1  0
 23 24  1  0
 24 25  1  0
 25 26  1  0
  7 27  2  0
 27  2  1  0
 26 11  1  0
 21 15  1  0
M  END
>  <ref_mols>  (1159) 
B1396a

>  <gnina_score>  (1159) 
5.159

>  <smina_score_min>  (1159) 
-4.043

>  <ref_pdb>  (1159) 
B1396a

>  <inspiration_score>  (1159) 
None

>  <inchikey>  (1159) 
YFYHPZORNHBUPN-UHFFFAOYSA-N

>  <tags>  (1159) 
BulkDock Fragalysis export,openbind_d68ev3c_c2_elabs_scored,openbind_d68ev3c_c2_elabs_scored_4.5plus,openbind_d68ev3c_c2_elabs,openbind_d68ev3c_c2_elabs_scored_5plus,syndirella_product,openbind_d68ev3c_c2_elabs_scored_top80percent,syndirella_placed

>  <smiles>  (1159) 
Cc1ccc(C)c(NC(=O)C2(S(=O)(=O)c3ccc(F)cc3)CCCCC2)c1

>  <subsites>  (1159) 
None

>  <rmsd(smina/fragmenstein)>  (1159) 
2.267

>  <alias>  (1159) 
None

>  <energy_score>  (1159) 
-61.63912

>  <HIPPO Pose ID>  (1159) 
95577

>  <distance_score>  (1159) 
0.424662

>  <HIPPO Compound ID>  (1159) 
129473

>  <gnina_score_min>  (1159) 
5.127

>  <name>  (1159) 
P95577

>  <exports>  (1159) 
['/opt/xchem-fragalysis-2/maxwin/BulkDock/OUTPUTS/openbind_d68ev3c_c2_elabs_1LOTQJ3.sdf', '/opt/xchem-fragalysis-2/maxwin/BulkDock/OUTPUTS/openbind_d68ev3c_c2_elabs_1LSYI5W.sdf']

$$$$
P95578
     RDKit          3D

 27 29  0  0  0  0  0  0  0  0999 V2000
   13.7565   -4.1875   17.6515 C   0  0  0  0  0  0  0  0  0  0  0  0
   13.3239   -3.0044   16.8255 C   0  0  0  0  0  0  0  0  0  0  0  0
   12.1556   -3.1261   16.0475 C   0  0  0  0  0  0  0  0  0  0  0  0
   11.6947   -2.0719   15.2636 C   0  0  0  0  0  0  0  0  0  0  0  0
   12.4016   -0.8779   15.2514 C   0  0  0  0  0  0  0  0  0  0  0  0
   13.5620   -0.7429   16.0154 C   0  0  0  0  0  0  0  0  0  0  0  0
   14.1813    0.4405   15.9574 F   0  0  0  0  0  0  0  0  0  0  0  0
   14.0435   -1.7911   16.8128 C   0  0  0  0  0  0  0  0  0  0  0  0
   15.1919   -1.6860   17.6170 N   0  0  0  0  0  0  0  0  0  0  0  0
   16.2183   -0.5133   17.7755 C   0  0  0  0  0  0  0  0  0  0  0  0
   16.2143    0.5660   17.3174 O   0  0  0  0  0  0  0  0  0  0  0  0
   17.3242   -0.9152   18.7979 C   0  0  0  0  0  0  0  0  0  0  0  0
   18.1865   -2.3763   18.1650 S   0  0  0  0  0  0  0  0  0  0  0  0
   17.2390   -3.4807   18.1757 O   0  0  0  0  0  0  0  0  0  0  0  0
   19.4410   -2.5245   18.8808 O   0  0  0  0  0  0  0  0  0  0  0  0
   18.6150   -2.0767   16.4590 C   0  0  0  0  0  0  0  0  0  0  0  0
   17.7925   -2.5632   15.4346 C   0  0  0  0  0  0  0  0  0  0  0  0
   18.1724   -2.3804   14.1026 C   0  0  0  0  0  0  0  0  0  0  0  0
   19.3719   -1.7394   13.8089 C   0  0  0  0  0  0  0  0  0  0  0  0
   19.7319   -1.5655   12.5315 F   0  0  0  0  0  0  0  0  0  0  0  0
   20.2077   -1.2838   14.8216 C   0  0  0  0  0  0  0  0  0  0  0  0
   19.8373   -1.4640   16.1548 C   0  0  0  0  0  0  0  0  0  0  0  0
   18.3349    0.2678   18.9755 C   0  0  0  0  0  0  0  0  0  0  0  0
   18.9473    0.3379   20.3735 C   0  0  0  0  0  0  0  0  0  0  0  0
   17.8807    0.5712   21.4404 C   0  0  0  0  0  0  0  0  0  0  0  0
   16.5303   -0.0396   21.0759 C   0  0  0  0  0  0  0  0  0  0  0  0
   16.6887   -1.2659   20.1806 C   0  0  0  0  0  0  0  0  0  0  0  0
  1  2  1  0
  2  3  2  0
  3  4  1  0
  4  5  2  0
  5  6  1  0
  6  7  1  0
  6  8  2  0
  8  9  1  0
  9 10  1  0
 10 11  2  0
 10 12  1  0
 12 13  1  0
 13 14  2  0
 13 15  2  0
 13 16  1  0
 16 17  2  0
 17 18  1  0
 18 19  2  0
 19 20  1  0
 19 21  1  0
 21 22  2  0
 12 23  1  0
 23 24  1  0
 24 25  1  0
 25 26  1  0
 26 27  1  0
  8  2  1  0
 27 12  1  0
 22 16  1  0
M  END
>  <ref_mols>  (1160) 
B1396a

>  <gnina_score>  (1160) 
5.164

>  <smina_score_min>  (1160) 
-4.011

>  <ref_pdb>  (1160) 
B1396a

>  <inspiration_score>  (1160) 
None

>  <inchikey>  (1160) 
IIBUYPJXLHFKFR-UHFFFAOYSA-N

>  <tags>  (1160) 
BulkDock Fragalysis export,openbind_d68ev3c_c2_elabs_scored,openbind_d68ev3c_c2_elabs_scored_4.5plus,openbind_d68ev3c_c2_elabs,openbind_d68ev3c_c2_elabs_scored_5plus,syndirella_product,openbind_d68ev3c_c2_elabs_scored_top80percent,syndirella_placed

>  <smiles>  (1160) 
Cc1cccc(F)c1NC(=O)C1(S(=O)(=O)c2ccc(F)cc2)CCCCC1

>  <subsites>  (1160) 
None

>  <rmsd(smina/fragmenstein)>  (1160) 
2.142

>  <alias>  (1160) 
None

>  <energy_score>  (1160) 
-42.615151

>  <HIPPO Pose ID>  (1160) 
95578

>  <distance_score>  (1160) 
0.500315

>  <HIPPO Compound ID>  (1160) 
129474

>  <gnina_score_min>  (1160) 
5.066

>  <name>  (1160) 
P95578

>  <exports>  (1160) 
['/opt/xchem-fragalysis-2/maxwin/BulkDock/OUTPUTS/openbind_d68ev3c_c2_elabs_1LOTQJ3.sdf', '/opt/xchem-fragalysis-2/maxwin/BulkDock/OUTPUTS/openbind_d68ev3c_c2_elabs_1LSYI5W.sdf']

$$$$
P95580
     RDKit          3D

 27 29  0  0  0  0  0  0  0  0999 V2000
   19.8316   -1.6540   12.2348 C   0  0  0  0  0  0  0  0  0  0  0  0
   19.4858   -1.7872   13.6945 C   0  0  0  0  0  0  0  0  0  0  0  0
   18.3415   -2.5137   14.0617 C   0  0  0  0  0  0  0  0  0  0  0  0
   17.9841   -2.6601   15.4021 C   0  0  0  0  0  0  0  0  0  0  0  0
   18.7684   -2.0577   16.3851 C   0  0  0  0  0  0  0  0  0  0  0  0
   18.3415   -2.2384   18.0999 S   0  0  0  0  0  0  0  0  0  0  0  0
   19.5874   -2.3592   18.8355 O   0  0  0  0  0  0  0  0  0  0  0  0
   17.3593   -3.3074   18.1982 O   0  0  0  0  0  0  0  0  0  0  0  0
   17.5262   -0.7195   18.5762 C   0  0  0  0  0  0  0  0  0  0  0  0
   16.4114   -0.3904   17.5532 C   0  0  0  0  0  0  0  0  0  0  0  0
   16.4258    0.6149   16.9512 O   0  0  0  0  0  0  0  0  0  0  0  0
   15.3406   -1.5265   17.5991 N   0  0  0  0  0  0  0  0  0  0  0  0
   14.1622   -1.6914   16.8684 C   0  0  0  0  0  0  0  0  0  0  0  0
   13.6678   -0.6600   16.0633 C   0  0  0  0  0  0  0  0  0  0  0  0
   12.4896   -0.8299   15.3285 C   0  0  0  0  0  0  0  0  0  0  0  0
   11.8005   -2.0363   15.3838 C   0  0  0  0  0  0  0  0  0  0  0  0
   12.2975   -3.0552   16.1880 C   0  0  0  0  0  0  0  0  0  0  0  0
   11.6569   -4.2478   16.2668 O   0  0  0  0  0  0  0  0  0  0  0  0
   13.4655   -2.9075   16.9497 C   0  0  0  0  0  0  0  0  0  0  0  0
   13.9624   -4.0489   17.8018 C   0  0  0  0  0  0  0  0  0  0  0  0
   18.5255    0.4481   18.7071 C   0  0  0  0  0  0  0  0  0  0  0  0
   17.8757    1.4354   19.6772 C   0  0  0  0  0  0  0  0  0  0  0  0
   16.8201    0.6481   20.4466 C   0  0  0  0  0  0  0  0  0  0  0  0
   16.9835   -0.8039   20.0119 C   0  0  0  0  0  0  0  0  0  0  0  0
   19.9243   -1.3519   16.0419 C   0  0  0  0  0  0  0  0  0  0  0  0
   20.2879   -1.2023   14.6953 C   0  0  0  0  0  0  0  0  0  0  0  0
   21.5329   -0.4311   14.3492 C   0  0  0  0  0  0  0  0  0  0  0  0
  1  2  1  0
  2  3  2  0
  3  4  1  0
  4  5  2  0
  5  6  1  0
  6  7  2  0
  6  8  2  0
  6  9  1  0
  9 10  1  0
 10 11  2  0
 10 12  1  0
 12 13  1  0
 13 14  2  0
 14 15  1  0
 15 16  2  0
 16 17  1  0
 17 18  1  0
 17 19  2  0
 19 20  1  0
  9 21  1  0
 21 22  1  0
 22 23  1  0
 23 24  1  0
  5 25  1  0
 25 26  2  0
 26 27  1  0
 26  2  1  0
 24  9  1  0
 19 13  1  0
M  END
>  <ref_mols>  (1161) 
B1396a

>  <gnina_score>  (1161) 
5.021

>  <smina_score_min>  (1161) 
-3.364

>  <ref_pdb>  (1161) 
B1396a

>  <inspiration_score>  (1161) 
None

>  <inchikey>  (1161) 
AQDYYQVPKVOEBQ-UHFFFAOYSA-N

>  <tags>  (1161) 
BulkDock Fragalysis export,openbind_d68ev3c_c2_elabs_scored,openbind_d68ev3c_c2_elabs_scored_4.5plus,openbind_d68ev3c_c2_elabs,openbind_d68ev3c_c2_elabs_scored_5plus,syndirella_product,openbind_d68ev3c_c2_elabs_scored_top80percent,syndirella_placed

>  <smiles>  (1161) 
Cc1ccc(S(=O)(=O)C2(C(=O)Nc3cccc(O)c3C)CCCC2)cc1C

>  <subsites>  (1161) 
None

>  <rmsd(smina/fragmenstein)>  (1161) 
2.158

>  <alias>  (1161) 
None

>  <energy_score>  (1161) 
-52.971117

>  <HIPPO Pose ID>  (1161) 
95580

>  <distance_score>  (1161) 
0.503955

>  <HIPPO Compound ID>  (1161) 
129476

>  <gnina_score_min>  (1161) 
5.044

>  <name>  (1161) 
P95580

>  <exports>  (1161) 
['/opt/xchem-fragalysis-2/maxwin/BulkDock/OUTPUTS/openbind_d68ev3c_c2_elabs_1LOTQJ3.sdf', '/opt/xchem-fragalysis-2/maxwin/BulkDock/OUTPUTS/openbind_d68ev3c_c2_elabs_1LSYI5W.sdf']

$$$$
P95581
     RDKit          3D

 27 29  0  0  0  0  0  0  0  0999 V2000
   19.9359   -2.0146   12.3414 C   0  0  0  0  0  0  0  0  0  0  0  0
   19.6598   -2.1443   13.8156 C   0  0  0  0  0  0  0  0  0  0  0  0
   18.9798   -3.2789   14.2844 C   0  0  0  0  0  0  0  0  0  0  0  0
   18.7064   -3.4401   15.6433 C   0  0  0  0  0  0  0  0  0  0  0  0
   19.1019   -2.4561   16.5495 C   0  0  0  0  0  0  0  0  0  0  0  0
   18.7651   -2.6572   18.2980 S   0  0  0  0  0  0  0  0  0  0  0  0
   19.9101   -2.0898   18.9930 O   0  0  0  0  0  0  0  0  0  0  0  0
   18.4266   -4.0482   18.5383 O   0  0  0  0  0  0  0  0  0  0  0  0
   17.3222   -1.6162   18.6824 C   0  0  0  0  0  0  0  0  0  0  0  0
   16.1754   -2.0567   17.7434 C   0  0  0  0  0  0  0  0  0  0  0  0
   16.2513   -3.0416   17.1207 O   0  0  0  0  0  0  0  0  0  0  0  0
   15.0284   -1.0072   17.8341 N   0  0  0  0  0  0  0  0  0  0  0  0
   13.8350   -0.9152   17.1330 C   0  0  0  0  0  0  0  0  0  0  0  0
   13.4047    0.3793   16.8236 C   0  0  0  0  0  0  0  0  0  0  0  0
   12.3627    0.5801   15.9265 C   0  0  0  0  0  0  0  0  0  0  0  0
   11.7945   -0.5110   15.2949 C   0  0  0  0  0  0  0  0  0  0  0  0
   12.2287   -1.8007   15.6116 C   0  0  0  0  0  0  0  0  0  0  0  0
   11.5809   -3.2531   14.3330 I   0  0  0  0  0  0  0  0  0  0  0  0
   13.1691   -2.0395   16.6227 C   0  0  0  0  0  0  0  0  0  0  0  0
   13.4127   -3.4279   17.1689 C   0  0  0  0  0  0  0  0  0  0  0  0
   17.7168   -0.1176   18.6194 C   0  0  0  0  0  0  0  0  0  0  0  0
   17.6019    0.4153   20.0468 C   0  0  0  0  0  0  0  0  0  0  0  0
   16.5986   -0.4886   20.7332 C   0  0  0  0  0  0  0  0  0  0  0  0
   16.8981   -1.8620   20.1515 C   0  0  0  0  0  0  0  0  0  0  0  0
   19.8365   -1.3518   16.1056 C   0  0  0  0  0  0  0  0  0  0  0  0
   20.1091   -1.1780   14.7382 C   0  0  0  0  0  0  0  0  0  0  0  0
   20.8913    0.0266   14.2895 C   0  0  0  0  0  0  0  0  0  0  0  0
  1  2  1  0
  2  3  2  0
  3  4  1  0
  4  5  2  0
  5  6  1  0
  6  7  2  0
  6  8  2  0
  6  9  1  0
  9 10  1  0
 10 11  2  0
 10 12  1  0
 12 13  1  0
 13 14  2  0
 14 15  1  0
 15 16  2  0
 16 17  1  0
 17 18  1  0
 17 19  2  0
 19 20  1  0
  9 21  1  0
 21 22  1  0
 22 23  1  0
 23 24  1  0
  5 25  1  0
 25 26  2  0
 26 27  1  0
 26  2  1  0
 24  9  1  0
 19 13  1  0
M  END
>  <ref_mols>  (1162) 
B1396a

>  <gnina_score>  (1162) 
5.43

>  <smina_score_min>  (1162) 
-2.561

>  <ref_pdb>  (1162) 
B1396a

>  <inspiration_score>  (1162) 
None

>  <inchikey>  (1162) 
NKGYYIFDJGJAAS-UHFFFAOYSA-N

>  <tags>  (1162) 
BulkDock Fragalysis export,openbind_d68ev3c_c2_elabs_scored,openbind_d68ev3c_c2_elabs_scored_4.5plus,openbind_d68ev3c_c2_elabs,openbind_d68ev3c_c2_elabs_scored_5plus,syndirella_product,openbind_d68ev3c_c2_elabs_scored_top80percent,syndirella_placed

>  <smiles>  (1162) 
Cc1ccc(S(=O)(=O)C2(C(=O)Nc3cccc(I)c3C)CCCC2)cc1C

>  <subsites>  (1162) 
None

>  <rmsd(smina/fragmenstein)>  (1162) 
1.831

>  <alias>  (1162) 
None

>  <energy_score>  (1162) 
-29.409606

>  <HIPPO Pose ID>  (1162) 
95581

>  <distance_score>  (1162) 
1.123987

>  <HIPPO Compound ID>  (1162) 
129477

>  <gnina_score_min>  (1162) 
5.36

>  <name>  (1162) 
P95581

>  <exports>  (1162) 
['/opt/xchem-fragalysis-2/maxwin/BulkDock/OUTPUTS/openbind_d68ev3c_c2_elabs_1LOTQJ3.sdf', '/opt/xchem-fragalysis-2/maxwin/BulkDock/OUTPUTS/openbind_d68ev3c_c2_elabs_1LSYI5W.sdf']

$$$$
P95582
     RDKit          3D

 27 29  0  0  0  0  0  0  0  0999 V2000
   19.8413   -1.3344   12.2862 C   0  0  0  0  0  0  0  0  0  0  0  0
   19.4267   -1.6129   13.7066 C   0  0  0  0  0  0  0  0  0  0  0  0
   20.3357   -1.3590   14.7450 C   0  0  0  0  0  0  0  0  0  0  0  0
   19.9835   -1.5825   16.0751 C   0  0  0  0  0  0  0  0  0  0  0  0
   18.7109   -2.0630   16.3778 C   0  0  0  0  0  0  0  0  0  0  0  0
   18.2756   -2.3723   18.0757 S   0  0  0  0  0  0  0  0  0  0  0  0
   19.5165   -2.5187   18.8156 O   0  0  0  0  0  0  0  0  0  0  0  0
   17.3192   -3.4686   18.0803 O   0  0  0  0  0  0  0  0  0  0  0  0
   17.4222   -0.9069   18.6782 C   0  0  0  0  0  0  0  0  0  0  0  0
   16.3004   -0.5372   17.6823 C   0  0  0  0  0  0  0  0  0  0  0  0
   16.3042    0.4951   17.1271 O   0  0  0  0  0  0  0  0  0  0  0  0
   15.2433   -1.6909   17.6688 N   0  0  0  0  0  0  0  0  0  0  0  0
   14.0724   -1.8377   16.9239 C   0  0  0  0  0  0  0  0  0  0  0  0
   13.5741   -0.7667   16.1711 C   0  0  0  0  0  0  0  0  0  0  0  0
   12.3889   -0.9011   15.4455 C   0  0  0  0  0  0  0  0  0  0  0  0
   11.7109   -2.1084   15.4707 C   0  0  0  0  0  0  0  0  0  0  0  0
   10.5545   -2.2369   14.8122 F   0  0  0  0  0  0  0  0  0  0  0  0
   12.1987   -3.1839   16.1997 C   0  0  0  0  0  0  0  0  0  0  0  0
   13.3840   -3.0644   16.9396 C   0  0  0  0  0  0  0  0  0  0  0  0
   13.8680   -4.2530   17.7226 C   0  0  0  0  0  0  0  0  0  0  0  0
   18.4216    0.2654   18.8762 C   0  0  0  0  0  0  0  0  0  0  0  0
   18.7415    0.2817   20.3641 C   0  0  0  0  0  0  0  0  0  0  0  0
   17.4087   -0.0580   20.9946 C   0  0  0  0  0  0  0  0  0  0  0  0
   16.8509   -1.1609   20.1017 C   0  0  0  0  0  0  0  0  0  0  0  0
   17.8041   -2.3588   15.3546 C   0  0  0  0  0  0  0  0  0  0  0  0
   18.1398   -2.0996   14.0153 C   0  0  0  0  0  0  0  0  0  0  0  0
   17.1121   -2.3056   12.9347 C   0  0  0  0  0  0  0  0  0  0  0  0
  1  2  1  0
  2  3  2  0
  3  4  1  0
  4  5  2  0
  5  6  1  0
  6  7  2  0
  6  8  2  0
  6  9  1  0
  9 10  1  0
 10 11  2  0
 10 12  1  0
 12 13  1  0
 13 14  2  0
 14 15  1  0
 15 16  2  0
 16 17  1  0
 16 18  1  0
 18 19  2  0
 19 20  1  0
  9 21  1  0
 21 22  1  0
 22 23  1  0
 23 24  1  0
  5 25  1  0
 25 26  2  0
 26 27  1  0
 26  2  1  0
 24  9  1  0
 19 13  1  0
M  END
>  <ref_mols>  (1163) 
B1396a

>  <gnina_score>  (1163) 
5.101

>  <smina_score_min>  (1163) 
-3.775

>  <ref_pdb>  (1163) 
B1396a

>  <inspiration_score>  (1163) 
None

>  <inchikey>  (1163) 
MGBRSEOHLDEVTJ-UHFFFAOYSA-N

>  <tags>  (1163) 
BulkDock Fragalysis export,openbind_d68ev3c_c2_elabs_scored,openbind_d68ev3c_c2_elabs_scored_4.5plus,openbind_d68ev3c_c2_elabs,openbind_d68ev3c_c2_elabs_scored_5plus,syndirella_product,openbind_d68ev3c_c2_elabs_scored_top80percent,syndirella_placed

>  <smiles>  (1163) 
Cc1ccc(S(=O)(=O)C2(C(=O)Nc3ccc(F)cc3C)CCCC2)cc1C

>  <subsites>  (1163) 
None

>  <rmsd(smina/fragmenstein)>  (1163) 
1.901

>  <alias>  (1163) 
None

>  <energy_score>  (1163) 
-37.629177

>  <HIPPO Pose ID>  (1163) 
95582

>  <distance_score>  (1163) 
0.521442

>  <HIPPO Compound ID>  (1163) 
129478

>  <gnina_score_min>  (1163) 
5.106

>  <name>  (1163) 
P95582

>  <exports>  (1163) 
['/opt/xchem-fragalysis-2/maxwin/BulkDock/OUTPUTS/openbind_d68ev3c_c2_elabs_1LOTQJ3.sdf', '/opt/xchem-fragalysis-2/maxwin/BulkDock/OUTPUTS/openbind_d68ev3c_c2_elabs_1LSYI5W.sdf']

$$$$
P95583
     RDKit          3D

 27 29  0  0  0  0  0  0  0  0999 V2000
   19.7485   -1.3919   12.3367 C   0  0  0  0  0  0  0  0  0  0  0  0
   19.4397   -1.6798   13.7822 C   0  0  0  0  0  0  0  0  0  0  0  0
   18.3310   -2.4815   14.0970 C   0  0  0  0  0  0  0  0  0  0  0  0
   18.0114   -2.7714   15.4233 C   0  0  0  0  0  0  0  0  0  0  0  0
   18.7994   -2.2456   16.4474 C   0  0  0  0  0  0  0  0  0  0  0  0
   18.4313   -2.6420   18.1394 S   0  0  0  0  0  0  0  0  0  0  0  0
   19.6966   -2.9162   18.7938 O   0  0  0  0  0  0  0  0  0  0  0  0
   17.3934   -3.6628   18.1311 O   0  0  0  0  0  0  0  0  0  0  0  0
   17.7104   -1.1946   18.8734 C   0  0  0  0  0  0  0  0  0  0  0  0
   16.6460   -0.6221   17.9176 C   0  0  0  0  0  0  0  0  0  0  0  0
   16.7532    0.4709   17.5054 O   0  0  0  0  0  0  0  0  0  0  0  0
   15.4877   -1.6618   17.7452 N   0  0  0  0  0  0  0  0  0  0  0  0
   14.3209   -1.5991   16.9825 C   0  0  0  0  0  0  0  0  0  0  0  0
   13.9791   -0.3836   16.3843 C   0  0  0  0  0  0  0  0  0  0  0  0
   12.7382   -0.2090   15.7854 C   0  0  0  0  0  0  0  0  0  0  0  0
   11.8344   -1.2601   15.7680 C   0  0  0  0  0  0  0  0  0  0  0  0
    9.8876   -0.8108   15.2368 I   0  0  0  0  0  0  0  0  0  0  0  0
   12.2024   -2.5186   16.2491 C   0  0  0  0  0  0  0  0  0  0  0  0
   13.4473   -2.6979   16.8855 C   0  0  0  0  0  0  0  0  0  0  0  0
   13.7567   -4.0270   17.5209 C   0  0  0  0  0  0  0  0  0  0  0  0
   17.1305   -1.4962   20.2652 C   0  0  0  0  0  0  0  0  0  0  0  0
   17.0435   -0.1377   20.9516 C   0  0  0  0  0  0  0  0  0  0  0  0
   18.1560    0.7095   20.3433 C   0  0  0  0  0  0  0  0  0  0  0  0
   18.7739   -0.1330   19.2268 C   0  0  0  0  0  0  0  0  0  0  0  0
   19.9183   -1.4631   16.1540 C   0  0  0  0  0  0  0  0  0  0  0  0
   20.2415   -1.1640   14.8213 C   0  0  0  0  0  0  0  0  0  0  0  0
   21.4504   -0.3164   14.5294 C   0  0  0  0  0  0  0  0  0  0  0  0
  1  2  1  0
  2  3  2  0
  3  4  1  0
  4  5  2  0
  5  6  1  0
  6  7  2  0
  6  8  2  0
  6  9  1  0
  9 10  1  0
 10 11  2  0
 10 12  1  0
 12 13  1  0
 13 14  2  0
 14 15  1  0
 15 16  2  0
 16 17  1  0
 16 18  1  0
 18 19  2  0
 19 20  1  0
  9 21  1  0
 21 22  1  0
 22 23  1  0
 23 24  1  0
  5 25  1  0
 25 26  2  0
 26 27  1  0
 26  2  1  0
 24  9  1  0
 19 13  1  0
M  END
>  <ref_mols>  (1164) 
B1396a

>  <gnina_score>  (1164) 
5.538

>  <smina_score_min>  (1164) 
-3.29

>  <ref_pdb>  (1164) 
B1396a

>  <inspiration_score>  (1164) 
None

>  <inchikey>  (1164) 
GABMPHBDJUQTDU-UHFFFAOYSA-N

>  <tags>  (1164) 
BulkDock Fragalysis export,openbind_d68ev3c_c2_elabs_scored,openbind_d68ev3c_c2_elabs_scored_4.5plus,openbind_d68ev3c_c2_elabs,openbind_d68ev3c_c2_elabs_scored_5plus,syndirella_product,openbind_d68ev3c_c2_elabs_scored_top80percent,syndirella_placed

>  <smiles>  (1164) 
Cc1ccc(S(=O)(=O)C2(C(=O)Nc3ccc(I)cc3C)CCCC2)cc1C

>  <subsites>  (1164) 
None

>  <rmsd(smina/fragmenstein)>  (1164) 
3.804

>  <alias>  (1164) 
None

>  <energy_score>  (1164) 
-38.16317

>  <HIPPO Pose ID>  (1164) 
95583

>  <distance_score>  (1164) 
0.70695

>  <HIPPO Compound ID>  (1164) 
129479

>  <gnina_score_min>  (1164) 
5.253

>  <name>  (1164) 
P95583

>  <exports>  (1164) 
['/opt/xchem-fragalysis-2/maxwin/BulkDock/OUTPUTS/openbind_d68ev3c_c2_elabs_1LOTQJ3.sdf', '/opt/xchem-fragalysis-2/maxwin/BulkDock/OUTPUTS/openbind_d68ev3c_c2_elabs_1LSYI5W.sdf']

$$$$
P95584
     RDKit          3D

 27 29  0  0  0  0  0  0  0  0999 V2000
   20.3269   -2.0216   12.3557 C   0  0  0  0  0  0  0  0  0  0  0  0
   19.8673   -2.1485   13.7836 C   0  0  0  0  0  0  0  0  0  0  0  0
   20.0483   -1.0676   14.6584 C   0  0  0  0  0  0  0  0  0  0  0  0
   19.6732   -1.1638   15.9980 C   0  0  0  0  0  0  0  0  0  0  0  0
   19.0653   -2.3295   16.4669 C   0  0  0  0  0  0  0  0  0  0  0  0
   18.6116   -2.4533   18.1939 S   0  0  0  0  0  0  0  0  0  0  0  0
   18.4112   -3.8549   18.5133 O   0  0  0  0  0  0  0  0  0  0  0  0
   19.6304   -1.7183   18.9268 O   0  0  0  0  0  0  0  0  0  0  0  0
   17.0332   -1.5527   18.3608 C   0  0  0  0  0  0  0  0  0  0  0  0
   15.9999   -2.2447   17.4392 C   0  0  0  0  0  0  0  0  0  0  0  0
   16.2067   -3.3009   16.9840 O   0  0  0  0  0  0  0  0  0  0  0  0
   14.7258   -1.3472   17.3701 N   0  0  0  0  0  0  0  0  0  0  0  0
   13.5331   -1.5237   16.6741 C   0  0  0  0  0  0  0  0  0  0  0  0
   12.9473   -2.7984   16.5665 C   0  0  0  0  0  0  0  0  0  0  0  0
   13.4049   -3.9931   17.3636 C   0  0  0  0  0  0  0  0  0  0  0  0
   11.8241   -2.9569   15.7417 C   0  0  0  0  0  0  0  0  0  0  0  0
   11.2363   -1.8638   15.1125 C   0  0  0  0  0  0  0  0  0  0  0  0
   11.7652   -0.5905   15.2911 C   0  0  0  0  0  0  0  0  0  0  0  0
   12.9105   -0.4180   16.0705 C   0  0  0  0  0  0  0  0  0  0  0  0
   13.6875    1.5297   16.2114 I   0  0  0  0  0  0  0  0  0  0  0  0
   17.2514   -0.0371   18.1165 C   0  0  0  0  0  0  0  0  0  0  0  0
   16.6915    0.6795   19.3441 C   0  0  0  0  0  0  0  0  0  0  0  0
   16.9064   -0.3144   20.4677 C   0  0  0  0  0  0  0  0  0  0  0  0
   16.5492   -1.6501   19.8312 C   0  0  0  0  0  0  0  0  0  0  0  0
   18.9075   -3.4277   15.6175 C   0  0  0  0  0  0  0  0  0  0  0  0
   19.3224   -3.3524   14.2764 C   0  0  0  0  0  0  0  0  0  0  0  0
   19.2528   -4.5814   13.4101 C   0  0  0  0  0  0  0  0  0  0  0  0
  1  2  1  0
  2  3  2  0
  3  4  1  0
  4  5  2  0
  5  6  1  0
  6  7  2  0
  6  8  2  0
  6  9  1  0
  9 10  1  0
 10 11  2  0
 10 12  1  0
 12 13  1  0
 13 14  2  0
 14 15  1  0
 14 16  1  0
 16 17  2  0
 17 18  1  0
 18 19  2  0
 19 20  1  0
  9 21  1  0
 21 22  1  0
 22 23  1  0
 23 24  1  0
  5 25  1  0
 25 26  2  0
 26 27  1  0
 26  2  1  0
 24  9  1  0
 19 13  1  0
M  END
>  <ref_mols>  (1165) 
B1396a

>  <gnina_score>  (1165) 
5.283

>  <smina_score_min>  (1165) 
-3.432

>  <ref_pdb>  (1165) 
B1396a

>  <inspiration_score>  (1165) 
None

>  <inchikey>  (1165) 
RPXDSGDZRASNFO-UHFFFAOYSA-N

>  <tags>  (1165) 
BulkDock Fragalysis export,openbind_d68ev3c_c2_elabs_scored,openbind_d68ev3c_c2_elabs_scored_4.5plus,openbind_d68ev3c_c2_elabs,openbind_d68ev3c_c2_elabs_scored_5plus,syndirella_product,openbind_d68ev3c_c2_elabs_scored_top80percent,syndirella_placed

>  <smiles>  (1165) 
Cc1ccc(S(=O)(=O)C2(C(=O)Nc3c(C)cccc3I)CCCC2)cc1C

>  <subsites>  (1165) 
None

>  <rmsd(smina/fragmenstein)>  (1165) 
3.056

>  <alias>  (1165) 
None

>  <energy_score>  (1165) 
-42.095409

>  <HIPPO Pose ID>  (1165) 
95584

>  <distance_score>  (1165) 
0.880723

>  <HIPPO Compound ID>  (1165) 
129480

>  <gnina_score_min>  (1165) 
5.265

>  <name>  (1165) 
P95584

>  <exports>  (1165) 
['/opt/xchem-fragalysis-2/maxwin/BulkDock/OUTPUTS/openbind_d68ev3c_c2_elabs_1LOTQJ3.sdf', '/opt/xchem-fragalysis-2/maxwin/BulkDock/OUTPUTS/openbind_d68ev3c_c2_elabs_1LSYI5W.sdf']

$$$$
P95585
     RDKit          3D

 27 29  0  0  0  0  0  0  0  0999 V2000
   19.8327   -1.5906   12.3162 C   0  0  0  0  0  0  0  0  0  0  0  0
   19.4548   -1.7612   13.7639 C   0  0  0  0  0  0  0  0  0  0  0  0
   18.2874   -2.4710   14.0861 C   0  0  0  0  0  0  0  0  0  0  0  0
   17.9019   -2.6505   15.4149 C   0  0  0  0  0  0  0  0  0  0  0  0
   18.6772   -2.0969   16.4345 C   0  0  0  0  0  0  0  0  0  0  0  0
   18.2186   -2.3541   18.1350 S   0  0  0  0  0  0  0  0  0  0  0  0
   19.4506   -2.4418   18.8979 O   0  0  0  0  0  0  0  0  0  0  0  0
   17.2897   -3.4749   18.1607 O   0  0  0  0  0  0  0  0  0  0  0  0
   17.3035   -0.8998   18.6707 C   0  0  0  0  0  0  0  0  0  0  0  0
   16.2588   -0.5487   17.5895 C   0  0  0  0  0  0  0  0  0  0  0  0
   16.3140    0.4663   17.0063 O   0  0  0  0  0  0  0  0  0  0  0  0
   15.2169   -1.7124   17.5010 N   0  0  0  0  0  0  0  0  0  0  0  0
   14.0293   -1.8117   16.7740 C   0  0  0  0  0  0  0  0  0  0  0  0
   13.5698   -0.7313   16.0177 C   0  0  0  0  0  0  0  0  0  0  0  0
   12.3918   -0.8454   15.2866 C   0  0  0  0  0  0  0  0  0  0  0  0
   11.9566    0.1989   14.5697 F   0  0  0  0  0  0  0  0  0  0  0  0
   11.6599   -2.0225   15.2841 C   0  0  0  0  0  0  0  0  0  0  0  0
   12.1123   -3.1028   16.0379 C   0  0  0  0  0  0  0  0  0  0  0  0
   13.2941   -3.0111   16.7956 C   0  0  0  0  0  0  0  0  0  0  0  0
   13.7338   -4.2028   17.6034 C   0  0  0  0  0  0  0  0  0  0  0  0
   16.6287   -1.1603   20.0480 C   0  0  0  0  0  0  0  0  0  0  0  0
   17.1007   -0.0498   20.9800 C   0  0  0  0  0  0  0  0  0  0  0  0
   18.4721    0.3083   20.4515 C   0  0  0  0  0  0  0  0  0  0  0  0
   18.2628    0.2904   18.9442 C   0  0  0  0  0  0  0  0  0  0  0  0
   19.8593   -1.4158   16.1337 C   0  0  0  0  0  0  0  0  0  0  0  0
   20.2518   -1.2310   14.7986 C   0  0  0  0  0  0  0  0  0  0  0  0
   21.5252   -0.4858   14.5016 C   0  0  0  0  0  0  0  0  0  0  0  0
  1  2  1  0
  2  3  2  0
  3  4  1  0
  4  5  2  0
  5  6  1  0
  6  7  2  0
  6  8  2  0
  6  9  1  0
  9 10  1  0
 10 11  2  0
 10 12  1  0
 12 13  1  0
 13 14  2  0
 14 15  1  0
 15 16  1  0
 15 17  2  0
 17 18  1  0
 18 19  2  0
 19 20  1  0
  9 21  1  0
 21 22  1  0
 22 23  1  0
 23 24  1  0
  5 25  1  0
 25 26  2  0
 26 27  1  0
 26  2  1  0
 24  9  1  0
 19 13  1  0
M  END
>  <ref_mols>  (1166) 
B1396a

>  <gnina_score>  (1166) 
5.21

>  <smina_score_min>  (1166) 
-3.956

>  <ref_pdb>  (1166) 
B1396a

>  <inspiration_score>  (1166) 
None

>  <inchikey>  (1166) 
YHBPSQXUOBZWSF-UHFFFAOYSA-N

>  <tags>  (1166) 
BulkDock Fragalysis export,openbind_d68ev3c_c2_elabs_scored,openbind_d68ev3c_c2_elabs_scored_4.5plus,openbind_d68ev3c_c2_elabs,openbind_d68ev3c_c2_elabs_scored_5plus,syndirella_product,openbind_d68ev3c_c2_elabs_scored_top80percent,syndirella_placed

>  <smiles>  (1166) 
Cc1ccc(S(=O)(=O)C2(C(=O)Nc3cc(F)ccc3C)CCCC2)cc1C

>  <subsites>  (1166) 
None

>  <rmsd(smina/fragmenstein)>  (1166) 
2.159

>  <alias>  (1166) 
None

>  <energy_score>  (1166) 
-45.049477

>  <HIPPO Pose ID>  (1166) 
95585

>  <distance_score>  (1166) 
0.423593

>  <HIPPO Compound ID>  (1166) 
129481

>  <gnina_score_min>  (1166) 
5.206

>  <name>  (1166) 
P95585

>  <exports>  (1166) 
['/opt/xchem-fragalysis-2/maxwin/BulkDock/OUTPUTS/openbind_d68ev3c_c2_elabs_1LOTQJ3.sdf', '/opt/xchem-fragalysis-2/maxwin/BulkDock/OUTPUTS/openbind_d68ev3c_c2_elabs_1LSYI5W.sdf']

$$$$
P95586
     RDKit          3D

 27 29  0  0  0  0  0  0  0  0999 V2000
   13.7873   -4.1043   17.5434 C   0  0  0  0  0  0  0  0  0  0  0  0
   13.2583   -2.9173   16.7743 C   0  0  0  0  0  0  0  0  0  0  0  0
   12.1028   -3.1076   15.9945 C   0  0  0  0  0  0  0  0  0  0  0  0
   11.5542   -2.0672   15.2580 C   0  0  0  0  0  0  0  0  0  0  0  0
   12.1299   -0.8071   15.3338 C   0  0  0  0  0  0  0  0  0  0  0  0
   13.2774   -0.5851   16.1144 C   0  0  0  0  0  0  0  0  0  0  0  0
   13.7056    1.2550   16.3366 Br  0  0  0  0  0  0  0  0  0  0  0  0
   13.8950   -1.6503   16.7997 C   0  0  0  0  0  0  0  0  0  0  0  0
   15.0978   -1.5773   17.5296 N   0  0  0  0  0  0  0  0  0  0  0  0
   16.2826   -0.5602   17.4353 C   0  0  0  0  0  0  0  0  0  0  0  0
   16.4687    0.3207   16.6849 O   0  0  0  0  0  0  0  0  0  0  0  0
   17.2969   -0.8267   18.5823 C   0  0  0  0  0  0  0  0  0  0  0  0
   18.1840   -2.3395   18.1322 S   0  0  0  0  0  0  0  0  0  0  0  0
   19.3882   -2.4346   18.9380 O   0  0  0  0  0  0  0  0  0  0  0  0
   17.2279   -3.4350   18.1597 O   0  0  0  0  0  0  0  0  0  0  0  0
   18.7152   -2.1473   16.4407 C   0  0  0  0  0  0  0  0  0  0  0  0
   17.9577   -2.7039   15.4018 C   0  0  0  0  0  0  0  0  0  0  0  0
   18.3935   -2.5563   14.0831 C   0  0  0  0  0  0  0  0  0  0  0  0
   19.5797   -1.8775   13.8206 C   0  0  0  0  0  0  0  0  0  0  0  0
   19.9931   -1.7371   12.5550 F   0  0  0  0  0  0  0  0  0  0  0  0
   20.3480   -1.3487   14.8517 C   0  0  0  0  0  0  0  0  0  0  0  0
   19.9231   -1.4927   16.1723 C   0  0  0  0  0  0  0  0  0  0  0  0
   18.3048    0.3572   18.6825 C   0  0  0  0  0  0  0  0  0  0  0  0
   17.6813    1.6429   19.2370 C   0  0  0  0  0  0  0  0  0  0  0  0
   16.9825    1.4146   20.5703 C   0  0  0  0  0  0  0  0  0  0  0  0
   15.9838    0.2679   20.4897 C   0  0  0  0  0  0  0  0  0  0  0  0
   16.6505   -1.0076   19.9786 C   0  0  0  0  0  0  0  0  0  0  0  0
  1  2  1  0
  2  3  2  0
  3  4  1  0
  4  5  2  0
  5  6  1  0
  6  7  1  0
  6  8  2  0
  8  9  1  0
  9 10  1  0
 10 11  2  0
 10 12  1  0
 12 13  1  0
 13 14  2  0
 13 15  2  0
 13 16  1  0
 16 17  2  0
 17 18  1  0
 18 19  2  0
 19 20  1  0
 19 21  1  0
 21 22  2  0
 12 23  1  0
 23 24  1  0
 24 25  1  0
 25 26  1  0
 26 27  1  0
  8  2  1  0
 27 12  1  0
 22 16  1  0
M  END
>  <ref_mols>  (1167) 
B1396a

>  <gnina_score>  (1167) 
5.193

>  <smina_score_min>  (1167) 
-3.944

>  <ref_pdb>  (1167) 
B1396a

>  <inspiration_score>  (1167) 
None

>  <inchikey>  (1167) 
WHYDOZNJJHLESL-UHFFFAOYSA-N

>  <tags>  (1167) 
BulkDock Fragalysis export,openbind_d68ev3c_c2_elabs_scored,openbind_d68ev3c_c2_elabs_scored_4.5plus,openbind_d68ev3c_c2_elabs,openbind_d68ev3c_c2_elabs_scored_5plus,syndirella_product,openbind_d68ev3c_c2_elabs_scored_top80percent,syndirella_placed

>  <smiles>  (1167) 
Cc1cccc(Br)c1NC(=O)C1(S(=O)(=O)c2ccc(F)cc2)CCCCC1

>  <subsites>  (1167) 
None

>  <rmsd(smina/fragmenstein)>  (1167) 
2.097

>  <alias>  (1167) 
None

>  <energy_score>  (1167) 
-40.043593

>  <HIPPO Pose ID>  (1167) 
95586

>  <distance_score>  (1167) 
0.377473

>  <HIPPO Compound ID>  (1167) 
129482

>  <gnina_score_min>  (1167) 
5.155

>  <name>  (1167) 
P95586

>  <exports>  (1167) 
['/opt/xchem-fragalysis-2/maxwin/BulkDock/OUTPUTS/openbind_d68ev3c_c2_elabs_1LOTQJ3.sdf', '/opt/xchem-fragalysis-2/maxwin/BulkDock/OUTPUTS/openbind_d68ev3c_c2_elabs_1LSYI5W.sdf']

$$$$
P95588
     RDKit          3D

 27 29  0  0  0  0  0  0  0  0999 V2000
   13.9714   -4.1440   17.7146 C   0  0  0  0  0  0  0  0  0  0  0  0
   13.4051   -2.9867   16.9304 C   0  0  0  0  0  0  0  0  0  0  0  0
   12.2369   -3.2266   16.1917 C   0  0  0  0  0  0  0  0  0  0  0  0
   11.6620   -2.2199   15.4416 C   0  0  0  0  0  0  0  0  0  0  0  0
   10.5342   -2.4679   14.7683 F   0  0  0  0  0  0  0  0  0  0  0  0
   12.2062   -0.9499   15.4316 C   0  0  0  0  0  0  0  0  0  0  0  0
   13.3685   -0.6673   16.1709 C   0  0  0  0  0  0  0  0  0  0  0  0
   13.7431    1.0819   16.2430 S   0  0  0  0  0  0  0  0  0  0  0  0
   14.0092   -1.7011   16.9004 C   0  0  0  0  0  0  0  0  0  0  0  0
   15.1941   -1.5511   17.6524 N   0  0  0  0  0  0  0  0  0  0  0  0
   16.3770   -0.5371   17.4940 C   0  0  0  0  0  0  0  0  0  0  0  0
   16.5052    0.3717   16.7645 O   0  0  0  0  0  0  0  0  0  0  0  0
   17.4392   -0.8318   18.5793 C   0  0  0  0  0  0  0  0  0  0  0  0
   18.2700   -2.3547   18.1231 S   0  0  0  0  0  0  0  0  0  0  0  0
   19.4809   -2.4893   18.9114 O   0  0  0  0  0  0  0  0  0  0  0  0
   17.2809   -3.4198   18.1580 O   0  0  0  0  0  0  0  0  0  0  0  0
   18.7743   -2.1527   16.4262 C   0  0  0  0  0  0  0  0  0  0  0  0
   19.9468   -1.4467   16.1401 C   0  0  0  0  0  0  0  0  0  0  0  0
   20.3464   -1.2842   14.8125 C   0  0  0  0  0  0  0  0  0  0  0  0
   19.5877   -1.8425   13.7850 C   0  0  0  0  0  0  0  0  0  0  0  0
   20.0865   -1.6373   12.1522 Cl  0  0  0  0  0  0  0  0  0  0  0  0
   18.4324   -2.5702   14.0722 C   0  0  0  0  0  0  0  0  0  0  0  0
   18.0236   -2.7357   15.3987 C   0  0  0  0  0  0  0  0  0  0  0  0
   18.4593    0.3372   18.6977 C   0  0  0  0  0  0  0  0  0  0  0  0
   18.0190    1.1258   19.9219 C   0  0  0  0  0  0  0  0  0  0  0  0
   17.5961    0.0319   20.8795 C   0  0  0  0  0  0  0  0  0  0  0  0
   16.8091   -0.9265   19.9939 C   0  0  0  0  0  0  0  0  0  0  0  0
  1  2  1  0
  2  3  2  0
  3  4  1  0
  4  5  1  0
  4  6  2  0
  6  7  1  0
  7  8  1  0
  7  9  2  0
  9 10  1  0
 10 11  1  0
 11 12  2  0
 11 13  1  0
 13 14  1  0
 14 15  2  0
 14 16  2  0
 14 17  1  0
 17 18  2  0
 18 19  1  0
 19 20  2  0
 20 21  1  0
 20 22  1  0
 22 23  2  0
 13 24  1  0
 24 25  1  0
 25 26  1  0
 26 27  1  0
  9  2  1  0
 27 13  1  0
 23 17  1  0
M  END
>  <ref_mols>  (1168) 
B1396a

>  <gnina_score>  (1168) 
5.505

>  <smina_score_min>  (1168) 
-3.83

>  <ref_pdb>  (1168) 
B1396a

>  <inspiration_score>  (1168) 
None

>  <inchikey>  (1168) 
WHRWOTFAXNWOLY-UHFFFAOYSA-N

>  <tags>  (1168) 
BulkDock Fragalysis export,openbind_d68ev3c_c2_elabs_scored,openbind_d68ev3c_c2_elabs_scored_4.5plus,openbind_d68ev3c_c2_elabs,openbind_d68ev3c_c2_elabs_scored_5plus,syndirella_product,openbind_d68ev3c_c2_elabs_scored_top80percent,syndirella_placed

>  <smiles>  (1168) 
Cc1cc(F)cc(S)c1NC(=O)C1(S(=O)(=O)c2ccc(Cl)cc2)CCCC1

>  <subsites>  (1168) 
None

>  <rmsd(smina/fragmenstein)>  (1168) 
1.648

>  <alias>  (1168) 
None

>  <energy_score>  (1168) 
-39.742927

>  <HIPPO Pose ID>  (1168) 
95588

>  <distance_score>  (1168) 
0.396805

>  <HIPPO Compound ID>  (1168) 
129484

>  <gnina_score_min>  (1168) 
5.39

>  <name>  (1168) 
P95588

>  <exports>  (1168) 
['/opt/xchem-fragalysis-2/maxwin/BulkDock/OUTPUTS/openbind_d68ev3c_c2_elabs_1LOTQJ3.sdf', '/opt/xchem-fragalysis-2/maxwin/BulkDock/OUTPUTS/openbind_d68ev3c_c2_elabs_1LSYI5W.sdf']

$$$$
P95611
     RDKit          3D

 27 29  0  0  0  0  0  0  0  0999 V2000
   13.8179   -4.0085   17.5584 C   0  0  0  0  0  0  0  0  0  0  0  0
   13.3370   -2.7849   16.8216 C   0  0  0  0  0  0  0  0  0  0  0  0
   12.2139   -2.9105   15.9908 C   0  0  0  0  0  0  0  0  0  0  0  0
   11.6069   -4.0927   15.8722 F   0  0  0  0  0  0  0  0  0  0  0  0
   11.6894   -1.8439   15.2798 C   0  0  0  0  0  0  0  0  0  0  0  0
   12.2764   -0.5970   15.4196 C   0  0  0  0  0  0  0  0  0  0  0  0
   13.4022   -0.4288   16.2422 C   0  0  0  0  0  0  0  0  0  0  0  0
   13.8481    1.2182   16.5111 Cl  0  0  0  0  0  0  0  0  0  0  0  0
   13.9815   -1.5294   16.9137 C   0  0  0  0  0  0  0  0  0  0  0  0
   15.1513   -1.4634   17.6987 N   0  0  0  0  0  0  0  0  0  0  0  0
   16.3741   -0.4864   17.6214 C   0  0  0  0  0  0  0  0  0  0  0  0
   16.5526    0.4541   16.9446 O   0  0  0  0  0  0  0  0  0  0  0  0
   17.4154   -0.8745   18.7077 C   0  0  0  0  0  0  0  0  0  0  0  0
   18.2146   -2.3829   18.1532 S   0  0  0  0  0  0  0  0  0  0  0  0
   19.4374   -2.5659   18.9150 O   0  0  0  0  0  0  0  0  0  0  0  0
   17.2095   -3.4345   18.1735 O   0  0  0  0  0  0  0  0  0  0  0  0
   18.6920   -2.1370   16.4579 C   0  0  0  0  0  0  0  0  0  0  0  0
   17.9153   -2.6802   15.4288 C   0  0  0  0  0  0  0  0  0  0  0  0
   18.3123   -2.5003   14.1030 C   0  0  0  0  0  0  0  0  0  0  0  0
   19.4832   -1.7998   13.8120 C   0  0  0  0  0  0  0  0  0  0  0  0
   20.2670   -1.2825   14.8430 C   0  0  0  0  0  0  0  0  0  0  0  0
   19.8793   -1.4579   16.1711 C   0  0  0  0  0  0  0  0  0  0  0  0
   16.7991   -1.0980   20.1036 C   0  0  0  0  0  0  0  0  0  0  0  0
   16.1086    0.1583   20.6204 C   0  0  0  0  0  0  0  0  0  0  0  0
   16.5936    1.3362   19.9870 O   0  0  0  0  0  0  0  0  0  0  0  0
   18.0064    1.3477   19.8367 C   0  0  0  0  0  0  0  0  0  0  0  0
   18.4664    0.2604   18.8650 C   0  0  0  0  0  0  0  0  0  0  0  0
  1  2  1  0
  2  3  2  0
  3  4  1  0
  3  5  1  0
  5  6  2  0
  6  7  1  0
  7  8  1  0
  7  9  2  0
  9 10  1  0
 10 11  1  0
 11 12  2  0
 11 13  1  0
 13 14  1  0
 14 15  2  0
 14 16  2  0
 14 17  1  0
 17 18  2  0
 18 19  1  0
 19 20  2  0
 20 21  1  0
 21 22  2  0
 13 23  1  0
 23 24  1  0
 24 25  1  0
 25 26  1  0
 26 27  1  0
  9  2  1  0
 27 13  1  0
 22 17  1  0
M  END
>  <ref_mols>  (1169) 
B1396a

>  <gnina_score>  (1169) 
5.036

>  <smina_score_min>  (1169) 
-3.917

>  <ref_pdb>  (1169) 
B1396a

>  <inspiration_score>  (1169) 
None

>  <inchikey>  (1169) 
QELJMPOIZFGPBZ-UHFFFAOYSA-N

>  <tags>  (1169) 
BulkDock Fragalysis export,openbind_d68ev3c_c2_elabs_scored,openbind_d68ev3c_c2_elabs_scored_4.5plus,openbind_d68ev3c_c2_elabs,openbind_d68ev3c_c2_elabs_scored_5plus,syndirella_product,openbind_d68ev3c_c2_elabs_scored_top80percent,syndirella_placed

>  <smiles>  (1169) 
Cc1c(F)ccc(Cl)c1NC(=O)C1(S(=O)(=O)c2ccccc2)CCOCC1

>  <subsites>  (1169) 
None

>  <rmsd(smina/fragmenstein)>  (1169) 
1.916

>  <alias>  (1169) 
None

>  <energy_score>  (1169) 
-44.188069

>  <HIPPO Pose ID>  (1169) 
95611

>  <distance_score>  (1169) 
0.475788

>  <HIPPO Compound ID>  (1169) 
129512

>  <gnina_score_min>  (1169) 
5.002

>  <name>  (1169) 
P95611

>  <exports>  (1169) 
['/opt/xchem-fragalysis-2/maxwin/BulkDock/OUTPUTS/openbind_d68ev3c_c2_elabs_1LOTQJ3.sdf', '/opt/xchem-fragalysis-2/maxwin/BulkDock/OUTPUTS/openbind_d68ev3c_c2_elabs_1LSYI5W.sdf']

$$$$
P95639
     RDKit          3D

 27 29  0  0  0  0  0  0  0  0999 V2000
   19.8205   -1.7123   12.2875 C   0  0  0  0  0  0  0  0  0  0  0  0
   19.4260   -1.8478   13.7299 C   0  0  0  0  0  0  0  0  0  0  0  0
   18.2263   -2.4824   14.0759 C   0  0  0  0  0  0  0  0  0  0  0  0
   17.8664   -2.6400   15.4162 C   0  0  0  0  0  0  0  0  0  0  0  0
   18.7075   -2.1445   16.4166 C   0  0  0  0  0  0  0  0  0  0  0  0
   18.2653   -2.3467   18.1295 S   0  0  0  0  0  0  0  0  0  0  0  0
   17.2926   -3.4264   18.1966 O   0  0  0  0  0  0  0  0  0  0  0  0
   19.5040   -2.4641   18.8767 O   0  0  0  0  0  0  0  0  0  0  0  0
   17.4222   -0.8393   18.6338 C   0  0  0  0  0  0  0  0  0  0  0  0
   16.3577   -0.5211   17.5616 C   0  0  0  0  0  0  0  0  0  0  0  0
   16.4776    0.4098   16.8585 O   0  0  0  0  0  0  0  0  0  0  0  0
   15.1864   -1.5537   17.6863 N   0  0  0  0  0  0  0  0  0  0  0  0
   14.0058   -1.6967   16.9250 C   0  0  0  0  0  0  0  0  0  0  0  0
   13.4076   -2.9862   16.9370 C   0  0  0  0  0  0  0  0  0  0  0  0
   13.9760   -4.1500   17.7114 C   0  0  0  0  0  0  0  0  0  0  0  0
   12.2434   -3.2245   16.1916 C   0  0  0  0  0  0  0  0  0  0  0  0
   11.6672   -2.2133   15.4491 C   0  0  0  0  0  0  0  0  0  0  0  0
   10.5416   -2.4583   14.7711 F   0  0  0  0  0  0  0  0  0  0  0  0
   12.2062   -0.9411   15.4539 C   0  0  0  0  0  0  0  0  0  0  0  0
   13.3631   -0.6591   16.2027 C   0  0  0  0  0  0  0  0  0  0  0  0
   13.7225    1.0928   16.2917 S   0  0  0  0  0  0  0  0  0  0  0  0
   16.8151   -0.9963   20.0565 C   0  0  0  0  0  0  0  0  0  0  0  0
   17.4214    0.1054   20.9207 C   0  0  0  0  0  0  0  0  0  0  0  0
   18.7577    0.3928   20.2737 C   0  0  0  0  0  0  0  0  0  0  0  0
   18.4270    0.3337   18.7901 C   0  0  0  0  0  0  0  0  0  0  0  0
   19.9281   -1.5524   16.0855 C   0  0  0  0  0  0  0  0  0  0  0  0
   20.2810   -1.4007   14.7438 C   0  0  0  0  0  0  0  0  0  0  0  0
  1  2  1  0
  2  3  2  0
  3  4  1  0
  4  5  2  0
  5  6  1  0
  6  7  2  0
  6  8  2  0
  6  9  1  0
  9 10  1  0
 10 11  2  0
 10 12  1  0
 12 13  1  0
 13 14  2  0
 14 15  1  0
 14 16  1  0
 16 17  2  0
 17 18  1  0
 17 19  1  0
 19 20  2  0
 20 21  1  0
  9 22  1  0
 22 23  1  0
 23 24  1  0
 24 25  1  0
  5 26  1  0
 26 27  2  0
 27  2  1  0
 25  9  1  0
 20 13  1  0
M  END
>  <ref_mols>  (1170) 
B1396a

>  <gnina_score>  (1170) 
5.357

>  <smina_score_min>  (1170) 
-3.821

>  <ref_pdb>  (1170) 
B1396a

>  <inspiration_score>  (1170) 
None

>  <inchikey>  (1170) 
JVWZDXCCEXXYAL-UHFFFAOYSA-N

>  <tags>  (1170) 
BulkDock Fragalysis export,openbind_d68ev3c_c2_elabs_scored,openbind_d68ev3c_c2_elabs_scored_4.5plus,openbind_d68ev3c_c2_elabs,openbind_d68ev3c_c2_elabs_scored_5plus,syndirella_product,openbind_d68ev3c_c2_elabs_scored_top80percent,syndirella_placed

>  <smiles>  (1170) 
Cc1ccc(S(=O)(=O)C2(C(=O)Nc3c(C)cc(F)cc3S)CCCC2)cc1

>  <subsites>  (1170) 
None

>  <rmsd(smina/fragmenstein)>  (1170) 
1.648

>  <alias>  (1170) 
None

>  <energy_score>  (1170) 
-41.919293

>  <HIPPO Pose ID>  (1170) 
95639

>  <distance_score>  (1170) 
0.425872

>  <HIPPO Compound ID>  (1170) 
129542

>  <gnina_score_min>  (1170) 
5.295

>  <name>  (1170) 
P95639

>  <exports>  (1170) 
['/opt/xchem-fragalysis-2/maxwin/BulkDock/OUTPUTS/openbind_d68ev3c_c2_elabs_1LOTQJ3.sdf', '/opt/xchem-fragalysis-2/maxwin/BulkDock/OUTPUTS/openbind_d68ev3c_c2_elabs_1LSYI5W.sdf']

$$$$
P95640
     RDKit          3D

 27 29  0  0  0  0  0  0  0  0999 V2000
   20.0228   -1.7265   12.3321 C   0  0  0  0  0  0  0  0  0  0  0  0
   19.5852   -1.8644   13.7618 C   0  0  0  0  0  0  0  0  0  0  0  0
   20.3363   -1.2857   14.7917 C   0  0  0  0  0  0  0  0  0  0  0  0
   19.9464   -1.4363   16.1229 C   0  0  0  0  0  0  0  0  0  0  0  0
   18.7933   -2.1631   16.4251 C   0  0  0  0  0  0  0  0  0  0  0  0
   18.2937   -2.3405   18.1228 S   0  0  0  0  0  0  0  0  0  0  0  0
   19.5039   -2.4488   18.9171 O   0  0  0  0  0  0  0  0  0  0  0  0
   17.3147   -3.4156   18.1822 O   0  0  0  0  0  0  0  0  0  0  0  0
   17.4446   -0.8191   18.5520 C   0  0  0  0  0  0  0  0  0  0  0  0
   16.3893   -0.5436   17.4566 C   0  0  0  0  0  0  0  0  0  0  0  0
   16.5064    0.3646   16.7253 O   0  0  0  0  0  0  0  0  0  0  0  0
   15.2509   -1.6145   17.5704 N   0  0  0  0  0  0  0  0  0  0  0  0
   14.0219   -1.7186   16.8889 C   0  0  0  0  0  0  0  0  0  0  0  0
   13.4040   -2.9957   16.9034 C   0  0  0  0  0  0  0  0  0  0  0  0
   13.9802   -4.1746   17.6473 C   0  0  0  0  0  0  0  0  0  0  0  0
   12.2147   -3.2014   16.1872 C   0  0  0  0  0  0  0  0  0  0  0  0
   11.6311   -2.1656   15.4805 C   0  0  0  0  0  0  0  0  0  0  0  0
   10.4822   -2.3816   14.8323 F   0  0  0  0  0  0  0  0  0  0  0  0
   12.1847   -0.9007   15.4963 C   0  0  0  0  0  0  0  0  0  0  0  0
   13.3635   -0.6651   16.2154 C   0  0  0  0  0  0  0  0  0  0  0  0
   13.7788    1.0043   16.3656 Cl  0  0  0  0  0  0  0  0  0  0  0  0
   16.7941   -0.9057   19.9580 C   0  0  0  0  0  0  0  0  0  0  0  0
   17.5395    0.0906   20.8384 C   0  0  0  0  0  0  0  0  0  0  0  0
   17.9684    1.1697   19.8663 C   0  0  0  0  0  0  0  0  0  0  0  0
   18.4498    0.3609   18.6712 C   0  0  0  0  0  0  0  0  0  0  0  0
   18.0559   -2.7816   15.4118 C   0  0  0  0  0  0  0  0  0  0  0  0
   18.4546   -2.6266   14.0824 C   0  0  0  0  0  0  0  0  0  0  0  0
  1  2  1  0
  2  3  2  0
  3  4  1  0
  4  5  2  0
  5  6  1  0
  6  7  2  0
  6  8  2  0
  6  9  1  0
  9 10  1  0
 10 11  2  0
 10 12  1  0
 12 13  1  0
 13 14  2  0
 14 15  1  0
 14 16  1  0
 16 17  2  0
 17 18  1  0
 17 19  1  0
 19 20  2  0
 20 21  1  0
  9 22  1  0
 22 23  1  0
 23 24  1  0
 24 25  1  0
  5 26  1  0
 26 27  2  0
 27  2  1  0
 25  9  1  0
 20 13  1  0
M  END
>  <ref_mols>  (1171) 
B1396a

>  <gnina_score>  (1171) 
5.395

>  <smina_score_min>  (1171) 
-3.819

>  <ref_pdb>  (1171) 
B1396a

>  <inspiration_score>  (1171) 
None

>  <inchikey>  (1171) 
YDJMKAPMNLABPG-UHFFFAOYSA-N

>  <tags>  (1171) 
BulkDock Fragalysis export,openbind_d68ev3c_c2_elabs_scored,openbind_d68ev3c_c2_elabs_scored_4.5plus,openbind_d68ev3c_c2_elabs,openbind_d68ev3c_c2_elabs_scored_5plus,syndirella_product,openbind_d68ev3c_c2_elabs_scored_top80percent,syndirella_placed

>  <smiles>  (1171) 
Cc1ccc(S(=O)(=O)C2(C(=O)Nc3c(C)cc(F)cc3Cl)CCCC2)cc1

>  <subsites>  (1171) 
None

>  <rmsd(smina/fragmenstein)>  (1171) 
1.45

>  <alias>  (1171) 
None

>  <energy_score>  (1171) 
-40.078684

>  <HIPPO Pose ID>  (1171) 
95640

>  <distance_score>  (1171) 
0.380045

>  <HIPPO Compound ID>  (1171) 
129544

>  <gnina_score_min>  (1171) 
5.296

>  <name>  (1171) 
P95640

>  <exports>  (1171) 
['/opt/xchem-fragalysis-2/maxwin/BulkDock/OUTPUTS/openbind_d68ev3c_c2_elabs_1LOTQJ3.sdf', '/opt/xchem-fragalysis-2/maxwin/BulkDock/OUTPUTS/openbind_d68ev3c_c2_elabs_1LSYI5W.sdf']

$$$$
P95642
     RDKit          3D

 27 29  0  0  0  0  0  0  0  0999 V2000
   19.9837   -1.7222   12.3381 C   0  0  0  0  0  0  0  0  0  0  0  0
   19.5302   -1.8657   13.7623 C   0  0  0  0  0  0  0  0  0  0  0  0
   20.2953   -1.3334   14.8067 C   0  0  0  0  0  0  0  0  0  0  0  0
   19.8883   -1.4893   16.1321 C   0  0  0  0  0  0  0  0  0  0  0  0
   18.7050   -2.1756   16.4138 C   0  0  0  0  0  0  0  0  0  0  0  0
   18.1900   -2.3612   18.1051 S   0  0  0  0  0  0  0  0  0  0  0  0
   17.1876   -3.4141   18.1502 O   0  0  0  0  0  0  0  0  0  0  0  0
   19.3961   -2.4993   18.9015 O   0  0  0  0  0  0  0  0  0  0  0  0
   17.3745   -0.8387   18.5467 C   0  0  0  0  0  0  0  0  0  0  0  0
   16.3228   -0.5216   17.4577 C   0  0  0  0  0  0  0  0  0  0  0  0
   16.4780    0.3904   16.7377 O   0  0  0  0  0  0  0  0  0  0  0  0
   15.1116   -1.5043   17.6031 N   0  0  0  0  0  0  0  0  0  0  0  0
   13.9247   -1.6139   16.8466 C   0  0  0  0  0  0  0  0  0  0  0  0
   13.3073   -2.8927   16.8099 C   0  0  0  0  0  0  0  0  0  0  0  0
   13.8450   -4.0774   17.5773 C   0  0  0  0  0  0  0  0  0  0  0  0
   12.1629   -3.1013   16.0165 C   0  0  0  0  0  0  0  0  0  0  0  0
   11.6090   -2.0665   15.2774 C   0  0  0  0  0  0  0  0  0  0  0  0
   12.1669   -0.8020   15.3687 C   0  0  0  0  0  0  0  0  0  0  0  0
   11.5538    0.1958   14.7125 F   0  0  0  0  0  0  0  0  0  0  0  0
   13.2990   -0.5525   16.1595 C   0  0  0  0  0  0  0  0  0  0  0  0
   13.7016    1.2902   16.4177 Br  0  0  0  0  0  0  0  0  0  0  0  0
   18.3810    0.3240   18.6928 C   0  0  0  0  0  0  0  0  0  0  0  0
   17.6814    1.3492   19.5847 C   0  0  0  0  0  0  0  0  0  0  0  0
   16.6194    0.5783   20.3619 C   0  0  0  0  0  0  0  0  0  0  0  0
   16.7968   -0.8849   19.9700 C   0  0  0  0  0  0  0  0  0  0  0  0
   17.9521   -2.7485   15.3860 C   0  0  0  0  0  0  0  0  0  0  0  0
   18.3671   -2.5870   14.0622 C   0  0  0  0  0  0  0  0  0  0  0  0
  1  2  1  0
  2  3  2  0
  3  4  1  0
  4  5  2  0
  5  6  1  0
  6  7  2  0
  6  8  2  0
  6  9  1  0
  9 10  1  0
 10 11  2  0
 10 12  1  0
 12 13  1  0
 13 14  2  0
 14 15  1  0
 14 16  1  0
 16 17  2  0
 17 18  1  0
 18 19  1  0
 18 20  2  0
 20 21  1  0
  9 22  1  0
 22 23  1  0
 23 24  1  0
 24 25  1  0
  5 26  1  0
 26 27  2  0
 27  2  1  0
 25  9  1  0
 20 13  1  0
M  END
>  <ref_mols>  (1172) 
B1396a

>  <gnina_score>  (1172) 
5.262

>  <smina_score_min>  (1172) 
-4.147

>  <ref_pdb>  (1172) 
B1396a

>  <inspiration_score>  (1172) 
None

>  <inchikey>  (1172) 
WJKRPLAXBRUFRI-UHFFFAOYSA-N

>  <tags>  (1172) 
BulkDock Fragalysis export,openbind_d68ev3c_c2_elabs_scored,openbind_d68ev3c_c2_elabs_scored_4.5plus,openbind_d68ev3c_c2_elabs,openbind_d68ev3c_c2_elabs_scored_5plus,syndirella_product,openbind_d68ev3c_c2_elabs_scored_top80percent,syndirella_placed

>  <smiles>  (1172) 
Cc1ccc(S(=O)(=O)C2(C(=O)Nc3c(C)ccc(F)c3Br)CCCC2)cc1

>  <subsites>  (1172) 
None

>  <rmsd(smina/fragmenstein)>  (1172) 
2.142

>  <alias>  (1172) 
None

>  <energy_score>  (1172) 
-40.533439

>  <HIPPO Pose ID>  (1172) 
95642

>  <distance_score>  (1172) 
0.392613

>  <HIPPO Compound ID>  (1172) 
129547

>  <gnina_score_min>  (1172) 
5.197

>  <name>  (1172) 
P95642

>  <exports>  (1172) 
['/opt/xchem-fragalysis-2/maxwin/BulkDock/OUTPUTS/openbind_d68ev3c_c2_elabs_1LOTQJ3.sdf', '/opt/xchem-fragalysis-2/maxwin/BulkDock/OUTPUTS/openbind_d68ev3c_c2_elabs_1LSYI5W.sdf']

$$$$
P95646
     RDKit          3D

 27 29  0  0  0  0  0  0  0  0999 V2000
   19.9668   -1.6530   12.3504 C   0  0  0  0  0  0  0  0  0  0  0  0
   19.5635   -1.8564   13.7824 C   0  0  0  0  0  0  0  0  0  0  0  0
   20.3112   -1.2825   14.8176 C   0  0  0  0  0  0  0  0  0  0  0  0
   19.9190   -1.4419   16.1474 C   0  0  0  0  0  0  0  0  0  0  0  0
   18.7556   -2.1552   16.4414 C   0  0  0  0  0  0  0  0  0  0  0  0
   18.2555   -2.3509   18.1373 S   0  0  0  0  0  0  0  0  0  0  0  0
   19.4650   -2.5147   18.9228 O   0  0  0  0  0  0  0  0  0  0  0  0
   17.2429   -3.3953   18.1749 O   0  0  0  0  0  0  0  0  0  0  0  0
   17.4549   -0.8150   18.6063 C   0  0  0  0  0  0  0  0  0  0  0  0
   16.4228   -0.4671   17.5101 C   0  0  0  0  0  0  0  0  0  0  0  0
   16.5857    0.4560   16.8063 O   0  0  0  0  0  0  0  0  0  0  0  0
   15.2429   -1.4967   17.5765 N   0  0  0  0  0  0  0  0  0  0  0  0
   14.0213   -1.5350   16.8736 C   0  0  0  0  0  0  0  0  0  0  0  0
   13.4168   -0.4313   16.2314 C   0  0  0  0  0  0  0  0  0  0  0  0
   13.8707    1.2149   16.4923 Cl  0  0  0  0  0  0  0  0  0  0  0  0
   12.2600   -0.5961   15.4517 C   0  0  0  0  0  0  0  0  0  0  0  0
   11.6669   -1.8422   15.3291 C   0  0  0  0  0  0  0  0  0  0  0  0
   12.2121   -2.9099   16.0230 C   0  0  0  0  0  0  0  0  0  0  0  0
   11.5972   -4.0903   15.9294 F   0  0  0  0  0  0  0  0  0  0  0  0
   13.3647   -2.7868   16.8120 C   0  0  0  0  0  0  0  0  0  0  0  0
   13.8672   -4.0104   17.5356 C   0  0  0  0  0  0  0  0  0  0  0  0
   18.4995    0.3250   18.7728 C   0  0  0  0  0  0  0  0  0  0  0  0
   18.0340    1.1118   19.9887 C   0  0  0  0  0  0  0  0  0  0  0  0
   17.5573    0.0183   20.9214 C   0  0  0  0  0  0  0  0  0  0  0  0
   16.7865   -0.9223   20.0024 C   0  0  0  0  0  0  0  0  0  0  0  0
   18.0043   -2.7438   15.4202 C   0  0  0  0  0  0  0  0  0  0  0  0
   18.4048   -2.5798   14.0924 C   0  0  0  0  0  0  0  0  0  0  0  0
  1  2  1  0
  2  3  2  0
  3  4  1  0
  4  5  2  0
  5  6  1  0
  6  7  2  0
  6  8  2  0
  6  9  1  0
  9 10  1  0
 10 11  2  0
 10 12  1  0
 12 13  1  0
 13 14  2  0
 14 15  1  0
 14 16  1  0
 16 17  2  0
 17 18  1  0
 18 19  1  0
 18 20  2  0
 20 21  1  0
  9 22  1  0
 22 23  1  0
 23 24  1  0
 24 25  1  0
  5 26  1  0
 26 27  2  0
 27  2  1  0
 25  9  1  0
 20 13  1  0
M  END
>  <ref_mols>  (1173) 
B1396a

>  <gnina_score>  (1173) 
5.356

>  <smina_score_min>  (1173) 
-3.941

>  <ref_pdb>  (1173) 
B1396a

>  <inspiration_score>  (1173) 
None

>  <inchikey>  (1173) 
DYNFDIOYICRVRE-UHFFFAOYSA-N

>  <tags>  (1173) 
BulkDock Fragalysis export,openbind_d68ev3c_c2_elabs_scored,openbind_d68ev3c_c2_elabs_scored_4.5plus,openbind_d68ev3c_c2_elabs,openbind_d68ev3c_c2_elabs_scored_5plus,syndirella_product,openbind_d68ev3c_c2_elabs_scored_top80percent,syndirella_placed

>  <smiles>  (1173) 
Cc1ccc(S(=O)(=O)C2(C(=O)Nc3c(Cl)ccc(F)c3C)CCCC2)cc1

>  <subsites>  (1173) 
None

>  <rmsd(smina/fragmenstein)>  (1173) 
1.93

>  <alias>  (1173) 
None

>  <energy_score>  (1173) 
-37.338692

>  <HIPPO Pose ID>  (1173) 
95646

>  <distance_score>  (1173) 
0.458944

>  <HIPPO Compound ID>  (1173) 
129551

>  <gnina_score_min>  (1173) 
5.419

>  <name>  (1173) 
P95646

>  <exports>  (1173) 
['/opt/xchem-fragalysis-2/maxwin/BulkDock/OUTPUTS/openbind_d68ev3c_c2_elabs_1LOTQJ3.sdf', '/opt/xchem-fragalysis-2/maxwin/BulkDock/OUTPUTS/openbind_d68ev3c_c2_elabs_1LSYI5W.sdf']

$$$$
P95647
     RDKit          3D

 27 29  0  0  0  0  0  0  0  0999 V2000
   19.7738   -1.5343   12.4057 C   0  0  0  0  0  0  0  0  0  0  0  0
   19.4303   -1.7289   13.8538 C   0  0  0  0  0  0  0  0  0  0  0  0
   18.3211   -2.5014   14.2199 C   0  0  0  0  0  0  0  0  0  0  0  0
   18.0165   -2.7145   15.5666 C   0  0  0  0  0  0  0  0  0  0  0  0
   18.8234   -2.1421   16.5548 C   0  0  0  0  0  0  0  0  0  0  0  0
   18.4834   -2.4556   18.2760 S   0  0  0  0  0  0  0  0  0  0  0  0
   17.5513   -3.5730   18.3272 O   0  0  0  0  0  0  0  0  0  0  0  0
   19.7700   -2.5772   18.9356 O   0  0  0  0  0  0  0  0  0  0  0  0
   17.6215   -1.0285   18.9281 C   0  0  0  0  0  0  0  0  0  0  0  0
   16.5573   -0.6083   17.9082 C   0  0  0  0  0  0  0  0  0  0  0  0
   16.6431    0.4065   17.3284 O   0  0  0  0  0  0  0  0  0  0  0  0
   15.4696   -1.7316   17.8302 N   0  0  0  0  0  0  0  0  0  0  0  0
   14.2656   -1.7823   17.1183 C   0  0  0  0  0  0  0  0  0  0  0  0
   13.5590   -3.0019   17.0735 C   0  0  0  0  0  0  0  0  0  0  0  0
   14.0237   -4.2357   17.7995 C   0  0  0  0  0  0  0  0  0  0  0  0
   12.3953   -3.0916   16.2933 C   0  0  0  0  0  0  0  0  0  0  0  0
   11.9215   -1.9912   15.5775 C   0  0  0  0  0  0  0  0  0  0  0  0
   10.7632   -2.1274   14.6518 C   0  0  0  0  0  0  0  0  0  0  0  0
   12.6014   -0.7797   15.6559 C   0  0  0  0  0  0  0  0  0  0  0  0
   13.7545   -0.6791   16.4239 C   0  0  0  0  0  0  0  0  0  0  0  0
   14.3346    0.5245   16.4849 F   0  0  0  0  0  0  0  0  0  0  0  0
   18.5787    0.1362   19.2539 C   0  0  0  0  0  0  0  0  0  0  0  0
   19.0713   -0.0853   20.6833 C   0  0  0  0  0  0  0  0  0  0  0  0
   18.1374   -1.1119   21.3079 C   0  0  0  0  0  0  0  0  0  0  0  0
   17.0037   -1.3044   20.3102 C   0  0  0  0  0  0  0  0  0  0  0  0
   19.9546   -1.4038   16.2020 C   0  0  0  0  0  0  0  0  0  0  0  0
   20.2517   -1.1953   14.8538 C   0  0  0  0  0  0  0  0  0  0  0  0
  1  2  1  0
  2  3  2  0
  3  4  1  0
  4  5  2  0
  5  6  1  0
  6  7  2  0
  6  8  2  0
  6  9  1  0
  9 10  1  0
 10 11  2  0
 10 12  1  0
 12 13  1  0
 13 14  2  0
 14 15  1  0
 14 16  1  0
 16 17  2  0
 17 18  1  0
 17 19  1  0
 19 20  2  0
 20 21  1  0
  9 22  1  0
 22 23  1  0
 23 24  1  0
 24 25  1  0
  5 26  1  0
 26 27  2  0
 27  2  1  0
 25  9  1  0
 20 13  1  0
M  END
>  <ref_mols>  (1174) 
B1396a

>  <gnina_score>  (1174) 
5.265

>  <smina_score_min>  (1174) 
-3.546

>  <ref_pdb>  (1174) 
B1396a

>  <inspiration_score>  (1174) 
None

>  <inchikey>  (1174) 
QROMPJAZLAQELH-UHFFFAOYSA-N

>  <tags>  (1174) 
BulkDock Fragalysis export,openbind_d68ev3c_c2_elabs_scored,openbind_d68ev3c_c2_elabs_scored_4.5plus,openbind_d68ev3c_c2_elabs,openbind_d68ev3c_c2_elabs_scored_5plus,syndirella_product,openbind_d68ev3c_c2_elabs_scored_top80percent,syndirella_placed

>  <smiles>  (1174) 
Cc1ccc(S(=O)(=O)C2(C(=O)Nc3c(C)cc(C)cc3F)CCCC2)cc1

>  <subsites>  (1174) 
None

>  <rmsd(smina/fragmenstein)>  (1174) 
1.766

>  <alias>  (1174) 
None

>  <energy_score>  (1174) 
-31.738428

>  <HIPPO Pose ID>  (1174) 
95647

>  <distance_score>  (1174) 
0.57501

>  <HIPPO Compound ID>  (1174) 
129552

>  <gnina_score_min>  (1174) 
5.036

>  <name>  (1174) 
P95647

>  <exports>  (1174) 
['/opt/xchem-fragalysis-2/maxwin/BulkDock/OUTPUTS/openbind_d68ev3c_c2_elabs_1LOTQJ3.sdf', '/opt/xchem-fragalysis-2/maxwin/BulkDock/OUTPUTS/openbind_d68ev3c_c2_elabs_1LSYI5W.sdf']

$$$$
P95649
     RDKit          3D

 27 29  0  0  0  0  0  0  0  0999 V2000
   14.7839   -5.0650   17.5744 C   0  0  0  0  0  0  0  0  0  0  0  0
   13.8390   -3.9966   18.0879 C   0  0  0  0  0  0  0  0  0  0  0  0
   13.5796   -2.8547   17.1284 C   0  0  0  0  0  0  0  0  0  0  0  0
   12.3535   -2.8160   16.4397 C   0  0  0  0  0  0  0  0  0  0  0  0
   11.9885   -1.6774   15.7202 C   0  0  0  0  0  0  0  0  0  0  0  0
   10.2297   -1.4417   15.1047 Br  0  0  0  0  0  0  0  0  0  0  0  0
   12.8736   -0.6243   15.5580 C   0  0  0  0  0  0  0  0  0  0  0  0
   14.1165   -0.6804   16.1750 C   0  0  0  0  0  0  0  0  0  0  0  0
   14.4638   -1.7660   16.9856 C   0  0  0  0  0  0  0  0  0  0  0  0
   15.6723   -1.7299   17.6792 N   0  0  0  0  0  0  0  0  0  0  0  0
   16.7233   -0.5790   17.8299 C   0  0  0  0  0  0  0  0  0  0  0  0
   16.7653    0.4807   17.3303 O   0  0  0  0  0  0  0  0  0  0  0  0
   17.7859   -1.0124   18.8552 C   0  0  0  0  0  0  0  0  0  0  0  0
   18.6246   -2.4629   18.2098 S   0  0  0  0  0  0  0  0  0  0  0  0
   19.9114   -2.5868   18.8678 O   0  0  0  0  0  0  0  0  0  0  0  0
   17.6811   -3.5684   18.2871 O   0  0  0  0  0  0  0  0  0  0  0  0
   18.9476   -2.1645   16.4837 C   0  0  0  0  0  0  0  0  0  0  0  0
   18.1310   -2.7450   15.5082 C   0  0  0  0  0  0  0  0  0  0  0  0
   18.4055   -2.5232   14.1569 C   0  0  0  0  0  0  0  0  0  0  0  0
   19.4955   -1.7331   13.7732 C   0  0  0  0  0  0  0  0  0  0  0  0
   19.8051   -1.5262   12.3187 C   0  0  0  0  0  0  0  0  0  0  0  0
   20.3302   -1.1944   14.7593 C   0  0  0  0  0  0  0  0  0  0  0  0
   20.0629   -1.4123   16.1122 C   0  0  0  0  0  0  0  0  0  0  0  0
   17.1456   -1.3189   20.2395 C   0  0  0  0  0  0  0  0  0  0  0  0
   17.6819   -0.2709   21.2083 C   0  0  0  0  0  0  0  0  0  0  0  0
   19.0487    0.0658   20.6550 C   0  0  0  0  0  0  0  0  0  0  0  0
   18.7931    0.1309   19.1561 C   0  0  0  0  0  0  0  0  0  0  0  0
  1  2  1  0
  2  3  1  0
  3  4  2  0
  4  5  1  0
  5  6  1  0
  5  7  2  0
  7  8  1  0
  8  9  2  0
  9 10  1  0
 10 11  1  0
 11 12  2  0
 11 13  1  0
 13 14  1  0
 14 15  2  0
 14 16  2  0
 14 17  1  0
 17 18  2  0
 18 19  1  0
 19 20  2  0
 20 21  1  0
 20 22  1  0
 22 23  2  0
 13 24  1  0
 24 25  1  0
 25 26  1  0
 26 27  1  0
  9  3  1  0
 27 13  1  0
 23 17  1  0
M  END
>  <ref_mols>  (1175) 
B1396a

>  <gnina_score>  (1175) 
5.474

>  <smina_score_min>  (1175) 
-2.772

>  <ref_pdb>  (1175) 
B1396a

>  <inspiration_score>  (1175) 
None

>  <inchikey>  (1175) 
WURCHWYYMWPSHS-UHFFFAOYSA-N

>  <tags>  (1175) 
BulkDock Fragalysis export,openbind_d68ev3c_c2_elabs_scored,openbind_d68ev3c_c2_elabs_scored_4.5plus,openbind_d68ev3c_c2_elabs,openbind_d68ev3c_c2_elabs_scored_5plus,syndirella_product,openbind_d68ev3c_c2_elabs_scored_top80percent,syndirella_placed

>  <smiles>  (1175) 
CCc1cc(Br)ccc1NC(=O)C1(S(=O)(=O)c2ccc(C)cc2)CCCC1

>  <subsites>  (1175) 
None

>  <rmsd(smina/fragmenstein)>  (1175) 
1.329

>  <alias>  (1175) 
None

>  <energy_score>  (1175) 
-39.935103

>  <HIPPO Pose ID>  (1175) 
95649

>  <distance_score>  (1175) 
0.688936

>  <HIPPO Compound ID>  (1175) 
129554

>  <gnina_score_min>  (1175) 
5.387

>  <name>  (1175) 
P95649

>  <exports>  (1175) 
['/opt/xchem-fragalysis-2/maxwin/BulkDock/OUTPUTS/openbind_d68ev3c_c2_elabs_1LOTQJ3.sdf', '/opt/xchem-fragalysis-2/maxwin/BulkDock/OUTPUTS/openbind_d68ev3c_c2_elabs_1LSYI5W.sdf']

$$$$
P95650
     RDKit          3D

 27 29  0  0  0  0  0  0  0  0999 V2000
   19.9429   -1.6263   12.3294 C   0  0  0  0  0  0  0  0  0  0  0  0
   19.5604   -1.8453   13.7648 C   0  0  0  0  0  0  0  0  0  0  0  0
   18.4386   -2.6208   14.0849 C   0  0  0  0  0  0  0  0  0  0  0  0
   18.0920   -2.8520   15.4177 C   0  0  0  0  0  0  0  0  0  0  0  0
   18.8743   -2.2992   16.4352 C   0  0  0  0  0  0  0  0  0  0  0  0
   18.4400   -2.5692   18.1382 S   0  0  0  0  0  0  0  0  0  0  0  0
   19.6756   -2.8094   18.8594 O   0  0  0  0  0  0  0  0  0  0  0  0
   17.3856   -3.5721   18.1708 O   0  0  0  0  0  0  0  0  0  0  0  0
   17.7202   -1.0515   18.7202 C   0  0  0  0  0  0  0  0  0  0  0  0
   16.7011   -0.5825   17.6643 C   0  0  0  0  0  0  0  0  0  0  0  0
   16.8960    0.3969   17.0497 O   0  0  0  0  0  0  0  0  0  0  0  0
   15.4676   -1.5493   17.6683 N   0  0  0  0  0  0  0  0  0  0  0  0
   14.2283   -1.4521   17.0073 C   0  0  0  0  0  0  0  0  0  0  0  0
   13.4666   -2.6447   16.8701 C   0  0  0  0  0  0  0  0  0  0  0  0
   13.9218   -3.9646   17.4470 C   0  0  0  0  0  0  0  0  0  0  0  0
   12.2171   -2.6084   16.2190 C   0  0  0  0  0  0  0  0  0  0  0  0
   11.7073   -1.4002   15.7575 C   0  0  0  0  0  0  0  0  0  0  0  0
    9.9298   -1.2398   15.1614 Br  0  0  0  0  0  0  0  0  0  0  0  0
   12.4390   -0.2332   15.8833 C   0  0  0  0  0  0  0  0  0  0  0  0
   13.6764   -0.2459   16.5289 C   0  0  0  0  0  0  0  0  0  0  0  0
   14.2691    1.3341   16.9091 Cl  0  0  0  0  0  0  0  0  0  0  0  0
   17.1188   -1.1985   20.1265 C   0  0  0  0  0  0  0  0  0  0  0  0
   17.0226    0.2279   20.6571 C   0  0  0  0  0  0  0  0  0  0  0  0
   18.1366    1.0065   19.9655 C   0  0  0  0  0  0  0  0  0  0  0  0
   18.7867    0.0334   18.9822 C   0  0  0  0  0  0  0  0  0  0  0  0
   20.0175   -1.5581   16.1308 C   0  0  0  0  0  0  0  0  0  0  0  0
   20.3545   -1.3300   14.7961 C   0  0  0  0  0  0  0  0  0  0  0  0
  1  2  1  0
  2  3  2  0
  3  4  1  0
  4  5  2  0
  5  6  1  0
  6  7  2  0
  6  8  2  0
  6  9  1  0
  9 10  1  0
 10 11  2  0
 10 12  1  0
 12 13  1  0
 13 14  2  0
 14 15  1  0
 14 16  1  0
 16 17  2  0
 17 18  1  0
 17 19  1  0
 19 20  2  0
 20 21  1  0
  9 22  1  0
 22 23  1  0
 23 24  1  0
 24 25  1  0
  5 26  1  0
 26 27  2  0
 27  2  1  0
 25  9  1  0
 20 13  1  0
M  END
>  <ref_mols>  (1176) 
B1396a

>  <gnina_score>  (1176) 
5.657

>  <smina_score_min>  (1176) 
-3.921

>  <ref_pdb>  (1176) 
B1396a

>  <inspiration_score>  (1176) 
None

>  <inchikey>  (1176) 
QNCLLMMXVIYPQU-UHFFFAOYSA-N

>  <tags>  (1176) 
BulkDock Fragalysis export,openbind_d68ev3c_c2_elabs_scored,openbind_d68ev3c_c2_elabs_scored_4.5plus,openbind_d68ev3c_c2_elabs,openbind_d68ev3c_c2_elabs_scored_5plus,syndirella_product,openbind_d68ev3c_c2_elabs_scored_top80percent,syndirella_placed

>  <smiles>  (1176) 
Cc1ccc(S(=O)(=O)C2(C(=O)Nc3c(C)cc(Br)cc3Cl)CCCC2)cc1

>  <subsites>  (1176) 
None

>  <rmsd(smina/fragmenstein)>  (1176) 
3.094

>  <alias>  (1176) 
None

>  <energy_score>  (1176) 
-28.143842

>  <HIPPO Pose ID>  (1176) 
95650

>  <distance_score>  (1176) 
0.632412

>  <HIPPO Compound ID>  (1176) 
129555

>  <gnina_score_min>  (1176) 
5.175

>  <name>  (1176) 
P95650

>  <exports>  (1176) 
['/opt/xchem-fragalysis-2/maxwin/BulkDock/OUTPUTS/openbind_d68ev3c_c2_elabs_1LOTQJ3.sdf', '/opt/xchem-fragalysis-2/maxwin/BulkDock/OUTPUTS/openbind_d68ev3c_c2_elabs_1LSYI5W.sdf']

$$$$
P95651
     RDKit          3D

 27 29  0  0  0  0  0  0  0  0999 V2000
   14.4121    1.4600   14.6492 C   0  0  0  0  0  0  0  0  0  0  0  0
   13.7085    1.1540   16.2926 S   0  0  0  0  0  0  0  0  0  0  0  0
   13.2991   -0.5822   16.1029 C   0  0  0  0  0  0  0  0  0  0  0  0
   12.1361   -0.8181   15.3417 C   0  0  0  0  0  0  0  0  0  0  0  0
   11.5592   -2.0788   15.2759 C   0  0  0  0  0  0  0  0  0  0  0  0
   12.1148   -3.1157   16.0096 C   0  0  0  0  0  0  0  0  0  0  0  0
   13.2745   -2.9200   16.7802 C   0  0  0  0  0  0  0  0  0  0  0  0
   13.8053   -4.1029   17.5543 C   0  0  0  0  0  0  0  0  0  0  0  0
   13.9107   -1.6511   16.7971 C   0  0  0  0  0  0  0  0  0  0  0  0
   15.1095   -1.5733   17.5379 N   0  0  0  0  0  0  0  0  0  0  0  0
   16.2939   -0.5495   17.4526 C   0  0  0  0  0  0  0  0  0  0  0  0
   16.4827    0.3325   16.7029 O   0  0  0  0  0  0  0  0  0  0  0  0
   17.2982   -0.8467   18.5831 C   0  0  0  0  0  0  0  0  0  0  0  0
   18.1847   -2.3469   18.1261 S   0  0  0  0  0  0  0  0  0  0  0  0
   17.2351   -3.4480   18.1761 O   0  0  0  0  0  0  0  0  0  0  0  0
   19.4021   -2.4326   18.9132 O   0  0  0  0  0  0  0  0  0  0  0  0
   18.6813   -2.1586   16.4253 C   0  0  0  0  0  0  0  0  0  0  0  0
   17.8786   -2.6743   15.4039 C   0  0  0  0  0  0  0  0  0  0  0  0
   18.2782   -2.5240   14.0740 C   0  0  0  0  0  0  0  0  0  0  0  0
   19.4796   -1.8761   13.7596 C   0  0  0  0  0  0  0  0  0  0  0  0
   19.9165   -1.7470   12.3290 C   0  0  0  0  0  0  0  0  0  0  0  0
   20.2961   -1.4076   14.7954 C   0  0  0  0  0  0  0  0  0  0  0  0
   19.9033   -1.5519   16.1270 C   0  0  0  0  0  0  0  0  0  0  0  0
   18.2799    0.3404   18.7748 C   0  0  0  0  0  0  0  0  0  0  0  0
   18.5540    0.4050   20.2694 C   0  0  0  0  0  0  0  0  0  0  0  0
   17.1975    0.1042   20.8660 C   0  0  0  0  0  0  0  0  0  0  0  0
   16.6288   -0.9984   19.9770 C   0  0  0  0  0  0  0  0  0  0  0  0
  1  2  1  0
  2  3  1  0
  3  4  2  0
  4  5  1  0
  5  6  2  0
  6  7  1  0
  7  8  1  0
  7  9  2  0
  9 10  1  0
 10 11  1  0
 11 12  2  0
 11 13  1  0
 13 14  1  0
 14 15  2  0
 14 16  2  0
 14 17  1  0
 17 18  2  0
 18 19  1  0
 19 20  2  0
 20 21  1  0
 20 22  1  0
 22 23  2  0
 13 24  1  0
 24 25  1  0
 25 26  1  0
 26 27  1  0
  9  3  1  0
 27 13  1  0
 23 17  1  0
M  END
>  <ref_mols>  (1177) 
B1396a

>  <gnina_score>  (1177) 
5.102

>  <smina_score_min>  (1177) 
-3.922

>  <ref_pdb>  (1177) 
B1396a

>  <inspiration_score>  (1177) 
None

>  <inchikey>  (1177) 
NBGSLZPXBXYAQN-UHFFFAOYSA-N

>  <tags>  (1177) 
BulkDock Fragalysis export,openbind_d68ev3c_c2_elabs_scored,openbind_d68ev3c_c2_elabs_scored_4.5plus,openbind_d68ev3c_c2_elabs,openbind_d68ev3c_c2_elabs_scored_5plus,syndirella_product,openbind_d68ev3c_c2_elabs_scored_top80percent,syndirella_placed

>  <smiles>  (1177) 
CSc1cccc(C)c1NC(=O)C1(S(=O)(=O)c2ccc(C)cc2)CCCC1

>  <subsites>  (1177) 
None

>  <rmsd(smina/fragmenstein)>  (1177) 
2.792

>  <alias>  (1177) 
None

>  <energy_score>  (1177) 
-30.594541

>  <HIPPO Pose ID>  (1177) 
95651

>  <distance_score>  (1177) 
0.386021

>  <HIPPO Compound ID>  (1177) 
129556

>  <gnina_score_min>  (1177) 
5.037

>  <name>  (1177) 
P95651

>  <exports>  (1177) 
['/opt/xchem-fragalysis-2/maxwin/BulkDock/OUTPUTS/openbind_d68ev3c_c2_elabs_1LOTQJ3.sdf', '/opt/xchem-fragalysis-2/maxwin/BulkDock/OUTPUTS/openbind_d68ev3c_c2_elabs_1LSYI5W.sdf']

$$$$
P95652
     RDKit          3D

 27 29  0  0  0  0  0  0  0  0999 V2000
   19.9132   -1.5019   12.3279 C   0  0  0  0  0  0  0  0  0  0  0  0
   19.5425   -1.7209   13.7665 C   0  0  0  0  0  0  0  0  0  0  0  0
   20.1937   -1.0101   14.7824 C   0  0  0  0  0  0  0  0  0  0  0  0
   19.8343   -1.1933   16.1185 C   0  0  0  0  0  0  0  0  0  0  0  0
   18.7957   -2.0692   16.4370 C   0  0  0  0  0  0  0  0  0  0  0  0
   18.3604   -2.3233   18.1411 S   0  0  0  0  0  0  0  0  0  0  0  0
   19.6040   -2.4413   18.8785 O   0  0  0  0  0  0  0  0  0  0  0  0
   17.3971   -3.4121   18.1775 O   0  0  0  0  0  0  0  0  0  0  0  0
   17.4892   -0.8644   18.6859 C   0  0  0  0  0  0  0  0  0  0  0  0
   16.4218   -0.4871   17.6318 C   0  0  0  0  0  0  0  0  0  0  0  0
   16.4680    0.5473   17.0826 O   0  0  0  0  0  0  0  0  0  0  0  0
   15.3707   -1.6407   17.5314 N   0  0  0  0  0  0  0  0  0  0  0  0
   14.1591   -1.7085   16.8311 C   0  0  0  0  0  0  0  0  0  0  0  0
   13.7014   -0.5969   16.1098 C   0  0  0  0  0  0  0  0  0  0  0  0
   12.5099   -0.6528   15.3780 C   0  0  0  0  0  0  0  0  0  0  0  0
   11.7687   -1.8261   15.3519 C   0  0  0  0  0  0  0  0  0  0  0  0
   12.2220   -2.9254   16.0721 C   0  0  0  0  0  0  0  0  0  0  0  0
   11.4988   -4.0458   16.0294 F   0  0  0  0  0  0  0  0  0  0  0  0
   13.3959   -2.8838   16.8234 C   0  0  0  0  0  0  0  0  0  0  0  0
   13.7997   -4.0525   17.5402 C   0  0  0  0  0  0  0  0  0  0  0  0
   14.1969   -4.9714   18.1241 N   0  0  0  0  0  0  0  0  0  0  0  0
   18.4462    0.3137   18.9597 C   0  0  0  0  0  0  0  0  0  0  0  0
   17.7143    1.2119   19.9575 C   0  0  0  0  0  0  0  0  0  0  0  0
   16.6456    0.3426   20.6114 C   0  0  0  0  0  0  0  0  0  0  0  0
   16.8740   -1.0680   20.0805 C   0  0  0  0  0  0  0  0  0  0  0  0
   18.1419   -2.7932   15.4350 C   0  0  0  0  0  0  0  0  0  0  0  0
   18.5116   -2.6077   14.1015 C   0  0  0  0  0  0  0  0  0  0  0  0
  1  2  1  0
  2  3  2  0
  3  4  1  0
  4  5  2  0
  5  6  1  0
  6  7  2  0
  6  8  2  0
  6  9  1  0
  9 10  1  0
 10 11  2  0
 10 12  1  0
 12 13  1  0
 13 14  2  0
 14 15  1  0
 15 16  2  0
 16 17  1  0
 17 18  1  0
 17 19  2  0
 19 20  1  0
 20 21  3  0
  9 22  1  0
 22 23  1  0
 23 24  1  0
 24 25  1  0
  5 26  1  0
 26 27  2  0
 27  2  1  0
 25  9  1  0
 19 13  1  0
M  END
>  <ref_mols>  (1178) 
B1396a

>  <gnina_score>  (1178) 
5.275

>  <smina_score_min>  (1178) 
-3.912

>  <ref_pdb>  (1178) 
B1396a

>  <inspiration_score>  (1178) 
None

>  <inchikey>  (1178) 
NABVIPOZWDFVKY-UHFFFAOYSA-N

>  <tags>  (1178) 
BulkDock Fragalysis export,openbind_d68ev3c_c2_elabs_scored,openbind_d68ev3c_c2_elabs_scored_4.5plus,openbind_d68ev3c_c2_elabs,openbind_d68ev3c_c2_elabs_scored_5plus,syndirella_product,openbind_d68ev3c_c2_elabs_scored_top80percent,syndirella_placed

>  <smiles>  (1178) 
Cc1ccc(S(=O)(=O)C2(C(=O)Nc3cccc(F)c3C#N)CCCC2)cc1

>  <subsites>  (1178) 
None

>  <rmsd(smina/fragmenstein)>  (1178) 
2.487

>  <alias>  (1178) 
None

>  <energy_score>  (1178) 
-30.924945

>  <HIPPO Pose ID>  (1178) 
95652

>  <distance_score>  (1178) 
0.48325

>  <HIPPO Compound ID>  (1178) 
129557

>  <gnina_score_min>  (1178) 
5.221

>  <name>  (1178) 
P95652

>  <exports>  (1178) 
['/opt/xchem-fragalysis-2/maxwin/BulkDock/OUTPUTS/openbind_d68ev3c_c2_elabs_1LOTQJ3.sdf', '/opt/xchem-fragalysis-2/maxwin/BulkDock/OUTPUTS/openbind_d68ev3c_c2_elabs_1LSYI5W.sdf']

$$$$
P95653
     RDKit          3D

 27 29  0  0  0  0  0  0  0  0999 V2000
   19.9106   -1.5263   12.2853 C   0  0  0  0  0  0  0  0  0  0  0  0
   19.5147   -1.7378   13.7183 C   0  0  0  0  0  0  0  0  0  0  0  0
   20.2271   -1.1139   14.7500 C   0  0  0  0  0  0  0  0  0  0  0  0
   19.8443   -1.2866   16.0808 C   0  0  0  0  0  0  0  0  0  0  0  0
   18.7235   -2.0631   16.3788 C   0  0  0  0  0  0  0  0  0  0  0  0
   18.2557   -2.3099   18.0753 S   0  0  0  0  0  0  0  0  0  0  0  0
   19.4815   -2.4387   18.8412 O   0  0  0  0  0  0  0  0  0  0  0  0
   17.2844   -3.3917   18.0964 O   0  0  0  0  0  0  0  0  0  0  0  0
   17.3940   -0.8272   18.5936 C   0  0  0  0  0  0  0  0  0  0  0  0
   16.2799   -0.4988   17.5678 C   0  0  0  0  0  0  0  0  0  0  0  0
   16.2871    0.5179   16.9845 O   0  0  0  0  0  0  0  0  0  0  0  0
   15.2203   -1.6506   17.5831 N   0  0  0  0  0  0  0  0  0  0  0  0
   14.0443   -1.8164   16.8351 C   0  0  0  0  0  0  0  0  0  0  0  0
   13.5647   -0.7675   16.0405 C   0  0  0  0  0  0  0  0  0  0  0  0
   12.3935   -0.9246   15.2937 C   0  0  0  0  0  0  0  0  0  0  0  0
   11.7553    0.5025   14.2306 Br  0  0  0  0  0  0  0  0  0  0  0  0
   11.6888   -2.1234   15.3210 C   0  0  0  0  0  0  0  0  0  0  0  0
   12.1569   -3.1703   16.1141 C   0  0  0  0  0  0  0  0  0  0  0  0
   13.3251   -3.0229   16.8779 C   0  0  0  0  0  0  0  0  0  0  0  0
   13.7691   -4.1277   17.6746 C   0  0  0  0  0  0  0  0  0  0  0  0
   14.1700   -5.0042   18.3172 N   0  0  0  0  0  0  0  0  0  0  0  0
   18.3812    0.3624   18.7458 C   0  0  0  0  0  0  0  0  0  0  0  0
   17.8966    1.1185   19.9735 C   0  0  0  0  0  0  0  0  0  0  0  0
   17.5074   -0.0031   20.9141 C   0  0  0  0  0  0  0  0  0  0  0  0
   16.7849   -0.9982   20.0122 C   0  0  0  0  0  0  0  0  0  0  0  0
   18.0086   -2.7014   15.3608 C   0  0  0  0  0  0  0  0  0  0  0  0
   18.4000   -2.5254   14.0324 C   0  0  0  0  0  0  0  0  0  0  0  0
  1  2  1  0
  2  3  2  0
  3  4  1  0
  4  5  2  0
  5  6  1  0
  6  7  2  0
  6  8  2  0
  6  9  1  0
  9 10  1  0
 10 11  2  0
 10 12  1  0
 12 13  1  0
 13 14  2  0
 14 15  1  0
 15 16  1  0
 15 17  2  0
 17 18  1  0
 18 19  2  0
 19 20  1  0
 20 21  3  0
  9 22  1  0
 22 23  1  0
 23 24  1  0
 24 25  1  0
  5 26  1  0
 26 27  2  0
 27  2  1  0
 25  9  1  0
 19 13  1  0
M  END
>  <ref_mols>  (1179) 
B1396a

>  <gnina_score>  (1179) 
5.342

>  <smina_score_min>  (1179) 
-3.773

>  <ref_pdb>  (1179) 
B1396a

>  <inspiration_score>  (1179) 
None

>  <inchikey>  (1179) 
WHEUERFGVSGITH-UHFFFAOYSA-N

>  <tags>  (1179) 
BulkDock Fragalysis export,openbind_d68ev3c_c2_elabs_scored,openbind_d68ev3c_c2_elabs_scored_4.5plus,openbind_d68ev3c_c2_elabs,openbind_d68ev3c_c2_elabs_scored_5plus,syndirella_product,openbind_d68ev3c_c2_elabs_scored_top80percent,syndirella_placed

>  <smiles>  (1179) 
Cc1ccc(S(=O)(=O)C2(C(=O)Nc3cc(Br)ccc3C#N)CCCC2)cc1

>  <subsites>  (1179) 
None

>  <rmsd(smina/fragmenstein)>  (1179) 
1.444

>  <alias>  (1179) 
None

>  <energy_score>  (1179) 
-44.977309

>  <HIPPO Pose ID>  (1179) 
95653

>  <distance_score>  (1179) 
0.422815

>  <HIPPO Compound ID>  (1179) 
129558

>  <gnina_score_min>  (1179) 
5.274

>  <name>  (1179) 
P95653

>  <exports>  (1179) 
['/opt/xchem-fragalysis-2/maxwin/BulkDock/OUTPUTS/openbind_d68ev3c_c2_elabs_1LOTQJ3.sdf', '/opt/xchem-fragalysis-2/maxwin/BulkDock/OUTPUTS/openbind_d68ev3c_c2_elabs_1LSYI5W.sdf']

$$$$
P95656
     RDKit          3D

 27 29  0  0  0  0  0  0  0  0999 V2000
   19.9054   -1.5514   12.3524 C   0  0  0  0  0  0  0  0  0  0  0  0
   19.5282   -1.7750   13.7885 C   0  0  0  0  0  0  0  0  0  0  0  0
   18.4166   -2.5637   14.1105 C   0  0  0  0  0  0  0  0  0  0  0  0
   18.0774   -2.8005   15.4441 C   0  0  0  0  0  0  0  0  0  0  0  0
   18.8561   -2.2408   16.4612 C   0  0  0  0  0  0  0  0  0  0  0  0
   18.4396   -2.5405   18.1641 S   0  0  0  0  0  0  0  0  0  0  0  0
   17.4069   -3.5658   18.1854 O   0  0  0  0  0  0  0  0  0  0  0  0
   19.6830   -2.7723   18.8744 O   0  0  0  0  0  0  0  0  0  0  0  0
   17.6942   -1.0351   18.7771 C   0  0  0  0  0  0  0  0  0  0  0  0
   16.6514   -0.5679   17.7420 C   0  0  0  0  0  0  0  0  0  0  0  0
   16.7946    0.4428   17.1646 O   0  0  0  0  0  0  0  0  0  0  0  0
   15.4764   -1.6056   17.6965 N   0  0  0  0  0  0  0  0  0  0  0  0
   14.2403   -1.5578   17.0235 C   0  0  0  0  0  0  0  0  0  0  0  0
   13.5212   -2.7850   16.9378 C   0  0  0  0  0  0  0  0  0  0  0  0
   14.0186   -4.0665   17.5645 C   0  0  0  0  0  0  0  0  0  0  0  0
   12.2891   -2.8361   16.2636 C   0  0  0  0  0  0  0  0  0  0  0  0
   11.7532   -1.6841   15.7134 C   0  0  0  0  0  0  0  0  0  0  0  0
   10.1817   -1.6791   15.0454 Cl  0  0  0  0  0  0  0  0  0  0  0  0
   12.4366   -0.4839   15.7965 C   0  0  0  0  0  0  0  0  0  0  0  0
   13.6661   -0.3915   16.4735 C   0  0  0  0  0  0  0  0  0  0  0  0
   14.2158    1.0021   16.5957 C   0  0  0  0  0  0  0  0  0  0  0  0
   18.7680    0.0622   19.0203 C   0  0  0  0  0  0  0  0  0  0  0  0
   18.3149    0.7788   20.2832 C   0  0  0  0  0  0  0  0  0  0  0  0
   17.8197   -0.3637   21.1451 C   0  0  0  0  0  0  0  0  0  0  0  0
   17.0427   -1.2421   20.1703 C   0  0  0  0  0  0  0  0  0  0  0  0
   19.9882   -1.4841   16.1546 C   0  0  0  0  0  0  0  0  0  0  0  0
   20.3185   -1.2508   14.8187 C   0  0  0  0  0  0  0  0  0  0  0  0
  1  2  1  0
  2  3  2  0
  3  4  1  0
  4  5  2  0
  5  6  1  0
  6  7  2  0
  6  8  2  0
  6  9  1  0
  9 10  1  0
 10 11  2  0
 10 12  1  0
 12 13  1  0
 13 14  2  0
 14 15  1  0
 14 16  1  0
 16 17  2  0
 17 18  1  0
 17 19  1  0
 19 20  2  0
 20 21  1  0
  9 22  1  0
 22 23  1  0
 23 24  1  0
 24 25  1  0
  5 26  1  0
 26 27  2  0
 27  2  1  0
 25  9  1  0
 20 13  1  0
M  END
>  <ref_mols>  (1180) 
B1396a

>  <gnina_score>  (1180) 
5.404

>  <smina_score_min>  (1180) 
-3.517

>  <ref_pdb>  (1180) 
B1396a

>  <inspiration_score>  (1180) 
None

>  <inchikey>  (1180) 
FTPQPJJFPJZIRN-UHFFFAOYSA-N

>  <tags>  (1180) 
BulkDock Fragalysis export,openbind_d68ev3c_c2_elabs_scored,openbind_d68ev3c_c2_elabs_scored_4.5plus,openbind_d68ev3c_c2_elabs,openbind_d68ev3c_c2_elabs_scored_5plus,syndirella_product,openbind_d68ev3c_c2_elabs_scored_top80percent,syndirella_placed

>  <smiles>  (1180) 
Cc1ccc(S(=O)(=O)C2(C(=O)Nc3c(C)cc(Cl)cc3C)CCCC2)cc1

>  <subsites>  (1180) 
None

>  <rmsd(smina/fragmenstein)>  (1180) 
2.198

>  <alias>  (1180) 
None

>  <energy_score>  (1180) 
-50.84238

>  <HIPPO Pose ID>  (1180) 
95656

>  <distance_score>  (1180) 
0.585076

>  <HIPPO Compound ID>  (1180) 
129562

>  <gnina_score_min>  (1180) 
5.246

>  <name>  (1180) 
P95656

>  <exports>  (1180) 
['/opt/xchem-fragalysis-2/maxwin/BulkDock/OUTPUTS/openbind_d68ev3c_c2_elabs_1LOTQJ3.sdf', '/opt/xchem-fragalysis-2/maxwin/BulkDock/OUTPUTS/openbind_d68ev3c_c2_elabs_1LSYI5W.sdf']

$$$$
P95657
     RDKit          3D

 27 29  0  0  0  0  0  0  0  0999 V2000
   13.0055    0.7602   13.2175 C   0  0  0  0  0  0  0  0  0  0  0  0
   11.7174    0.5878   14.4798 S   0  0  0  0  0  0  0  0  0  0  0  0
   12.3670   -0.8138   15.3669 C   0  0  0  0  0  0  0  0  0  0  0  0
   11.6696   -2.0189   15.3447 C   0  0  0  0  0  0  0  0  0  0  0  0
   12.1455   -3.1098   16.0721 C   0  0  0  0  0  0  0  0  0  0  0  0
   13.3189   -3.0150   16.8386 C   0  0  0  0  0  0  0  0  0  0  0  0
   13.7718   -4.2144   17.6250 C   0  0  0  0  0  0  0  0  0  0  0  0
   14.0240   -1.8006   16.8519 C   0  0  0  0  0  0  0  0  0  0  0  0
   15.1876   -1.6729   17.6153 N   0  0  0  0  0  0  0  0  0  0  0  0
   16.2603   -0.5355   17.6478 C   0  0  0  0  0  0  0  0  0  0  0  0
   16.2873    0.4984   17.0959 O   0  0  0  0  0  0  0  0  0  0  0  0
   17.3579   -0.9039   18.6740 C   0  0  0  0  0  0  0  0  0  0  0  0
   18.2132   -2.3714   18.1294 S   0  0  0  0  0  0  0  0  0  0  0  0
   17.2507   -3.4623   18.1575 O   0  0  0  0  0  0  0  0  0  0  0  0
   19.4501   -2.5037   18.8782 O   0  0  0  0  0  0  0  0  0  0  0  0
   18.6661   -2.1009   16.4327 C   0  0  0  0  0  0  0  0  0  0  0  0
   19.8140   -1.3605   16.1421 C   0  0  0  0  0  0  0  0  0  0  0  0
   20.1934   -1.1721   14.8125 C   0  0  0  0  0  0  0  0  0  0  0  0
   19.4356   -1.7242   13.7725 C   0  0  0  0  0  0  0  0  0  0  0  0
   19.8633   -1.5484   12.3439 C   0  0  0  0  0  0  0  0  0  0  0  0
   18.3074   -2.4956   14.0802 C   0  0  0  0  0  0  0  0  0  0  0  0
   17.9206   -2.6897   15.4079 C   0  0  0  0  0  0  0  0  0  0  0  0
   18.3303    0.2736   18.8961 C   0  0  0  0  0  0  0  0  0  0  0  0
   17.6346    1.1937   19.8996 C   0  0  0  0  0  0  0  0  0  0  0  0
   16.5829    0.3417   20.6029 C   0  0  0  0  0  0  0  0  0  0  0  0
   16.7869   -1.0797   20.0906 C   0  0  0  0  0  0  0  0  0  0  0  0
   13.5422   -0.7102   16.1190 C   0  0  0  0  0  0  0  0  0  0  0  0
  1  2  1  0
  2  3  1  0
  3  4  2  0
  4  5  1  0
  5  6  2  0
  6  7  1  0
  6  8  1  0
  8  9  1  0
  9 10  1  0
 10 11  2  0
 10 12  1  0
 12 13  1  0
 13 14  2  0
 13 15  2  0
 13 16  1  0
 16 17  2  0
 17 18  1  0
 18 19  2  0
 19 20  1  0
 19 21  1  0
 21 22  2  0
 12 23  1  0
 23 24  1  0
 24 25  1  0
 25 26  1  0
  8 27  2  0
 27  3  1  0
 26 12  1  0
 22 16  1  0
M  END
>  <ref_mols>  (1181) 
B1396a

>  <gnina_score>  (1181) 
5.136

>  <smina_score_min>  (1181) 
-4.008

>  <ref_pdb>  (1181) 
B1396a

>  <inspiration_score>  (1181) 
None

>  <inchikey>  (1181) 
OQJSBHMSHFPJIL-UHFFFAOYSA-N

>  <tags>  (1181) 
BulkDock Fragalysis export,openbind_d68ev3c_c2_elabs_scored,openbind_d68ev3c_c2_elabs_scored_4.5plus,openbind_d68ev3c_c2_elabs,openbind_d68ev3c_c2_elabs_scored_5plus,syndirella_product,openbind_d68ev3c_c2_elabs_scored_top80percent,syndirella_placed

>  <smiles>  (1181) 
CSc1ccc(C)c(NC(=O)C2(S(=O)(=O)c3ccc(C)cc3)CCCC2)c1

>  <subsites>  (1181) 
None

>  <rmsd(smina/fragmenstein)>  (1181) 
2.146

>  <alias>  (1181) 
None

>  <energy_score>  (1181) 
-44.22522

>  <HIPPO Pose ID>  (1181) 
95657

>  <distance_score>  (1181) 
0.427533

>  <HIPPO Compound ID>  (1181) 
129563

>  <gnina_score_min>  (1181) 
5.174

>  <name>  (1181) 
P95657

>  <exports>  (1181) 
['/opt/xchem-fragalysis-2/maxwin/BulkDock/OUTPUTS/openbind_d68ev3c_c2_elabs_1LOTQJ3.sdf', '/opt/xchem-fragalysis-2/maxwin/BulkDock/OUTPUTS/openbind_d68ev3c_c2_elabs_1LSYI5W.sdf']

$$$$
P95658
     RDKit          3D

 27 29  0  0  0  0  0  0  0  0999 V2000
   12.1784   -4.2703   17.0032 C   0  0  0  0  0  0  0  0  0  0  0  0
   12.0094   -3.3177   15.4905 S   0  0  0  0  0  0  0  0  0  0  0  0
   13.0447   -1.9485   15.9134 C   0  0  0  0  0  0  0  0  0  0  0  0
   12.5585   -0.7174   15.4576 C   0  0  0  0  0  0  0  0  0  0  0  0
   13.2535    0.4522   15.7255 C   0  0  0  0  0  0  0  0  0  0  0  0
   14.4325    0.4054   16.4661 C   0  0  0  0  0  0  0  0  0  0  0  0
   14.9184   -0.8091   16.9456 C   0  0  0  0  0  0  0  0  0  0  0  0
   16.0676   -0.8670   17.7351 N   0  0  0  0  0  0  0  0  0  0  0  0
   17.2023    0.1803   17.9490 C   0  0  0  0  0  0  0  0  0  0  0  0
   17.3047    1.2783   17.5558 O   0  0  0  0  0  0  0  0  0  0  0  0
   18.2533   -0.4338   18.9054 C   0  0  0  0  0  0  0  0  0  0  0  0
   18.8044   -2.0405   18.2962 S   0  0  0  0  0  0  0  0  0  0  0  0
   17.7042   -2.9686   18.5228 O   0  0  0  0  0  0  0  0  0  0  0  0
   20.1026   -2.3396   18.8671 O   0  0  0  0  0  0  0  0  0  0  0  0
   19.0392   -1.9750   16.5325 C   0  0  0  0  0  0  0  0  0  0  0  0
   19.5245   -0.8319   15.9007 C   0  0  0  0  0  0  0  0  0  0  0  0
   19.6816   -0.8268   14.5116 C   0  0  0  0  0  0  0  0  0  0  0  0
   19.3766   -1.9621   13.7502 C   0  0  0  0  0  0  0  0  0  0  0  0
   19.5168   -1.9372   12.2556 C   0  0  0  0  0  0  0  0  0  0  0  0
   18.8935   -3.1054   14.3945 C   0  0  0  0  0  0  0  0  0  0  0  0
   18.7250   -3.1147   15.7801 C   0  0  0  0  0  0  0  0  0  0  0  0
   19.4648    0.5160   19.1410 C   0  0  0  0  0  0  0  0  0  0  0  0
   19.6485    0.5997   20.6509 C   0  0  0  0  0  0  0  0  0  0  0  0
   18.2326    0.5078   21.1745 C   0  0  0  0  0  0  0  0  0  0  0  0
   17.6246   -0.5957   20.3209 C   0  0  0  0  0  0  0  0  0  0  0  0
   14.2533   -2.0144   16.6411 C   0  0  0  0  0  0  0  0  0  0  0  0
   14.9081   -3.3053   17.0755 C   0  0  0  0  0  0  0  0  0  0  0  0
  1  2  1  0
  2  3  1  0
  3  4  2  0
  4  5  1  0
  5  6  2  0
  6  7  1  0
  7  8  1  0
  8  9  1  0
  9 10  2  0
  9 11  1  0
 11 12  1  0
 12 13  2  0
 12 14  2  0
 12 15  1  0
 15 16  2  0
 16 17  1  0
 17 18  2  0
 18 19  1  0
 18 20  1  0
 20 21  2  0
 11 22  1  0
 22 23  1  0
 23 24  1  0
 24 25  1  0
  7 26  2  0
 26 27  1  0
 26  3  1  0
 25 11  1  0
 21 15  1  0
M  END
>  <ref_mols>  (1182) 
B1396a

>  <gnina_score>  (1182) 
5.389

>  <smina_score_min>  (1182) 
-2.887

>  <ref_pdb>  (1182) 
B1396a

>  <inspiration_score>  (1182) 
None

>  <inchikey>  (1182) 
HYXFCMLCGRTSBL-UHFFFAOYSA-N

>  <tags>  (1182) 
BulkDock Fragalysis export,openbind_d68ev3c_c2_elabs_scored,openbind_d68ev3c_c2_elabs_scored_4.5plus,openbind_d68ev3c_c2_elabs,openbind_d68ev3c_c2_elabs_scored_5plus,syndirella_product,openbind_d68ev3c_c2_elabs_scored_top80percent,syndirella_placed

>  <smiles>  (1182) 
CSc1cccc(NC(=O)C2(S(=O)(=O)c3ccc(C)cc3)CCCC2)c1C

>  <subsites>  (1182) 
None

>  <rmsd(smina/fragmenstein)>  (1182) 
2.47

>  <alias>  (1182) 
None

>  <energy_score>  (1182) 
-31.424688

>  <HIPPO Pose ID>  (1182) 
95658

>  <distance_score>  (1182) 
1.332596

>  <HIPPO Compound ID>  (1182) 
129564

>  <gnina_score_min>  (1182) 
5.08

>  <name>  (1182) 
P95658

>  <exports>  (1182) 
['/opt/xchem-fragalysis-2/maxwin/BulkDock/OUTPUTS/openbind_d68ev3c_c2_elabs_1LOTQJ3.sdf', '/opt/xchem-fragalysis-2/maxwin/BulkDock/OUTPUTS/openbind_d68ev3c_c2_elabs_1LSYI5W.sdf']

$$$$
P95661
     RDKit          3D

 27 29  0  0  0  0  0  0  0  0999 V2000
   19.8486   -1.4810   12.2852 C   0  0  0  0  0  0  0  0  0  0  0  0
   19.4648   -1.7100   13.7188 C   0  0  0  0  0  0  0  0  0  0  0  0
   20.2461   -1.1826   14.7544 C   0  0  0  0  0  0  0  0  0  0  0  0
   19.9114   -1.4232   16.0876 C   0  0  0  0  0  0  0  0  0  0  0  0
   18.7839   -2.1900   16.3861 C   0  0  0  0  0  0  0  0  0  0  0  0
   18.3799   -2.5243   18.0830 S   0  0  0  0  0  0  0  0  0  0  0  0
   17.3718   -3.5741   18.0939 O   0  0  0  0  0  0  0  0  0  0  0  0
   19.6311   -2.7404   18.7854 O   0  0  0  0  0  0  0  0  0  0  0  0
   17.6074   -1.0486   18.7253 C   0  0  0  0  0  0  0  0  0  0  0  0
   16.5045   -0.5649   17.7562 C   0  0  0  0  0  0  0  0  0  0  0  0
   16.5291    0.5285   17.3327 O   0  0  0  0  0  0  0  0  0  0  0  0
   15.4304   -1.6919   17.5910 N   0  0  0  0  0  0  0  0  0  0  0  0
   14.2653   -1.7271   16.8234 C   0  0  0  0  0  0  0  0  0  0  0  0
   13.8647   -0.5794   16.1318 C   0  0  0  0  0  0  0  0  0  0  0  0
   12.6039   -0.5059   15.5419 C   0  0  0  0  0  0  0  0  0  0  0  0
   11.7397   -1.5933   15.6200 C   0  0  0  0  0  0  0  0  0  0  0  0
   10.3524   -1.3893   15.3301 C   0  0  0  0  0  0  0  0  0  0  0  0
    9.2141   -1.1634   15.3264 N   0  0  0  0  0  0  0  0  0  0  0  0
   12.1820   -2.7911   16.1959 C   0  0  0  0  0  0  0  0  0  0  0  0
   13.4410   -2.8660   16.8221 C   0  0  0  0  0  0  0  0  0  0  0  0
   13.8148   -4.1291   17.5513 C   0  0  0  0  0  0  0  0  0  0  0  0
   18.6579    0.0707   18.9690 C   0  0  0  0  0  0  0  0  0  0  0  0
   18.2069    0.7583   20.2488 C   0  0  0  0  0  0  0  0  0  0  0  0
   17.7547   -0.4077   21.1032 C   0  0  0  0  0  0  0  0  0  0  0  0
   16.9932   -1.3020   20.1301 C   0  0  0  0  0  0  0  0  0  0  0  0
   18.0145   -2.7523   15.3637 C   0  0  0  0  0  0  0  0  0  0  0  0
   18.3577   -2.5085   14.0327 C   0  0  0  0  0  0  0  0  0  0  0  0
  1  2  1  0
  2  3  2  0
  3  4  1  0
  4  5  2  0
  5  6  1  0
  6  7  2  0
  6  8  2  0
  6  9  1  0
  9 10  1  0
 10 11  2  0
 10 12  1  0
 12 13  1  0
 13 14  2  0
 14 15  1  0
 15 16  2  0
 16 17  1  0
 17 18  3  0
 16 19  1  0
 19 20  2  0
 20 21  1  0
  9 22  1  0
 22 23  1  0
 23 24  1  0
 24 25  1  0
  5 26  1  0
 26 27  2  0
 27  2  1  0
 25  9  1  0
 20 13  1  0
M  END
>  <ref_mols>  (1183) 
B1396a

>  <gnina_score>  (1183) 
5.223

>  <smina_score_min>  (1183) 
-3.524

>  <ref_pdb>  (1183) 
B1396a

>  <inspiration_score>  (1183) 
None

>  <inchikey>  (1183) 
HADWPBYFZCOJCU-UHFFFAOYSA-N

>  <tags>  (1183) 
BulkDock Fragalysis export,openbind_d68ev3c_c2_elabs_scored,openbind_d68ev3c_c2_elabs_scored_4.5plus,openbind_d68ev3c_c2_elabs,openbind_d68ev3c_c2_elabs_scored_5plus,syndirella_product,openbind_d68ev3c_c2_elabs_scored_top80percent,syndirella_placed

>  <smiles>  (1183) 
Cc1ccc(S(=O)(=O)C2(C(=O)Nc3ccc(C#N)cc3C)CCCC2)cc1

>  <subsites>  (1183) 
None

>  <rmsd(smina/fragmenstein)>  (1183) 
1.139

>  <alias>  (1183) 
None

>  <energy_score>  (1183) 
-47.520345

>  <HIPPO Pose ID>  (1183) 
95661

>  <distance_score>  (1183) 
0.568348

>  <HIPPO Compound ID>  (1183) 
129569

>  <gnina_score_min>  (1183) 
5.062

>  <name>  (1183) 
P95661

>  <exports>  (1183) 
['/opt/xchem-fragalysis-2/maxwin/BulkDock/OUTPUTS/openbind_d68ev3c_c2_elabs_1LOTQJ3.sdf', '/opt/xchem-fragalysis-2/maxwin/BulkDock/OUTPUTS/openbind_d68ev3c_c2_elabs_1LSYI5W.sdf']

$$$$
P95664
     RDKit          3D

 27 29  0  0  0  0  0  0  0  0999 V2000
   19.8146   -1.6453   12.3458 C   0  0  0  0  0  0  0  0  0  0  0  0
   19.4699   -1.8272   13.7957 C   0  0  0  0  0  0  0  0  0  0  0  0
   20.3201   -1.3361   14.7935 C   0  0  0  0  0  0  0  0  0  0  0  0
   20.0138   -1.5276   16.1413 C   0  0  0  0  0  0  0  0  0  0  0  0
   18.8475   -2.2101   16.4936 C   0  0  0  0  0  0  0  0  0  0  0  0
   18.4640   -2.4431   18.2150 S   0  0  0  0  0  0  0  0  0  0  0  0
   17.4448   -3.4770   18.3049 O   0  0  0  0  0  0  0  0  0  0  0  0
   19.7253   -2.6322   18.9077 O   0  0  0  0  0  0  0  0  0  0  0  0
   17.7240   -0.9218   18.7745 C   0  0  0  0  0  0  0  0  0  0  0  0
   16.6260   -0.5384   17.7628 C   0  0  0  0  0  0  0  0  0  0  0  0
   16.7548    0.4030   17.0765 O   0  0  0  0  0  0  0  0  0  0  0  0
   15.4262   -1.5349   17.9024 N   0  0  0  0  0  0  0  0  0  0  0  0
   14.2227   -1.6225   17.1782 C   0  0  0  0  0  0  0  0  0  0  0  0
   13.6085   -2.9001   17.1135 C   0  0  0  0  0  0  0  0  0  0  0  0
   14.1475   -4.1137   17.8284 C   0  0  0  0  0  0  0  0  0  0  0  0
   12.4729   -3.0896   16.3116 C   0  0  0  0  0  0  0  0  0  0  0  0
   11.9200   -2.0367   15.5921 C   0  0  0  0  0  0  0  0  0  0  0  0
   10.7816   -2.2702   14.6617 C   0  0  0  0  0  0  0  0  0  0  0  0
   12.4742   -0.7665   15.7109 C   0  0  0  0  0  0  0  0  0  0  0  0
   13.5955   -0.5468   16.5207 C   0  0  0  0  0  0  0  0  0  0  0  0
   13.9841    1.2936   16.8098 Br  0  0  0  0  0  0  0  0  0  0  0  0
   17.2224   -1.0191   20.2229 C   0  0  0  0  0  0  0  0  0  0  0  0
   17.1140    0.4283   20.6919 C   0  0  0  0  0  0  0  0  0  0  0  0
   18.1482    1.2077   19.8862 C   0  0  0  0  0  0  0  0  0  0  0  0
   18.7683    0.2066   18.9123 C   0  0  0  0  0  0  0  0  0  0  0  0
   18.0092   -2.7410   15.5098 C   0  0  0  0  0  0  0  0  0  0  0  0
   18.3228   -2.5424   14.1633 C   0  0  0  0  0  0  0  0  0  0  0  0
  1  2  1  0
  2  3  2  0
  3  4  1  0
  4  5  2  0
  5  6  1  0
  6  7  2  0
  6  8  2  0
  6  9  1  0
  9 10  1  0
 10 11  2  0
 10 12  1  0
 12 13  1  0
 13 14  2  0
 14 15  1  0
 14 16  1  0
 16 17  2  0
 17 18  1  0
 17 19  1  0
 19 20  2  0
 20 21  1  0
  9 22  1  0
 22 23  1  0
 23 24  1  0
 24 25  1  0
  5 26  1  0
 26 27  2  0
 27  2  1  0
 25  9  1  0
 20 13  1  0
M  END
>  <ref_mols>  (1184) 
B1396a

>  <gnina_score>  (1184) 
5.285

>  <smina_score_min>  (1184) 
-3.656

>  <ref_pdb>  (1184) 
B1396a

>  <inspiration_score>  (1184) 
None

>  <inchikey>  (1184) 
CYPRMFNNPQVEBL-UHFFFAOYSA-N

>  <tags>  (1184) 
BulkDock Fragalysis export,openbind_d68ev3c_c2_elabs_scored,openbind_d68ev3c_c2_elabs_scored_4.5plus,openbind_d68ev3c_c2_elabs,openbind_d68ev3c_c2_elabs_scored_5plus,syndirella_product,openbind_d68ev3c_c2_elabs_scored_top80percent,syndirella_placed

>  <smiles>  (1184) 
Cc1ccc(S(=O)(=O)C2(C(=O)Nc3c(C)cc(C)cc3Br)CCCC2)cc1

>  <subsites>  (1184) 
None

>  <rmsd(smina/fragmenstein)>  (1184) 
1.942

>  <alias>  (1184) 
None

>  <energy_score>  (1184) 
-43.678053

>  <HIPPO Pose ID>  (1184) 
95664

>  <distance_score>  (1184) 
0.571594

>  <HIPPO Compound ID>  (1184) 
129574

>  <gnina_score_min>  (1184) 
5.078

>  <name>  (1184) 
P95664

>  <exports>  (1184) 
['/opt/xchem-fragalysis-2/maxwin/BulkDock/OUTPUTS/openbind_d68ev3c_c2_elabs_1LOTQJ3.sdf', '/opt/xchem-fragalysis-2/maxwin/BulkDock/OUTPUTS/openbind_d68ev3c_c2_elabs_1LSYI5W.sdf']

$$$$
P95666
     RDKit          3D

 27 29  0  0  0  0  0  0  0  0999 V2000
   19.7277   -1.2464   12.5387 C   0  0  0  0  0  0  0  0  0  0  0  0
   19.4040   -1.5773   13.9666 C   0  0  0  0  0  0  0  0  0  0  0  0
   20.1494   -1.0172   15.0120 C   0  0  0  0  0  0  0  0  0  0  0  0
   19.8329   -1.3000   16.3431 C   0  0  0  0  0  0  0  0  0  0  0  0
   18.7470   -2.1281   16.6320 C   0  0  0  0  0  0  0  0  0  0  0  0
   18.3959   -2.5541   18.3231 S   0  0  0  0  0  0  0  0  0  0  0  0
   19.6698   -2.8842   18.9350 O   0  0  0  0  0  0  0  0  0  0  0  0
   17.3439   -3.5601   18.3119 O   0  0  0  0  0  0  0  0  0  0  0  0
   17.7200   -1.1129   19.1377 C   0  0  0  0  0  0  0  0  0  0  0  0
   16.7268   -0.3966   18.2012 C   0  0  0  0  0  0  0  0  0  0  0  0
   16.9068    0.7231   17.9019 O   0  0  0  0  0  0  0  0  0  0  0  0
   15.5512   -1.3653   17.8413 N   0  0  0  0  0  0  0  0  0  0  0  0
   14.3611   -1.1289   17.1467 C   0  0  0  0  0  0  0  0  0  0  0  0
   14.0682    0.1832   16.7528 C   0  0  0  0  0  0  0  0  0  0  0  0
   12.9690    0.4691   15.9548 C   0  0  0  0  0  0  0  0  0  0  0  0
   12.1942   -0.5690   15.4823 C   0  0  0  0  0  0  0  0  0  0  0  0
   12.4930   -1.8858   15.8504 C   0  0  0  0  0  0  0  0  0  0  0  0
   11.4615   -3.2608   14.7424 I   0  0  0  0  0  0  0  0  0  0  0  0
   13.5150   -2.1935   16.7691 C   0  0  0  0  0  0  0  0  0  0  0  0
   13.7312   -3.5787   17.3328 C   0  0  0  0  0  0  0  0  0  0  0  0
   14.9710   -4.0766   16.8626 O   0  0  0  0  0  0  0  0  0  0  0  0
   17.0121   -1.4889   20.4691 C   0  0  0  0  0  0  0  0  0  0  0  0
   17.7483   -0.7464   21.5815 C   0  0  0  0  0  0  0  0  0  0  0  0
   18.3564    0.4553   20.8888 C   0  0  0  0  0  0  0  0  0  0  0  0
   18.8495   -0.1391   19.5784 C   0  0  0  0  0  0  0  0  0  0  0  0
   17.9955   -2.6941   15.5978 C   0  0  0  0  0  0  0  0  0  0  0  0
   18.3190   -2.4080   14.2696 C   0  0  0  0  0  0  0  0  0  0  0  0
  1  2  1  0
  2  3  2  0
  3  4  1  0
  4  5  2  0
  5  6  1  0
  6  7  2  0
  6  8  2  0
  6  9  1  0
  9 10  1  0
 10 11  2  0
 10 12  1  0
 12 13  1  0
 13 14  2  0
 14 15  1  0
 15 16  2  0
 16 17  1  0
 17 18  1  0
 17 19  2  0
 19 20  1  0
 20 21  1  0
  9 22  1  0
 22 23  1  0
 23 24  1  0
 24 25  1  0
  5 26  1  0
 26 27  2  0
 27  2  1  0
 25  9  1  0
 19 13  1  0
M  END
>  <ref_mols>  (1185) 
B1396a

>  <gnina_score>  (1185) 
4.993

>  <smina_score_min>  (1185) 
-3.181

>  <ref_pdb>  (1185) 
B1396a

>  <inspiration_score>  (1185) 
None

>  <inchikey>  (1185) 
XPVWXXDQMIDOJQ-UHFFFAOYSA-N

>  <tags>  (1185) 
BulkDock Fragalysis export,openbind_d68ev3c_c2_elabs_scored,openbind_d68ev3c_c2_elabs_scored_4.5plus,openbind_d68ev3c_c2_elabs,openbind_d68ev3c_c2_elabs_scored_5plus,syndirella_product,openbind_d68ev3c_c2_elabs_scored_top80percent,syndirella_placed

>  <smiles>  (1185) 
Cc1ccc(S(=O)(=O)C2(C(=O)Nc3cccc(I)c3CO)CCCC2)cc1

>  <subsites>  (1185) 
None

>  <rmsd(smina/fragmenstein)>  (1185) 
2.976

>  <alias>  (1185) 
None

>  <energy_score>  (1185) 
-44.425456

>  <HIPPO Pose ID>  (1185) 
95666

>  <distance_score>  (1185) 
1.052266

>  <HIPPO Compound ID>  (1185) 
129577

>  <gnina_score_min>  (1185) 
5.103

>  <name>  (1185) 
P95666

>  <exports>  (1185) 
['/opt/xchem-fragalysis-2/maxwin/BulkDock/OUTPUTS/openbind_d68ev3c_c2_elabs_1LOTQJ3.sdf', '/opt/xchem-fragalysis-2/maxwin/BulkDock/OUTPUTS/openbind_d68ev3c_c2_elabs_1LSYI5W.sdf']

$$$$
P95668
     RDKit          3D

 27 29  0  0  0  0  0  0  0  0999 V2000
   19.7538   -1.3624   12.3130 C   0  0  0  0  0  0  0  0  0  0  0  0
   19.4476   -1.6495   13.7549 C   0  0  0  0  0  0  0  0  0  0  0  0
   20.1864   -1.0335   14.7727 C   0  0  0  0  0  0  0  0  0  0  0  0
   19.8897   -1.2809   16.1140 C   0  0  0  0  0  0  0  0  0  0  0  0
   18.8279   -2.1261   16.4388 C   0  0  0  0  0  0  0  0  0  0  0  0
   18.4815   -2.4821   18.1447 S   0  0  0  0  0  0  0  0  0  0  0  0
   19.7569   -2.6950   18.8016 O   0  0  0  0  0  0  0  0  0  0  0  0
   17.4808   -3.5371   18.1655 O   0  0  0  0  0  0  0  0  0  0  0  0
   17.7094   -1.0318   18.8431 C   0  0  0  0  0  0  0  0  0  0  0  0
   16.5637   -0.5526   17.9228 C   0  0  0  0  0  0  0  0  0  0  0  0
   16.5478    0.5507   17.5258 O   0  0  0  0  0  0  0  0  0  0  0  0
   15.5123   -1.7020   17.7648 N   0  0  0  0  0  0  0  0  0  0  0  0
   14.3202   -1.7481   17.0327 C   0  0  0  0  0  0  0  0  0  0  0  0
   13.8788   -0.5949   16.3744 C   0  0  0  0  0  0  0  0  0  0  0  0
   12.6472   -0.5745   15.7237 C   0  0  0  0  0  0  0  0  0  0  0  0
   11.8576   -1.7153   15.7127 C   0  0  0  0  0  0  0  0  0  0  0  0
   10.2812   -1.6135   15.0609 Cl  0  0  0  0  0  0  0  0  0  0  0  0
   12.3041   -2.8952   16.3004 C   0  0  0  0  0  0  0  0  0  0  0  0
   13.5306   -2.9109   16.9794 C   0  0  0  0  0  0  0  0  0  0  0  0
   13.9414   -4.1249   17.6176 C   0  0  0  0  0  0  0  0  0  0  0  0
   14.3044   -5.1007   18.1251 N   0  0  0  0  0  0  0  0  0  0  0  0
   17.1483   -1.3239   20.2628 C   0  0  0  0  0  0  0  0  0  0  0  0
   17.9256   -0.4337   21.2272 C   0  0  0  0  0  0  0  0  0  0  0  0
   18.3275    0.7562   20.3808 C   0  0  0  0  0  0  0  0  0  0  0  0
   18.7469    0.1013   19.0734 C   0  0  0  0  0  0  0  0  0  0  0  0
   18.0850   -2.7534   15.4335 C   0  0  0  0  0  0  0  0  0  0  0  0
   18.3910   -2.5034   14.0945 C   0  0  0  0  0  0  0  0  0  0  0  0
  1  2  1  0
  2  3  2  0
  3  4  1  0
  4  5  2  0
  5  6  1  0
  6  7  2  0
  6  8  2  0
  6  9  1  0
  9 10  1  0
 10 11  2  0
 10 12  1  0
 12 13  1  0
 13 14  2  0
 14 15  1  0
 15 16  2  0
 16 17  1  0
 16 18  1  0
 18 19  2  0
 19 20  1  0
 20 21  3  0
  9 22  1  0
 22 23  1  0
 23 24  1  0
 24 25  1  0
  5 26  1  0
 26 27  2  0
 27  2  1  0
 25  9  1  0
 19 13  1  0
M  END
>  <ref_mols>  (1186) 
B1396a

>  <gnina_score>  (1186) 
5.563

>  <smina_score_min>  (1186) 
-3.103

>  <ref_pdb>  (1186) 
B1396a

>  <inspiration_score>  (1186) 
None

>  <inchikey>  (1186) 
OEZRYFAMUFFVSB-UHFFFAOYSA-N

>  <tags>  (1186) 
BulkDock Fragalysis export,openbind_d68ev3c_c2_elabs_scored,openbind_d68ev3c_c2_elabs_scored_4.5plus,openbind_d68ev3c_c2_elabs,openbind_d68ev3c_c2_elabs_scored_5plus,syndirella_product,openbind_d68ev3c_c2_elabs_scored_top80percent,syndirella_placed

>  <smiles>  (1186) 
Cc1ccc(S(=O)(=O)C2(C(=O)Nc3ccc(Cl)cc3C#N)CCCC2)cc1

>  <subsites>  (1186) 
None

>  <rmsd(smina/fragmenstein)>  (1186) 
1.428

>  <alias>  (1186) 
None

>  <energy_score>  (1186) 
-48.392962

>  <HIPPO Pose ID>  (1186) 
95668

>  <distance_score>  (1186) 
0.621335

>  <HIPPO Compound ID>  (1186) 
129579

>  <gnina_score_min>  (1186) 
5.268

>  <name>  (1186) 
P95668

>  <exports>  (1186) 
['/opt/xchem-fragalysis-2/maxwin/BulkDock/OUTPUTS/openbind_d68ev3c_c2_elabs_1LOTQJ3.sdf', '/opt/xchem-fragalysis-2/maxwin/BulkDock/OUTPUTS/openbind_d68ev3c_c2_elabs_1LSYI5W.sdf']

$$$$
P95669
     RDKit          3D

 27 30  0  0  0  0  0  0  0  0999 V2000
   20.3866   -1.9567   12.3051 C   0  0  0  0  0  0  0  0  0  0  0  0
   19.9901   -2.0905   13.7467 C   0  0  0  0  0  0  0  0  0  0  0  0
   19.1708   -3.1497   14.1561 C   0  0  0  0  0  0  0  0  0  0  0  0
   18.7669   -3.2521   15.4872 C   0  0  0  0  0  0  0  0  0  0  0  0
   19.1596   -2.2722   16.4093 C   0  0  0  0  0  0  0  0  0  0  0  0
   18.5754   -2.3705   18.0937 S   0  0  0  0  0  0  0  0  0  0  0  0
   18.0267   -3.7083   18.2363 O   0  0  0  0  0  0  0  0  0  0  0  0
   19.6918   -1.9833   18.9400 O   0  0  0  0  0  0  0  0  0  0  0  0
   17.2340   -1.1520   18.3074 C   0  0  0  0  0  0  0  0  0  0  0  0
   16.2513   -1.4049   17.1441 C   0  0  0  0  0  0  0  0  0  0  0  0
   16.6536   -1.1925   16.0558 O   0  0  0  0  0  0  0  0  0  0  0  0
   14.8625   -1.8028   17.6187 N   0  0  0  0  0  0  0  0  0  0  0  0
   13.6005   -1.9403   16.8760 C   0  0  0  0  0  0  0  0  0  0  0  0
   13.2169   -0.7700   16.1966 C   0  0  0  0  0  0  0  0  0  0  0  0
   12.0980   -0.7417   15.3585 C   0  0  0  0  0  0  0  0  0  0  0  0
   11.3548   -1.8991   15.1657 C   0  0  0  0  0  0  0  0  0  0  0  0
   11.7266   -3.0645   15.8230 C   0  0  0  0  0  0  0  0  0  0  0  0
   12.8211   -3.0462   16.6789 C   0  0  0  0  0  0  0  0  0  0  0  0
   13.3373   -4.1206   17.4736 C   0  0  0  0  0  0  0  0  0  0  0  0
   14.6890   -3.4609   17.6588 C   0  0  2  0  0  0  0  0  0  0  0  0
   15.1081   -3.9479   19.0666 C   0  0  0  0  0  0  0  0  0  0  0  0
   17.7943    0.2960   18.1467 C   0  0  0  0  0  0  0  0  0  0  0  0
   17.0563    1.1248   19.1846 C   0  0  0  0  0  0  0  0  0  0  0  0
   17.0335    0.1928   20.3738 C   0  0  0  0  0  0  0  0  0  0  0  0
   16.6958   -1.1634   19.7606 C   0  0  0  0  0  0  0  0  0  0  0  0
   20.0033   -1.2316   16.0220 C   0  0  0  0  0  0  0  0  0  0  0  0
   20.4004   -1.1345   14.6869 C   0  0  0  0  0  0  0  0  0  0  0  0
  1  2  1  0
  2  3  2  0
  3  4  1  0
  4  5  2  0
  5  6  1  0
  6  7  2  0
  6  8  2  0
  6  9  1  0
  9 10  1  0
 10 11  2  0
 10 12  1  0
 12 13  1  0
 13 14  2  0
 14 15  1  0
 15 16  2  0
 16 17  1  0
 17 18  2  0
 18 19  1  0
 19 20  1  0
 20 21  1  1
  9 22  1  0
 22 23  1  0
 23 24  1  0
 24 25  1  0
  5 26  1  0
 26 27  2  0
 27  2  1  0
 25  9  1  0
 20 12  1  0
 18 13  1  0
M  END
>  <ref_mols>  (1187) 
B1396a

>  <gnina_score>  (1187) 
5.061

>  <smina_score_min>  (1187) 
-3.508

>  <ref_pdb>  (1187) 
B1396a

>  <inspiration_score>  (1187) 
None

>  <inchikey>  (1187) 
ZRJHZWGVHIHFHV-KRWDZBQOSA-N

>  <tags>  (1187) 
BulkDock Fragalysis export,openbind_d68ev3c_c2_elabs_scored,openbind_d68ev3c_c2_elabs_scored_4.5plus,openbind_d68ev3c_c2_elabs,openbind_d68ev3c_c2_elabs_scored_5plus,syndirella_product,openbind_d68ev3c_c2_elabs_scored_top80percent,syndirella_placed

>  <smiles>  (1187) 
Cc1ccc(S(=O)(=O)C2(C(=O)N3c4ccccc4C[C@@H]3C)CCCC2)cc1

>  <subsites>  (1187) 
None

>  <rmsd(smina/fragmenstein)>  (1187) 
2.27

>  <alias>  (1187) 
None

>  <energy_score>  (1187) 
-1.066373

>  <HIPPO Pose ID>  (1187) 
95669

>  <distance_score>  (1187) 
0.442735

>  <HIPPO Compound ID>  (1187) 
129580

>  <gnina_score_min>  (1187) 
5.032

>  <name>  (1187) 
P95669

>  <exports>  (1187) 
['/opt/xchem-fragalysis-2/maxwin/BulkDock/OUTPUTS/openbind_d68ev3c_c2_elabs_1LOTQJ3.sdf', '/opt/xchem-fragalysis-2/maxwin/BulkDock/OUTPUTS/openbind_d68ev3c_c2_elabs_1LSYI5W.sdf']

$$$$
P95670
     RDKit          3D

 27 29  0  0  0  0  0  0  0  0999 V2000
   13.7904   -4.1202   17.4962 C   0  0  0  0  0  0  0  0  0  0  0  0
   13.4107   -2.8578   16.7681 C   0  0  0  0  0  0  0  0  0  0  0  0
   12.1393   -2.7748   16.1695 C   0  0  0  0  0  0  0  0  0  0  0  0
   11.6908   -1.5738   15.6043 C   0  0  0  0  0  0  0  0  0  0  0  0
   10.3004   -1.3667   15.3314 C   0  0  0  0  0  0  0  0  0  0  0  0
    9.1624   -1.1396   15.3407 N   0  0  0  0  0  0  0  0  0  0  0  0
   12.5559   -0.4879   15.5167 C   0  0  0  0  0  0  0  0  0  0  0  0
   13.8301   -0.5703   16.0752 C   0  0  0  0  0  0  0  0  0  0  0  0
   14.2443   -1.7264   16.7440 C   0  0  0  0  0  0  0  0  0  0  0  0
   15.4484   -1.7177   17.4467 N   0  0  0  0  0  0  0  0  0  0  0  0
   16.5406   -0.6037   17.5770 C   0  0  0  0  0  0  0  0  0  0  0  0
   16.6261    0.4406   17.0511 O   0  0  0  0  0  0  0  0  0  0  0  0
   17.5629   -1.0286   18.6542 C   0  0  0  0  0  0  0  0  0  0  0  0
   18.3983   -2.5059   18.0894 S   0  0  0  0  0  0  0  0  0  0  0  0
   19.6230   -2.6813   18.8458 O   0  0  0  0  0  0  0  0  0  0  0  0
   17.4075   -3.5720   18.0743 O   0  0  0  0  0  0  0  0  0  0  0  0
   18.8701   -2.2053   16.3993 C   0  0  0  0  0  0  0  0  0  0  0  0
   19.9522   -1.3638   16.1282 C   0  0  0  0  0  0  0  0  0  0  0  0
   20.3275   -1.1332   14.8034 C   0  0  0  0  0  0  0  0  0  0  0  0
   19.6368   -1.7570   13.7647 C   0  0  0  0  0  0  0  0  0  0  0  0
   20.1092   -1.4686   12.1365 Cl  0  0  0  0  0  0  0  0  0  0  0  0
   18.5731   -2.6174   14.0370 C   0  0  0  0  0  0  0  0  0  0  0  0
   18.1873   -2.8488   15.3598 C   0  0  0  0  0  0  0  0  0  0  0  0
   18.5756    0.1134   18.9428 C   0  0  0  0  0  0  0  0  0  0  0  0
   18.0278    0.8187   20.1742 C   0  0  0  0  0  0  0  0  0  0  0  0
   17.5377   -0.3376   21.0206 C   0  0  0  0  0  0  0  0  0  0  0  0
   16.8547   -1.2601   20.0163 C   0  0  0  0  0  0  0  0  0  0  0  0
  1  2  1  0
  2  3  2  0
  3  4  1  0
  4  5  1  0
  5  6  3  0
  4  7  2  0
  7  8  1  0
  8  9  2  0
  9 10  1  0
 10 11  1  0
 11 12  2  0
 11 13  1  0
 13 14  1  0
 14 15  2  0
 14 16  2  0
 14 17  1  0
 17 18  2  0
 18 19  1  0
 19 20  2  0
 20 21  1  0
 20 22  1  0
 22 23  2  0
 13 24  1  0
 24 25  1  0
 25 26  1  0
 26 27  1  0
  9  2  1  0
 27 13  1  0
 23 17  1  0
M  END
>  <ref_mols>  (1188) 
B1396a

>  <gnina_score>  (1188) 
5.364

>  <smina_score_min>  (1188) 
-3.446

>  <ref_pdb>  (1188) 
B1396a

>  <inspiration_score>  (1188) 
None

>  <inchikey>  (1188) 
WURXEGPNBAJGGQ-UHFFFAOYSA-N

>  <tags>  (1188) 
BulkDock Fragalysis export,openbind_d68ev3c_c2_elabs_scored,openbind_d68ev3c_c2_elabs_scored_4.5plus,openbind_d68ev3c_c2_elabs,openbind_d68ev3c_c2_elabs_scored_5plus,syndirella_product,openbind_d68ev3c_c2_elabs_scored_top80percent,syndirella_placed

>  <smiles>  (1188) 
Cc1cc(C#N)ccc1NC(=O)C1(S(=O)(=O)c2ccc(Cl)cc2)CCCC1

>  <subsites>  (1188) 
None

>  <rmsd(smina/fragmenstein)>  (1188) 
1.379

>  <alias>  (1188) 
None

>  <energy_score>  (1188) 
-45.13882

>  <HIPPO Pose ID>  (1188) 
95670

>  <distance_score>  (1188) 
0.522857

>  <HIPPO Compound ID>  (1188) 
129581

>  <gnina_score_min>  (1188) 
5.161

>  <name>  (1188) 
P95670

>  <exports>  (1188) 
['/opt/xchem-fragalysis-2/maxwin/BulkDock/OUTPUTS/openbind_d68ev3c_c2_elabs_1LOTQJ3.sdf', '/opt/xchem-fragalysis-2/maxwin/BulkDock/OUTPUTS/openbind_d68ev3c_c2_elabs_1LSYI5W.sdf']

$$$$
P95673
     RDKit          3D

 27 29  0  0  0  0  0  0  0  0999 V2000
   19.8197   -1.4946   12.3373 C   0  0  0  0  0  0  0  0  0  0  0  0
   19.4168   -1.7230   13.7658 C   0  0  0  0  0  0  0  0  0  0  0  0
   20.1475   -1.1427   14.8099 C   0  0  0  0  0  0  0  0  0  0  0  0
   19.7562   -1.3294   16.1363 C   0  0  0  0  0  0  0  0  0  0  0  0
   18.6115   -2.0781   16.4183 C   0  0  0  0  0  0  0  0  0  0  0  0
   18.1484   -2.3513   18.1109 S   0  0  0  0  0  0  0  0  0  0  0  0
   17.1843   -3.4408   18.1340 O   0  0  0  0  0  0  0  0  0  0  0  0
   19.3818   -2.4885   18.8646 O   0  0  0  0  0  0  0  0  0  0  0  0
   17.2947   -0.8824   18.6582 C   0  0  0  0  0  0  0  0  0  0  0  0
   16.1884   -0.4907   17.6456 C   0  0  0  0  0  0  0  0  0  0  0  0
   16.1874    0.5753   17.1580 O   0  0  0  0  0  0  0  0  0  0  0  0
   15.1515   -1.6555   17.5347 N   0  0  0  0  0  0  0  0  0  0  0  0
   13.9975   -1.7714   16.7549 C   0  0  0  0  0  0  0  0  0  0  0  0
   13.5528   -0.6925   15.9807 C   0  0  0  0  0  0  0  0  0  0  0  0
   12.3833   -0.7933   15.2150 C   0  0  0  0  0  0  0  0  0  0  0  0
   11.9213    0.3299   14.4491 C   0  0  0  0  0  0  0  0  0  0  0  0
   11.5326    1.2440   13.8475 N   0  0  0  0  0  0  0  0  0  0  0  0
   11.6614   -1.9863   15.2098 C   0  0  0  0  0  0  0  0  0  0  0  0
   12.1036   -3.0653   15.9762 C   0  0  0  0  0  0  0  0  0  0  0  0
   13.2661   -2.9711   16.7609 C   0  0  0  0  0  0  0  0  0  0  0  0
   13.6880   -4.1611   17.5811 C   0  0  0  0  0  0  0  0  0  0  0  0
   16.7205   -1.0693   20.0734 C   0  0  0  0  0  0  0  0  0  0  0  0
   16.5252    0.3474   20.6008 C   0  0  0  0  0  0  0  0  0  0  0  0
   17.5939    1.1958   19.9201 C   0  0  0  0  0  0  0  0  0  0  0  0
   18.2728    0.2891   18.8925 C   0  0  0  0  0  0  0  0  0  0  0  0
   17.8772   -2.6712   15.3882 C   0  0  0  0  0  0  0  0  0  0  0  0
   18.2756   -2.4789   14.0637 C   0  0  0  0  0  0  0  0  0  0  0  0
  1  2  1  0
  2  3  2  0
  3  4  1  0
  4  5  2  0
  5  6  1  0
  6  7  2  0
  6  8  2  0
  6  9  1  0
  9 10  1  0
 10 11  2  0
 10 12  1  0
 12 13  1  0
 13 14  2  0
 14 15  1  0
 15 16  1  0
 16 17  3  0
 15 18  2  0
 18 19  1  0
 19 20  2  0
 20 21  1  0
  9 22  1  0
 22 23  1  0
 23 24  1  0
 24 25  1  0
  5 26  1  0
 26 27  2  0
 27  2  1  0
 25  9  1  0
 20 13  1  0
M  END
>  <ref_mols>  (1189) 
B1396a

>  <gnina_score>  (1189) 
5.093

>  <smina_score_min>  (1189) 
-4.072

>  <ref_pdb>  (1189) 
B1396a

>  <inspiration_score>  (1189) 
None

>  <inchikey>  (1189) 
UYWWEWYJGAPHRL-UHFFFAOYSA-N

>  <tags>  (1189) 
BulkDock Fragalysis export,openbind_d68ev3c_c2_elabs_scored,openbind_d68ev3c_c2_elabs_scored_4.5plus,openbind_d68ev3c_c2_elabs,openbind_d68ev3c_c2_elabs_scored_5plus,syndirella_product,openbind_d68ev3c_c2_elabs_scored_top80percent,syndirella_placed

>  <smiles>  (1189) 
Cc1ccc(S(=O)(=O)C2(C(=O)Nc3cc(C#N)ccc3C)CCCC2)cc1

>  <subsites>  (1189) 
None

>  <rmsd(smina/fragmenstein)>  (1189) 
1.837

>  <alias>  (1189) 
None

>  <energy_score>  (1189) 
-37.090428

>  <HIPPO Pose ID>  (1189) 
95673

>  <distance_score>  (1189) 
0.460027

>  <HIPPO Compound ID>  (1189) 
129586

>  <gnina_score_min>  (1189) 
5.047

>  <name>  (1189) 
P95673

>  <exports>  (1189) 
['/opt/xchem-fragalysis-2/maxwin/BulkDock/OUTPUTS/openbind_d68ev3c_c2_elabs_1LOTQJ3.sdf', '/opt/xchem-fragalysis-2/maxwin/BulkDock/OUTPUTS/openbind_d68ev3c_c2_elabs_1LSYI5W.sdf']

$$$$
P95674
     RDKit          3D

 27 29  0  0  0  0  0  0  0  0999 V2000
   19.6307   -1.3498   12.3356 C   0  0  0  0  0  0  0  0  0  0  0  0
   19.3492   -1.6638   13.7767 C   0  0  0  0  0  0  0  0  0  0  0  0
   18.2162   -2.4081   14.1277 C   0  0  0  0  0  0  0  0  0  0  0  0
   17.9340   -2.6802   15.4680 C   0  0  0  0  0  0  0  0  0  0  0  0
   18.7750   -2.1784   16.4661 C   0  0  0  0  0  0  0  0  0  0  0  0
   18.4664   -2.5839   18.1715 S   0  0  0  0  0  0  0  0  0  0  0  0
   19.7629   -2.8014   18.7846 O   0  0  0  0  0  0  0  0  0  0  0  0
   17.4830   -3.6572   18.1797 O   0  0  0  0  0  0  0  0  0  0  0  0
   17.6927   -1.1696   18.9378 C   0  0  0  0  0  0  0  0  0  0  0  0
   16.6194   -0.6020   17.9975 C   0  0  0  0  0  0  0  0  0  0  0  0
   16.6815    0.5071   17.6219 O   0  0  0  0  0  0  0  0  0  0  0  0
   15.5078   -1.6838   17.7842 N   0  0  0  0  0  0  0  0  0  0  0  0
   14.3439   -1.6462   17.0172 C   0  0  0  0  0  0  0  0  0  0  0  0
   13.9728   -0.4469   16.3973 C   0  0  0  0  0  0  0  0  0  0  0  0
   12.7363   -0.3191   15.7712 C   0  0  0  0  0  0  0  0  0  0  0  0
   11.8750   -1.4041   15.7418 C   0  0  0  0  0  0  0  0  0  0  0  0
   10.1092   -1.1119   15.1560 Br  0  0  0  0  0  0  0  0  0  0  0  0
   12.2828   -2.6320   16.2600 C   0  0  0  0  0  0  0  0  0  0  0  0
   11.4646   -3.6883   16.1767 F   0  0  0  0  0  0  0  0  0  0  0  0
   13.5093   -2.7724   16.9248 C   0  0  0  0  0  0  0  0  0  0  0  0
   13.8479   -4.0856   17.5737 C   0  0  0  0  0  0  0  0  0  0  0  0
   17.0791   -1.5205   20.3074 C   0  0  0  0  0  0  0  0  0  0  0  0
   18.2362   -1.4791   21.2955 C   0  0  0  0  0  0  0  0  0  0  0  0
   19.2164   -0.4547   20.7428 C   0  0  0  0  0  0  0  0  0  0  0  0
   18.7205   -0.0905   19.3434 C   0  0  0  0  0  0  0  0  0  0  0  0
   19.9133   -1.4444   16.1280 C   0  0  0  0  0  0  0  0  0  0  0  0
   20.1884   -1.1762   14.7858 C   0  0  0  0  0  0  0  0  0  0  0  0
  1  2  1  0
  2  3  2  0
  3  4  1  0
  4  5  2  0
  5  6  1  0
  6  7  2  0
  6  8  2  0
  6  9  1  0
  9 10  1  0
 10 11  2  0
 10 12  1  0
 12 13  1  0
 13 14  2  0
 14 15  1  0
 15 16  2  0
 16 17  1  0
 16 18  1  0
 18 19  1  0
 18 20  2  0
 20 21  1  0
  9 22  1  0
 22 23  1  0
 23 24  1  0
 24 25  1  0
  5 26  1  0
 26 27  2  0
 27  2  1  0
 25  9  1  0
 20 13  1  0
M  END
>  <ref_mols>  (1190) 
B1396a

>  <gnina_score>  (1190) 
5.528

>  <smina_score_min>  (1190) 
-4.039

>  <ref_pdb>  (1190) 
B1396a

>  <inspiration_score>  (1190) 
None

>  <inchikey>  (1190) 
AAJOVMRFYUMJLL-UHFFFAOYSA-N

>  <tags>  (1190) 
BulkDock Fragalysis export,openbind_d68ev3c_c2_elabs_scored,openbind_d68ev3c_c2_elabs_scored_4.5plus,openbind_d68ev3c_c2_elabs,openbind_d68ev3c_c2_elabs_scored_5plus,syndirella_product,openbind_d68ev3c_c2_elabs_scored_top80percent,syndirella_placed

>  <smiles>  (1190) 
Cc1ccc(S(=O)(=O)C2(C(=O)Nc3ccc(Br)c(F)c3C)CCCC2)cc1

>  <subsites>  (1190) 
None

>  <rmsd(smina/fragmenstein)>  (1190) 
3.461

>  <alias>  (1190) 
None

>  <energy_score>  (1190) 
-36.773881

>  <HIPPO Pose ID>  (1190) 
95674

>  <distance_score>  (1190) 
0.70524

>  <HIPPO Compound ID>  (1190) 
129592

>  <gnina_score_min>  (1190) 
5.184

>  <name>  (1190) 
P95674

>  <exports>  (1190) 
['/opt/xchem-fragalysis-2/maxwin/BulkDock/OUTPUTS/openbind_d68ev3c_c2_elabs_1LOTQJ3.sdf', '/opt/xchem-fragalysis-2/maxwin/BulkDock/OUTPUTS/openbind_d68ev3c_c2_elabs_1LSYI5W.sdf']

$$$$
P95678
     RDKit          3D

 27 29  0  0  0  0  0  0  0  0999 V2000
   19.7658   -1.5910   12.2693 C   0  0  0  0  0  0  0  0  0  0  0  0
   19.4123   -1.7907   13.7149 C   0  0  0  0  0  0  0  0  0  0  0  0
   18.2238   -2.4429   14.0661 C   0  0  0  0  0  0  0  0  0  0  0  0
   17.8738   -2.6073   15.4080 C   0  0  0  0  0  0  0  0  0  0  0  0
   18.7021   -2.0834   16.4048 C   0  0  0  0  0  0  0  0  0  0  0  0
   18.2883   -2.3230   18.1187 S   0  0  0  0  0  0  0  0  0  0  0  0
   17.3506   -3.4346   18.1797 O   0  0  0  0  0  0  0  0  0  0  0  0
   19.5397   -2.4148   18.8484 O   0  0  0  0  0  0  0  0  0  0  0  0
   17.4048   -0.8538   18.6644 C   0  0  0  0  0  0  0  0  0  0  0  0
   16.2979   -0.5284   17.6359 C   0  0  0  0  0  0  0  0  0  0  0  0
   16.2962    0.4897   17.0547 O   0  0  0  0  0  0  0  0  0  0  0  0
   15.2512   -1.6917   17.6447 N   0  0  0  0  0  0  0  0  0  0  0  0
   14.0864   -1.8680   16.8959 C   0  0  0  0  0  0  0  0  0  0  0  0
   13.5810   -0.8199   16.1129 C   0  0  0  0  0  0  0  0  0  0  0  0
   12.3939   -0.9727   15.3821 C   0  0  0  0  0  0  0  0  0  0  0  0
   11.8315    0.1484   14.5635 C   0  0  0  0  0  0  0  0  0  0  0  0
   11.7183   -2.1860   15.4624 C   0  0  0  0  0  0  0  0  0  0  0  0
   10.5535   -2.3509   14.8244 F   0  0  0  0  0  0  0  0  0  0  0  0
   12.2142   -3.2366   16.2231 C   0  0  0  0  0  0  0  0  0  0  0  0
   13.4043   -3.0953   16.9487 C   0  0  0  0  0  0  0  0  0  0  0  0
   13.8963   -4.2607   17.7609 C   0  0  0  0  0  0  0  0  0  0  0  0
   16.8077   -1.0788   20.0836 C   0  0  0  0  0  0  0  0  0  0  0  0
   17.3288    0.0558   20.9586 C   0  0  0  0  0  0  0  0  0  0  0  0
   18.6691    0.3989   20.3471 C   0  0  0  0  0  0  0  0  0  0  0  0
   18.3791    0.3406   18.8541 C   0  0  0  0  0  0  0  0  0  0  0  0
   19.8976   -1.4456   16.0676 C   0  0  0  0  0  0  0  0  0  0  0  0
   20.2412   -1.2869   14.7241 C   0  0  0  0  0  0  0  0  0  0  0  0
  1  2  1  0
  2  3  2  0
  3  4  1  0
  4  5  2  0
  5  6  1  0
  6  7  2  0
  6  8  2  0
  6  9  1  0
  9 10  1  0
 10 11  2  0
 10 12  1  0
 12 13  1  0
 13 14  2  0
 14 15  1  0
 15 16  1  0
 15 17  2  0
 17 18  1  0
 17 19  1  0
 19 20  2  0
 20 21  1  0
  9 22  1  0
 22 23  1  0
 23 24  1  0
 24 25  1  0
  5 26  1  0
 26 27  2  0
 27  2  1  0
 25  9  1  0
 20 13  1  0
M  END
>  <ref_mols>  (1191) 
B1396a

>  <gnina_score>  (1191) 
5.206

>  <smina_score_min>  (1191) 
-3.949

>  <ref_pdb>  (1191) 
B1396a

>  <inspiration_score>  (1191) 
None

>  <inchikey>  (1191) 
PQNGNOACOFRGML-UHFFFAOYSA-N

>  <tags>  (1191) 
BulkDock Fragalysis export,openbind_d68ev3c_c2_elabs_scored,openbind_d68ev3c_c2_elabs_scored_4.5plus,openbind_d68ev3c_c2_elabs,openbind_d68ev3c_c2_elabs_scored_5plus,syndirella_product,openbind_d68ev3c_c2_elabs_scored_top80percent,syndirella_placed

>  <smiles>  (1191) 
Cc1ccc(S(=O)(=O)C2(C(=O)Nc3cc(C)c(F)cc3C)CCCC2)cc1

>  <subsites>  (1191) 
None

>  <rmsd(smina/fragmenstein)>  (1191) 
1.312

>  <alias>  (1191) 
None

>  <energy_score>  (1191) 
-49.136859

>  <HIPPO Pose ID>  (1191) 
95678

>  <distance_score>  (1191) 
0.448008

>  <HIPPO Compound ID>  (1191) 
129597

>  <gnina_score_min>  (1191) 
5.116

>  <name>  (1191) 
P95678

>  <exports>  (1191) 
['/opt/xchem-fragalysis-2/maxwin/BulkDock/OUTPUTS/openbind_d68ev3c_c2_elabs_1LOTQJ3.sdf', '/opt/xchem-fragalysis-2/maxwin/BulkDock/OUTPUTS/openbind_d68ev3c_c2_elabs_1LSYI5W.sdf']

$$$$
P95679
     RDKit          3D

 27 29  0  0  0  0  0  0  0  0999 V2000
   13.9830   -4.1612   17.6522 C   0  0  0  0  0  0  0  0  0  0  0  0
   13.3968   -2.9940   16.8954 C   0  0  0  0  0  0  0  0  0  0  0  0
   12.2065   -3.2222   16.1902 C   0  0  0  0  0  0  0  0  0  0  0  0
   11.6117   -2.2037   15.4725 C   0  0  0  0  0  0  0  0  0  0  0  0
   10.4607   -2.4371   14.8339 F   0  0  0  0  0  0  0  0  0  0  0  0
   12.1572   -0.9344   15.4661 C   0  0  0  0  0  0  0  0  0  0  0  0
   13.3441   -0.6640   16.1705 C   0  0  0  0  0  0  0  0  0  0  0  0
   13.7205    1.0841   16.2482 S   0  0  0  0  0  0  0  0  0  0  0  0
   14.0071   -1.7104   16.8600 C   0  0  0  0  0  0  0  0  0  0  0  0
   15.2369   -1.6033   17.5426 N   0  0  0  0  0  0  0  0  0  0  0  0
   16.3680   -0.5270   17.4355 C   0  0  0  0  0  0  0  0  0  0  0  0
   16.4800    0.3868   16.7093 O   0  0  0  0  0  0  0  0  0  0  0  0
   17.4289   -0.7884   18.5353 C   0  0  0  0  0  0  0  0  0  0  0  0
   18.2790   -2.3216   18.1128 S   0  0  0  0  0  0  0  0  0  0  0  0
   19.4831   -2.4244   18.9158 O   0  0  0  0  0  0  0  0  0  0  0  0
   17.2994   -3.3951   18.1714 O   0  0  0  0  0  0  0  0  0  0  0  0
   18.7867   -2.1579   16.4157 C   0  0  0  0  0  0  0  0  0  0  0  0
   19.9792   -1.4932   16.1180 C   0  0  0  0  0  0  0  0  0  0  0  0
   20.3740   -1.3542   14.7881 C   0  0  0  0  0  0  0  0  0  0  0  0
   19.5932   -1.8952   13.7672 C   0  0  0  0  0  0  0  0  0  0  0  0
   18.4192   -2.5852   14.0705 C   0  0  0  0  0  0  0  0  0  0  0  0
   18.0142   -2.7282   15.3982 C   0  0  0  0  0  0  0  0  0  0  0  0
   16.7526   -0.9083   19.9251 C   0  0  0  0  0  0  0  0  0  0  0  0
   17.5951   -0.2586   21.0105 C   0  0  0  0  0  0  0  0  0  0  0  0
   17.7512    1.1379   20.7800 O   0  0  0  0  0  0  0  0  0  0  0  0
   17.9420    1.5209   19.4201 C   0  0  0  0  0  0  0  0  0  0  0  0
   18.4557    0.3806   18.5555 C   0  0  0  0  0  0  0  0  0  0  0  0
  1  2  1  0
  2  3  2  0
  3  4  1  0
  4  5  1  0
  4  6  2  0
  6  7  1  0
  7  8  1  0
  7  9  2  0
  9 10  1  0
 10 11  1  0
 11 12  2  0
 11 13  1  0
 13 14  1  0
 14 15  2  0
 14 16  2  0
 14 17  1  0
 17 18  2  0
 18 19  1  0
 19 20  2  0
 20 21  1  0
 21 22  2  0
 13 23  1  0
 23 24  1  0
 24 25  1  0
 25 26  1  0
 26 27  1  0
  9  2  1  0
 27 13  1  0
 22 17  1  0
M  END
>  <ref_mols>  (1192) 
B1396a

>  <gnina_score>  (1192) 
5.156

>  <smina_score_min>  (1192) 
-3.767

>  <ref_pdb>  (1192) 
B1396a

>  <inspiration_score>  (1192) 
None

>  <inchikey>  (1192) 
KSMQOXPGFQIHSL-UHFFFAOYSA-N

>  <tags>  (1192) 
BulkDock Fragalysis export,openbind_d68ev3c_c2_elabs_scored,openbind_d68ev3c_c2_elabs_scored_4.5plus,openbind_d68ev3c_c2_elabs,openbind_d68ev3c_c2_elabs_scored_5plus,syndirella_product,openbind_d68ev3c_c2_elabs_scored_top80percent,syndirella_placed

>  <smiles>  (1192) 
Cc1cc(F)cc(S)c1NC(=O)C1(S(=O)(=O)c2ccccc2)CCOCC1

>  <subsites>  (1192) 
None

>  <rmsd(smina/fragmenstein)>  (1192) 
1.522

>  <alias>  (1192) 
None

>  <energy_score>  (1192) 
-56.272308

>  <HIPPO Pose ID>  (1192) 
95679

>  <distance_score>  (1192) 
0.392803

>  <HIPPO Compound ID>  (1192) 
129598

>  <gnina_score_min>  (1192) 
5.057

>  <name>  (1192) 
P95679

>  <exports>  (1192) 
['/opt/xchem-fragalysis-2/maxwin/BulkDock/OUTPUTS/openbind_d68ev3c_c2_elabs_1LOTQJ3.sdf', '/opt/xchem-fragalysis-2/maxwin/BulkDock/OUTPUTS/openbind_d68ev3c_c2_elabs_1LSYI5W.sdf']

$$$$
P95682
     RDKit          3D

 27 29  0  0  0  0  0  0  0  0999 V2000
   10.7587   -2.2528   14.6616 C   0  0  0  0  0  0  0  0  0  0  0  0
   11.8971   -2.0299   15.5943 C   0  0  0  0  0  0  0  0  0  0  0  0
   12.4491   -3.0908   16.3024 C   0  0  0  0  0  0  0  0  0  0  0  0
   13.5977   -2.9142   17.0870 C   0  0  0  0  0  0  0  0  0  0  0  0
   14.1447   -4.1344   17.7854 C   0  0  0  0  0  0  0  0  0  0  0  0
   14.2250   -1.6429   17.1441 C   0  0  0  0  0  0  0  0  0  0  0  0
   15.4572   -1.5901   17.8179 N   0  0  0  0  0  0  0  0  0  0  0  0
   16.6267   -0.5550   17.7168 C   0  0  0  0  0  0  0  0  0  0  0  0
   16.7683    0.3627   17.0015 O   0  0  0  0  0  0  0  0  0  0  0  0
   17.7040   -0.8872   18.7838 C   0  0  0  0  0  0  0  0  0  0  0  0
   18.4805   -2.4262   18.2363 S   0  0  0  0  0  0  0  0  0  0  0  0
   17.4761   -3.4759   18.3147 O   0  0  0  0  0  0  0  0  0  0  0  0
   19.7331   -2.5985   18.9486 O   0  0  0  0  0  0  0  0  0  0  0  0
   18.8862   -2.2048   16.5158 C   0  0  0  0  0  0  0  0  0  0  0  0
   20.0467   -1.5073   16.1706 C   0  0  0  0  0  0  0  0  0  0  0  0
   20.3697   -1.3316   14.8254 C   0  0  0  0  0  0  0  0  0  0  0  0
   19.5489   -1.8674   13.8340 C   0  0  0  0  0  0  0  0  0  0  0  0
   18.4049   -2.5858   14.1826 C   0  0  0  0  0  0  0  0  0  0  0  0
   18.0716   -2.7657   15.5261 C   0  0  0  0  0  0  0  0  0  0  0  0
   18.7726    0.2506   18.8569 C   0  0  0  0  0  0  0  0  0  0  0  0
   18.4715    1.3424   19.8953 C   0  0  0  0  0  0  0  0  0  0  0  0
   16.9892    1.4881   20.2006 C   0  0  0  0  0  0  0  0  0  0  0  0
   16.3777    0.1795   20.6967 C   0  0  0  0  0  0  0  0  0  0  0  0
   17.1167   -1.0665   20.2004 C   0  0  0  0  0  0  0  0  0  0  0  0
   13.5947   -0.5571   16.5079 C   0  0  0  0  0  0  0  0  0  0  0  0
   13.9986    1.2783   16.8045 Br  0  0  0  0  0  0  0  0  0  0  0  0
   12.4600   -0.7636   15.7148 C   0  0  0  0  0  0  0  0  0  0  0  0
  1  2  1  0
  2  3  2  0
  3  4  1  0
  4  5  1  0
  4  6  2  0
  6  7  1  0
  7  8  1  0
  8  9  2  0
  8 10  1  0
 10 11  1  0
 11 12  2  0
 11 13  2  0
 11 14  1  0
 14 15  2  0
 15 16  1  0
 16 17  2  0
 17 18  1  0
 18 19  2  0
 10 20  1  0
 20 21  1  0
 21 22  1  0
 22 23  1  0
 23 24  1  0
  6 25  1  0
 25 26  1  0
 25 27  2  0
 27  2  1  0
 24 10  1  0
 19 14  1  0
M  END
>  <ref_mols>  (1193) 
B1396a

>  <gnina_score>  (1193) 
5.222

>  <smina_score_min>  (1193) 
-3.608

>  <ref_pdb>  (1193) 
B1396a

>  <inspiration_score>  (1193) 
None

>  <inchikey>  (1193) 
UZFHZRQVVGLFHX-UHFFFAOYSA-N

>  <tags>  (1193) 
BulkDock Fragalysis export,openbind_d68ev3c_c2_elabs_scored,openbind_d68ev3c_c2_elabs_scored_4.5plus,openbind_d68ev3c_c2_elabs,openbind_d68ev3c_c2_elabs_scored_5plus,syndirella_product,openbind_d68ev3c_c2_elabs_scored_top80percent,syndirella_placed

>  <smiles>  (1193) 
Cc1cc(C)c(NC(=O)C2(S(=O)(=O)c3ccccc3)CCCCC2)c(Br)c1

>  <subsites>  (1193) 
None

>  <rmsd(smina/fragmenstein)>  (1193) 
1.596

>  <alias>  (1193) 
None

>  <energy_score>  (1193) 
-45.492734

>  <HIPPO Pose ID>  (1193) 
95682

>  <distance_score>  (1193) 
0.55314

>  <HIPPO Compound ID>  (1193) 
129601

>  <gnina_score_min>  (1193) 
5.075

>  <name>  (1193) 
P95682

>  <exports>  (1193) 
['/opt/xchem-fragalysis-2/maxwin/BulkDock/OUTPUTS/openbind_d68ev3c_c2_elabs_1LOTQJ3.sdf', '/opt/xchem-fragalysis-2/maxwin/BulkDock/OUTPUTS/openbind_d68ev3c_c2_elabs_1LSYI5W.sdf']

$$$$
P95684
     RDKit          3D

 27 29  0  0  0  0  0  0  0  0999 V2000
   13.9832   -4.1661   17.6423 C   0  0  0  0  0  0  0  0  0  0  0  0
   13.4124   -2.9889   16.8883 C   0  0  0  0  0  0  0  0  0  0  0  0
   12.2221   -3.2050   16.1786 C   0  0  0  0  0  0  0  0  0  0  0  0
   11.6347   -2.1770   15.4698 C   0  0  0  0  0  0  0  0  0  0  0  0
   10.4848   -2.3983   14.8250 F   0  0  0  0  0  0  0  0  0  0  0  0
   12.1890   -0.9115   15.4763 C   0  0  0  0  0  0  0  0  0  0  0  0
   13.3758   -0.6518   16.1870 C   0  0  0  0  0  0  0  0  0  0  0  0
   13.7560    1.0945   16.2650 S   0  0  0  0  0  0  0  0  0  0  0  0
   14.0307   -1.7066   16.8715 C   0  0  0  0  0  0  0  0  0  0  0  0
   15.2497   -1.6174   17.5795 N   0  0  0  0  0  0  0  0  0  0  0  0
   16.3679   -0.5219   17.5443 C   0  0  0  0  0  0  0  0  0  0  0  0
   16.4787    0.4283   16.8660 O   0  0  0  0  0  0  0  0  0  0  0  0
   17.4241   -0.8176   18.6512 C   0  0  0  0  0  0  0  0  0  0  0  0
   18.2805   -2.3371   18.1521 S   0  0  0  0  0  0  0  0  0  0  0  0
   17.3140   -3.4225   18.2270 O   0  0  0  0  0  0  0  0  0  0  0  0
   19.5192   -2.4449   18.9009 O   0  0  0  0  0  0  0  0  0  0  0  0
   18.7283   -2.1522   16.4361 C   0  0  0  0  0  0  0  0  0  0  0  0
   17.8842   -2.6452   15.4353 C   0  0  0  0  0  0  0  0  0  0  0  0
   18.2493   -2.4980   14.0959 C   0  0  0  0  0  0  0  0  0  0  0  0
   19.4591   -1.8892   13.7619 C   0  0  0  0  0  0  0  0  0  0  0  0
   20.3150   -1.4346   14.7635 C   0  0  0  0  0  0  0  0  0  0  0  0
   19.9582   -1.5763   16.1041 C   0  0  0  0  0  0  0  0  0  0  0  0
   18.4372    0.3730   18.7305 C   0  0  0  0  0  0  0  0  0  0  0  0
   19.0340    0.5708   20.1225 C   0  0  0  0  0  0  0  0  0  0  0  0
   17.9556    0.9081   21.1489 C   0  0  0  0  0  0  0  0  0  0  0  0
   16.6065    0.2729   20.8234 C   0  0  0  0  0  0  0  0  0  0  0  0
   16.7709   -1.0336   20.0511 C   0  0  0  0  0  0  0  0  0  0  0  0
  1  2  1  0
  2  3  2  0
  3  4  1  0
  4  5  1  0
  4  6  2  0
  6  7  1  0
  7  8  1  0
  7  9  2  0
  9 10  1  0
 10 11  1  0
 11 12  2  0
 11 13  1  0
 13 14  1  0
 14 15  2  0
 14 16  2  0
 14 17  1  0
 17 18  2  0
 18 19  1  0
 19 20  2  0
 20 21  1  0
 21 22  2  0
 13 23  1  0
 23 24  1  0
 24 25  1  0
 25 26  1  0
 26 27  1  0
  9  2  1  0
 27 13  1  0
 22 17  1  0
M  END
>  <ref_mols>  (1194) 
B1396a

>  <gnina_score>  (1194) 
5.32

>  <smina_score_min>  (1194) 
-3.759

>  <ref_pdb>  (1194) 
B1396a

>  <inspiration_score>  (1194) 
None

>  <inchikey>  (1194) 
WSTLLSLRCIBXLY-UHFFFAOYSA-N

>  <tags>  (1194) 
BulkDock Fragalysis export,openbind_d68ev3c_c2_elabs_scored,openbind_d68ev3c_c2_elabs_scored_4.5plus,openbind_d68ev3c_c2_elabs,openbind_d68ev3c_c2_elabs_scored_5plus,syndirella_product,openbind_d68ev3c_c2_elabs_scored_top80percent,syndirella_placed

>  <smiles>  (1194) 
Cc1cc(F)cc(S)c1NC(=O)C1(S(=O)(=O)c2ccccc2)CCCCC1

>  <subsites>  (1194) 
None

>  <rmsd(smina/fragmenstein)>  (1194) 
1.503

>  <alias>  (1194) 
None

>  <energy_score>  (1194) 
-42.611282

>  <HIPPO Pose ID>  (1194) 
95684

>  <distance_score>  (1194) 
0.428162

>  <HIPPO Compound ID>  (1194) 
129604

>  <gnina_score_min>  (1194) 
5.24

>  <name>  (1194) 
P95684

>  <exports>  (1194) 
['/opt/xchem-fragalysis-2/maxwin/BulkDock/OUTPUTS/openbind_d68ev3c_c2_elabs_1LOTQJ3.sdf', '/opt/xchem-fragalysis-2/maxwin/BulkDock/OUTPUTS/openbind_d68ev3c_c2_elabs_1LSYI5W.sdf']

$$$$
P95686
     RDKit          3D

 27 29  0  0  0  0  0  0  0  0999 V2000
   13.8893   -3.9609   17.4760 C   0  0  0  0  0  0  0  0  0  0  0  0
   13.4548   -2.6460   16.8688 C   0  0  0  0  0  0  0  0  0  0  0  0
   12.1975   -2.6133   16.2352 C   0  0  0  0  0  0  0  0  0  0  0  0
   11.7034   -1.4155   15.7437 C   0  0  0  0  0  0  0  0  0  0  0  0
    9.9205   -1.2360   15.1698 Br  0  0  0  0  0  0  0  0  0  0  0  0
   12.4722   -0.2667   15.8025 C   0  0  0  0  0  0  0  0  0  0  0  0
   13.7321   -0.2600   16.4276 C   0  0  0  0  0  0  0  0  0  0  0  0
   14.3738    1.0958   16.5237 C   0  0  0  0  0  0  0  0  0  0  0  0
   14.2438   -1.4613   16.9633 C   0  0  0  0  0  0  0  0  0  0  0  0
   15.4660   -1.5770   17.6573 N   0  0  0  0  0  0  0  0  0  0  0  0
   16.6844   -0.5930   17.7444 C   0  0  0  0  0  0  0  0  0  0  0  0
   16.8821    0.4216   17.1904 O   0  0  0  0  0  0  0  0  0  0  0  0
   17.6823   -1.1157   18.7956 C   0  0  0  0  0  0  0  0  0  0  0  0
   18.4127   -2.6116   18.1469 S   0  0  0  0  0  0  0  0  0  0  0  0
   19.6459   -2.8824   18.8604 O   0  0  0  0  0  0  0  0  0  0  0  0
   17.3650   -3.6206   18.1212 O   0  0  0  0  0  0  0  0  0  0  0  0
   18.8574   -2.2703   16.4559 C   0  0  0  0  0  0  0  0  0  0  0  0
   18.1009   -2.8161   15.4117 C   0  0  0  0  0  0  0  0  0  0  0  0
   18.4634   -2.5505   14.0885 C   0  0  0  0  0  0  0  0  0  0  0  0
   19.5771   -1.7548   13.8196 C   0  0  0  0  0  0  0  0  0  0  0  0
   20.0196   -1.4234   12.1912 Cl  0  0  0  0  0  0  0  0  0  0  0  0
   20.3395   -1.2280   14.8618 C   0  0  0  0  0  0  0  0  0  0  0  0
   19.9870   -1.4925   16.1867 C   0  0  0  0  0  0  0  0  0  0  0  0
   18.7715   -0.0501   19.1079 C   0  0  0  0  0  0  0  0  0  0  0  0
   18.3056    0.6230   20.3900 C   0  0  0  0  0  0  0  0  0  0  0  0
   17.7663   -0.5432   21.1912 C   0  0  0  0  0  0  0  0  0  0  0  0
   16.9886   -1.3569   20.1627 C   0  0  0  0  0  0  0  0  0  0  0  0
  1  2  1  0
  2  3  2  0
  3  4  1  0
  4  5  1  0
  4  6  2  0
  6  7  1  0
  7  8  1  0
  7  9  2  0
  9 10  1  0
 10 11  1  0
 11 12  2  0
 11 13  1  0
 13 14  1  0
 14 15  2  0
 14 16  2  0
 14 17  1  0
 17 18  2  0
 18 19  1  0
 19 20  2  0
 20 21  1  0
 20 22  1  0
 22 23  2  0
 13 24  1  0
 24 25  1  0
 25 26  1  0
 26 27  1  0
  9  2  1  0
 27 13  1  0
 23 17  1  0
M  END
>  <ref_mols>  (1195) 
B1396a

>  <gnina_score>  (1195) 
5.63

>  <smina_score_min>  (1195) 
-4.165

>  <ref_pdb>  (1195) 
B1396a

>  <inspiration_score>  (1195) 
None

>  <inchikey>  (1195) 
RUZGFLQFEZVLDY-UHFFFAOYSA-N

>  <tags>  (1195) 
BulkDock Fragalysis export,openbind_d68ev3c_c2_elabs_scored,openbind_d68ev3c_c2_elabs_scored_4.5plus,openbind_d68ev3c_c2_elabs,openbind_d68ev3c_c2_elabs_scored_5plus,syndirella_product,openbind_d68ev3c_c2_elabs_scored_top80percent,syndirella_placed

>  <smiles>  (1195) 
Cc1cc(Br)cc(C)c1NC(=O)C1(S(=O)(=O)c2ccc(Cl)cc2)CCCC1

>  <subsites>  (1195) 
None

>  <rmsd(smina/fragmenstein)>  (1195) 
3.634

>  <alias>  (1195) 
None

>  <energy_score>  (1195) 
-49.354769

>  <HIPPO Pose ID>  (1195) 
95686

>  <distance_score>  (1195) 
0.642979

>  <HIPPO Compound ID>  (1195) 
129606

>  <gnina_score_min>  (1195) 
5.093

>  <name>  (1195) 
P95686

>  <exports>  (1195) 
['/opt/xchem-fragalysis-2/maxwin/BulkDock/OUTPUTS/openbind_d68ev3c_c2_elabs_1LOTQJ3.sdf', '/opt/xchem-fragalysis-2/maxwin/BulkDock/OUTPUTS/openbind_d68ev3c_c2_elabs_1LSYI5W.sdf']

$$$$
P95688
     RDKit          3D

 27 29  0  0  0  0  0  0  0  0999 V2000
   13.6711   -4.1654   17.5285 C   0  0  0  0  0  0  0  0  0  0  0  0
   13.2390   -2.9716   16.7187 C   0  0  0  0  0  0  0  0  0  0  0  0
   12.0596   -3.0552   15.9596 C   0  0  0  0  0  0  0  0  0  0  0  0
   11.6037   -1.9677   15.2133 C   0  0  0  0  0  0  0  0  0  0  0  0
   12.3274   -0.7756   15.2147 C   0  0  0  0  0  0  0  0  0  0  0  0
   11.8490    0.3571   14.4732 C   0  0  0  0  0  0  0  0  0  0  0  0
   11.4467    1.2807   13.8956 N   0  0  0  0  0  0  0  0  0  0  0  0
   13.5164   -0.6867   15.9507 C   0  0  0  0  0  0  0  0  0  0  0  0
   13.9779   -1.7769   16.6982 C   0  0  0  0  0  0  0  0  0  0  0  0
   15.1685   -1.6877   17.4223 N   0  0  0  0  0  0  0  0  0  0  0  0
   16.2174   -0.5327   17.5112 C   0  0  0  0  0  0  0  0  0  0  0  0
   16.2779    0.4836   16.9310 O   0  0  0  0  0  0  0  0  0  0  0  0
   17.2547   -0.8759   18.6072 C   0  0  0  0  0  0  0  0  0  0  0  0
   18.1643   -2.3333   18.1190 S   0  0  0  0  0  0  0  0  0  0  0  0
   19.3736   -2.4325   18.9148 O   0  0  0  0  0  0  0  0  0  0  0  0
   17.2206   -3.4407   18.1179 O   0  0  0  0  0  0  0  0  0  0  0  0
   18.6835   -2.0781   16.4358 C   0  0  0  0  0  0  0  0  0  0  0  0
   19.7908   -1.2641   16.1793 C   0  0  0  0  0  0  0  0  0  0  0  0
   20.2235   -1.0855   14.8640 C   0  0  0  0  0  0  0  0  0  0  0  0
   19.5635   -1.7335   13.8204 C   0  0  0  0  0  0  0  0  0  0  0  0
   20.1054   -1.5106   12.2037 Cl  0  0  0  0  0  0  0  0  0  0  0  0
   18.4741   -2.5658   14.0792 C   0  0  0  0  0  0  0  0  0  0  0  0
   18.0322   -2.7470   15.3928 C   0  0  0  0  0  0  0  0  0  0  0  0
   16.6027   -1.0565   19.9878 C   0  0  0  0  0  0  0  0  0  0  0  0
   16.3423    0.3628   20.4799 C   0  0  0  0  0  0  0  0  0  0  0  0
   17.4145    1.2326   19.8316 C   0  0  0  0  0  0  0  0  0  0  0  0
   18.1905    0.3190   18.8825 C   0  0  0  0  0  0  0  0  0  0  0  0
  1  2  1  0
  2  3  2  0
  3  4  1  0
  4  5  2  0
  5  6  1  0
  6  7  3  0
  5  8  1  0
  8  9  2  0
  9 10  1  0
 10 11  1  0
 11 12  2  0
 11 13  1  0
 13 14  1  0
 14 15  2  0
 14 16  2  0
 14 17  1  0
 17 18  2  0
 18 19  1  0
 19 20  2  0
 20 21  1  0
 20 22  1  0
 22 23  2  0
 13 24  1  0
 24 25  1  0
 25 26  1  0
 26 27  1  0
  9  2  1  0
 27 13  1  0
 23 17  1  0
M  END
>  <ref_mols>  (1196) 
B1396a

>  <gnina_score>  (1196) 
5.25

>  <smina_score_min>  (1196) 
-4.042

>  <ref_pdb>  (1196) 
B1396a

>  <inspiration_score>  (1196) 
None

>  <inchikey>  (1196) 
GBRPLLAISQVHPX-UHFFFAOYSA-N

>  <tags>  (1196) 
BulkDock Fragalysis export,openbind_d68ev3c_c2_elabs_scored,openbind_d68ev3c_c2_elabs_scored_4.5plus,openbind_d68ev3c_c2_elabs,openbind_d68ev3c_c2_elabs_scored_5plus,syndirella_product,openbind_d68ev3c_c2_elabs_scored_top80percent,syndirella_placed

>  <smiles>  (1196) 
Cc1ccc(C#N)cc1NC(=O)C1(S(=O)(=O)c2ccc(Cl)cc2)CCCC1

>  <subsites>  (1196) 
None

>  <rmsd(smina/fragmenstein)>  (1196) 
2.04

>  <alias>  (1196) 
None

>  <energy_score>  (1196) 
-49.889727

>  <HIPPO Pose ID>  (1196) 
95688

>  <distance_score>  (1196) 
0.409726

>  <HIPPO Compound ID>  (1196) 
129610

>  <gnina_score_min>  (1196) 
5.119

>  <name>  (1196) 
P95688

>  <exports>  (1196) 
['/opt/xchem-fragalysis-2/maxwin/BulkDock/OUTPUTS/openbind_d68ev3c_c2_elabs_1LOTQJ3.sdf', '/opt/xchem-fragalysis-2/maxwin/BulkDock/OUTPUTS/openbind_d68ev3c_c2_elabs_1LSYI5W.sdf']

$$$$
P95689
     RDKit          3D

 27 29  0  0  0  0  0  0  0  0999 V2000
   16.5172    0.6494   16.6813 O   0  0  0  0  0  0  0  0  0  0  0  0
   16.4531   -0.2859   17.3829 C   0  0  0  0  0  0  0  0  0  0  0  0
   15.3783   -1.4191   17.4641 N   0  0  0  0  0  0  0  0  0  0  0  0
   14.1577   -1.5692   16.7834 C   0  0  0  0  0  0  0  0  0  0  0  0
   13.6000   -0.5702   15.9752 C   0  0  0  0  0  0  0  0  0  0  0  0
   14.1613    0.6395   15.8714 F   0  0  0  0  0  0  0  0  0  0  0  0
   12.4132   -0.7788   15.2708 C   0  0  0  0  0  0  0  0  0  0  0  0
   11.7608   -2.0017   15.3510 C   0  0  0  0  0  0  0  0  0  0  0  0
   12.2874   -3.0016   16.1656 C   0  0  0  0  0  0  0  0  0  0  0  0
   13.4664   -2.7945   16.9151 C   0  0  0  0  0  0  0  0  0  0  0  0
   14.0117   -3.9092   17.7785 C   0  0  0  0  0  0  0  0  0  0  0  0
   13.0157   -4.8384   18.1293 O   0  0  0  0  0  0  0  0  0  0  0  0
   17.5210   -0.5613   18.4656 C   0  0  0  0  0  0  0  0  0  0  0  0
   18.3513   -2.1129   18.0606 S   0  0  0  0  0  0  0  0  0  0  0  0
   19.5791   -2.2066   18.8283 O   0  0  0  0  0  0  0  0  0  0  0  0
   17.3641   -3.1779   18.1727 O   0  0  0  0  0  0  0  0  0  0  0  0
   18.8190   -2.0127   16.3444 C   0  0  0  0  0  0  0  0  0  0  0  0
   20.0398   -1.4246   16.0008 C   0  0  0  0  0  0  0  0  0  0  0  0
   20.4168   -1.3492   14.6592 C   0  0  0  0  0  0  0  0  0  0  0  0
   19.5883   -1.8825   13.6736 C   0  0  0  0  0  0  0  0  0  0  0  0
   20.0589   -1.7846   12.0227 Cl  0  0  0  0  0  0  0  0  0  0  0  0
   18.3867   -2.5016   14.0182 C   0  0  0  0  0  0  0  0  0  0  0  0
   18.0015   -2.5799   15.3596 C   0  0  0  0  0  0  0  0  0  0  0  0
   16.8856   -0.6457   19.8831 C   0  0  0  0  0  0  0  0  0  0  0  0
   17.4435    0.5285   20.6798 C   0  0  0  0  0  0  0  0  0  0  0  0
   18.8057    0.7687   20.0678 C   0  0  0  0  0  0  0  0  0  0  0  0
   18.5360    0.6056   18.5791 C   0  0  0  0  0  0  0  0  0  0  0  0
  1  2  2  0
  2  3  1  0
  3  4  1  0
  4  5  2  0
  5  6  1  0
  5  7  1  0
  7  8  2  0
  8  9  1  0
  9 10  2  0
 10 11  1  0
 11 12  1  0
  2 13  1  0
 13 14  1  0
 14 15  2  0
 14 16  2  0
 14 17  1  0
 17 18  2  0
 18 19  1  0
 19 20  2  0
 20 21  1  0
 20 22  1  0
 22 23  2  0
 13 24  1  0
 24 25  1  0
 25 26  1  0
 26 27  1  0
 10  4  1  0
 27 13  1  0
 23 17  1  0
M  END
>  <ref_mols>  (1197) 
B1396a

>  <gnina_score>  (1197) 
5.282

>  <smina_score_min>  (1197) 
-3.824

>  <ref_pdb>  (1197) 
B1396a

>  <inspiration_score>  (1197) 
None

>  <inchikey>  (1197) 
OSZXJWJLGVNGNE-UHFFFAOYSA-N

>  <tags>  (1197) 
BulkDock Fragalysis export,openbind_d68ev3c_c2_elabs_scored,openbind_d68ev3c_c2_elabs_scored_4.5plus,openbind_d68ev3c_c2_elabs,openbind_d68ev3c_c2_elabs_scored_5plus,syndirella_product,openbind_d68ev3c_c2_elabs_scored_top80percent,syndirella_placed

>  <smiles>  (1197) 
O=C(Nc1c(F)cccc1CO)C1(S(=O)(=O)c2ccc(Cl)cc2)CCCC1

>  <subsites>  (1197) 
None

>  <rmsd(smina/fragmenstein)>  (1197) 
2.188

>  <alias>  (1197) 
None

>  <energy_score>  (1197) 
-43.50141

>  <HIPPO Pose ID>  (1197) 
95689

>  <distance_score>  (1197) 
0.551364

>  <HIPPO Compound ID>  (1197) 
129616

>  <gnina_score_min>  (1197) 
5.055

>  <name>  (1197) 
P95689

>  <exports>  (1197) 
['/opt/xchem-fragalysis-2/maxwin/BulkDock/OUTPUTS/openbind_d68ev3c_c2_elabs_1LOTQJ3.sdf', '/opt/xchem-fragalysis-2/maxwin/BulkDock/OUTPUTS/openbind_d68ev3c_c2_elabs_1LSYI5W.sdf']

$$$$
P95694
     RDKit          3D

 27 29  0  0  0  0  0  0  0  0999 V2000
   16.8848    0.8047   17.8755 O   0  0  0  0  0  0  0  0  0  0  0  0
   16.7270   -0.3116   18.1992 C   0  0  0  0  0  0  0  0  0  0  0  0
   15.5132   -1.2740   17.9637 N   0  0  0  0  0  0  0  0  0  0  0  0
   14.3356   -1.0889   17.2268 C   0  0  0  0  0  0  0  0  0  0  0  0
   14.0219    0.2195   16.8310 C   0  0  0  0  0  0  0  0  0  0  0  0
   12.9361    0.4897   16.0118 C   0  0  0  0  0  0  0  0  0  0  0  0
   12.1968   -0.5609   15.5152 C   0  0  0  0  0  0  0  0  0  0  0  0
   12.5183   -1.8770   15.8742 C   0  0  0  0  0  0  0  0  0  0  0  0
   11.5452   -3.2337   14.6716 I   0  0  0  0  0  0  0  0  0  0  0  0
   13.5197   -2.1729   16.8278 C   0  0  0  0  0  0  0  0  0  0  0  0
   13.8094   -3.5632   17.3554 C   0  0  0  0  0  0  0  0  0  0  0  0
   12.6567   -4.3752   17.4419 O   0  0  0  0  0  0  0  0  0  0  0  0
   17.7804   -1.0157   19.0899 C   0  0  0  0  0  0  0  0  0  0  0  0
   18.3411   -2.5124   18.2499 S   0  0  0  0  0  0  0  0  0  0  0  0
   19.5844   -2.9493   18.8556 O   0  0  0  0  0  0  0  0  0  0  0  0
   17.2091   -3.4289   18.2114 O   0  0  0  0  0  0  0  0  0  0  0  0
   18.7145   -2.1004   16.5586 C   0  0  0  0  0  0  0  0  0  0  0  0
   17.8704   -2.5464   15.5337 C   0  0  0  0  0  0  0  0  0  0  0  0
   18.2070   -2.2945   14.2030 C   0  0  0  0  0  0  0  0  0  0  0  0
   19.3844   -1.6122   13.8990 C   0  0  0  0  0  0  0  0  0  0  0  0
   20.2323   -1.1860   14.9217 C   0  0  0  0  0  0  0  0  0  0  0  0
   19.9064   -1.4389   16.2551 C   0  0  0  0  0  0  0  0  0  0  0  0
   18.9989   -0.0649   19.3192 C   0  0  0  0  0  0  0  0  0  0  0  0
   18.7852    0.8722   20.5060 C   0  0  0  0  0  0  0  0  0  0  0  0
   18.6494    0.0978   21.8153 C   0  0  0  0  0  0  0  0  0  0  0  0
   18.0860   -1.3087   21.6256 C   0  0  0  0  0  0  0  0  0  0  0  0
   17.1141   -1.3759   20.4512 C   0  0  0  0  0  0  0  0  0  0  0  0
  1  2  2  0
  2  3  1  0
  3  4  1  0
  4  5  2  0
  5  6  1  0
  6  7  2  0
  7  8  1  0
  8  9  1  0
  8 10  2  0
 10 11  1  0
 11 12  1  0
  2 13  1  0
 13 14  1  0
 14 15  2  0
 14 16  2  0
 14 17  1  0
 17 18  2  0
 18 19  1  0
 19 20  2  0
 20 21  1  0
 21 22  2  0
 13 23  1  0
 23 24  1  0
 24 25  1  0
 25 26  1  0
 26 27  1  0
 10  4  1  0
 27 13  1  0
 22 17  1  0
M  END
>  <ref_mols>  (1198) 
B1396a

>  <gnina_score>  (1198) 
4.933

>  <smina_score_min>  (1198) 
-2.852

>  <ref_pdb>  (1198) 
B1396a

>  <inspiration_score>  (1198) 
None

>  <inchikey>  (1198) 
HOZQXGRAYHHOBX-UHFFFAOYSA-N

>  <tags>  (1198) 
BulkDock Fragalysis export,openbind_d68ev3c_c2_elabs_scored,openbind_d68ev3c_c2_elabs_scored_4.5plus,openbind_d68ev3c_c2_elabs,openbind_d68ev3c_c2_elabs_scored_5plus,syndirella_product,openbind_d68ev3c_c2_elabs_scored_top80percent,syndirella_placed

>  <smiles>  (1198) 
O=C(Nc1cccc(I)c1CO)C1(S(=O)(=O)c2ccccc2)CCCCC1

>  <subsites>  (1198) 
None

>  <rmsd(smina/fragmenstein)>  (1198) 
0.422

>  <alias>  (1198) 
None

>  <energy_score>  (1198) 
-28.603689

>  <HIPPO Pose ID>  (1198) 
95694

>  <distance_score>  (1198) 
1.078512

>  <HIPPO Compound ID>  (1198) 
129620

>  <gnina_score_min>  (1198) 
5.01

>  <name>  (1198) 
P95694

>  <exports>  (1198) 
['/opt/xchem-fragalysis-2/maxwin/BulkDock/OUTPUTS/openbind_d68ev3c_c2_elabs_1LOTQJ3.sdf', '/opt/xchem-fragalysis-2/maxwin/BulkDock/OUTPUTS/openbind_d68ev3c_c2_elabs_1LSYI5W.sdf']

$$$$
P95697
     RDKit          3D

 27 29  0  0  0  0  0  0  0  0999 V2000
   13.8384   -4.0911   17.5351 C   0  0  0  0  0  0  0  0  0  0  0  0
   13.3036   -2.8968   16.7786 C   0  0  0  0  0  0  0  0  0  0  0  0
   12.1434   -3.0896   16.0051 C   0  0  0  0  0  0  0  0  0  0  0  0
   11.5855   -2.0436   15.2867 C   0  0  0  0  0  0  0  0  0  0  0  0
   12.1545   -0.7846   15.3831 C   0  0  0  0  0  0  0  0  0  0  0  0
   11.5366    0.2242   14.7481 F   0  0  0  0  0  0  0  0  0  0  0  0
   13.3040   -0.5501   16.1554 C   0  0  0  0  0  0  0  0  0  0  0  0
   13.7149    1.2893   16.4166 Br  0  0  0  0  0  0  0  0  0  0  0  0
   13.9364   -1.6234   16.8165 C   0  0  0  0  0  0  0  0  0  0  0  0
   15.1492   -1.5618   17.5378 N   0  0  0  0  0  0  0  0  0  0  0  0
   16.3111   -0.5115   17.4863 C   0  0  0  0  0  0  0  0  0  0  0  0
   16.4675    0.4136   16.7831 O   0  0  0  0  0  0  0  0  0  0  0  0
   17.3443   -0.8106   18.6139 C   0  0  0  0  0  0  0  0  0  0  0  0
   18.1912   -2.3416   18.1355 S   0  0  0  0  0  0  0  0  0  0  0  0
   19.4136   -2.4620   18.9095 O   0  0  0  0  0  0  0  0  0  0  0  0
   17.2116   -3.4161   18.1948 O   0  0  0  0  0  0  0  0  0  0  0  0
   18.6766   -2.1682   16.4286 C   0  0  0  0  0  0  0  0  0  0  0  0
   17.8405   -2.6419   15.4122 C   0  0  0  0  0  0  0  0  0  0  0  0
   18.2335   -2.5024   14.0799 C   0  0  0  0  0  0  0  0  0  0  0  0
   19.4625   -1.9204   13.7687 C   0  0  0  0  0  0  0  0  0  0  0  0
   20.3096   -1.4848   14.7862 C   0  0  0  0  0  0  0  0  0  0  0  0
   19.9250   -1.6193   16.1199 C   0  0  0  0  0  0  0  0  0  0  0  0
   18.3704    0.3700   18.6957 C   0  0  0  0  0  0  0  0  0  0  0  0
   18.9523    0.5750   20.0928 C   0  0  0  0  0  0  0  0  0  0  0  0
   17.8650    0.9349   21.1018 C   0  0  0  0  0  0  0  0  0  0  0  0
   16.5140    0.3088   20.7666 C   0  0  0  0  0  0  0  0  0  0  0  0
   16.6760   -1.0070   20.0096 C   0  0  0  0  0  0  0  0  0  0  0  0
  1  2  1  0
  2  3  2  0
  3  4  1  0
  4  5  2  0
  5  6  1  0
  5  7  1  0
  7  8  1  0
  7  9  2  0
  9 10  1  0
 10 11  1  0
 11 12  2  0
 11 13  1  0
 13 14  1  0
 14 15  2  0
 14 16  2  0
 14 17  1  0
 17 18  2  0
 18 19  1  0
 19 20  2  0
 20 21  1  0
 21 22  2  0
 13 23  1  0
 23 24  1  0
 24 25  1  0
 25 26  1  0
 26 27  1  0
  9  2  1  0
 27 13  1  0
 22 17  1  0
M  END
>  <ref_mols>  (1199) 
B1396a

>  <gnina_score>  (1199) 
5.208

>  <smina_score_min>  (1199) 
-4.076

>  <ref_pdb>  (1199) 
B1396a

>  <inspiration_score>  (1199) 
None

>  <inchikey>  (1199) 
XUMJPFKPCOSBGP-UHFFFAOYSA-N

>  <tags>  (1199) 
BulkDock Fragalysis export,openbind_d68ev3c_c2_elabs_scored,openbind_d68ev3c_c2_elabs_scored_4.5plus,openbind_d68ev3c_c2_elabs,openbind_d68ev3c_c2_elabs_scored_5plus,syndirella_product,openbind_d68ev3c_c2_elabs_scored_top80percent,syndirella_placed

>  <smiles>  (1199) 
Cc1ccc(F)c(Br)c1NC(=O)C1(S(=O)(=O)c2ccccc2)CCCCC1

>  <subsites>  (1199) 
None

>  <rmsd(smina/fragmenstein)>  (1199) 
1.936

>  <alias>  (1199) 
None

>  <energy_score>  (1199) 
-41.325701

>  <HIPPO Pose ID>  (1199) 
95697

>  <distance_score>  (1199) 
0.424745

>  <HIPPO Compound ID>  (1199) 
129623

>  <gnina_score_min>  (1199) 
5.175

>  <name>  (1199) 
P95697

>  <exports>  (1199) 
['/opt/xchem-fragalysis-2/maxwin/BulkDock/OUTPUTS/openbind_d68ev3c_c2_elabs_1LOTQJ3.sdf', '/opt/xchem-fragalysis-2/maxwin/BulkDock/OUTPUTS/openbind_d68ev3c_c2_elabs_1LSYI5W.sdf']

$$$$
P95699
     RDKit          3D

 27 29  0  0  0  0  0  0  0  0999 V2000
   13.9703   -4.1592   17.6967 C   0  0  0  0  0  0  0  0  0  0  0  0
   13.4001   -2.9925   16.9308 C   0  0  0  0  0  0  0  0  0  0  0  0
   12.2341   -3.2196   16.1829 C   0  0  0  0  0  0  0  0  0  0  0  0
   11.6581   -2.1996   15.4477 C   0  0  0  0  0  0  0  0  0  0  0  0
   10.5327   -2.4391   14.7675 F   0  0  0  0  0  0  0  0  0  0  0  0
   12.1954   -0.9278   15.4640 C   0  0  0  0  0  0  0  0  0  0  0  0
   13.3469   -0.6694   16.2181 C   0  0  0  0  0  0  0  0  0  0  0  0
   13.7351    1.0070   16.3690 Cl  0  0  0  0  0  0  0  0  0  0  0  0
   13.9980   -1.7068   16.9245 C   0  0  0  0  0  0  0  0  0  0  0  0
   15.1859   -1.5541   17.6681 N   0  0  0  0  0  0  0  0  0  0  0  0
   16.3545   -0.5221   17.5166 C   0  0  0  0  0  0  0  0  0  0  0  0
   16.4646    0.4001   16.8014 O   0  0  0  0  0  0  0  0  0  0  0  0
   17.4388   -0.8027   18.5989 C   0  0  0  0  0  0  0  0  0  0  0  0
   18.2586   -2.3420   18.1243 S   0  0  0  0  0  0  0  0  0  0  0  0
   17.2647   -3.4030   18.1787 O   0  0  0  0  0  0  0  0  0  0  0  0
   19.4781   -2.4847   18.8992 O   0  0  0  0  0  0  0  0  0  0  0  0
   18.7410   -2.1504   16.4222 C   0  0  0  0  0  0  0  0  0  0  0  0
   19.9358   -1.4918   16.1189 C   0  0  0  0  0  0  0  0  0  0  0  0
   20.3185   -1.3409   14.7867 C   0  0  0  0  0  0  0  0  0  0  0  0
   19.5222   -1.8627   13.7681 C   0  0  0  0  0  0  0  0  0  0  0  0
   18.3445   -2.5445   14.0760 C   0  0  0  0  0  0  0  0  0  0  0  0
   17.9524   -2.7006   15.4063 C   0  0  0  0  0  0  0  0  0  0  0  0
   18.4830    0.3591   18.6397 C   0  0  0  0  0  0  0  0  0  0  0  0
   18.1506    1.4819   19.6350 C   0  0  0  0  0  0  0  0  0  0  0  0
   16.6640    1.6066   19.9292 C   0  0  0  0  0  0  0  0  0  0  0  0
   16.0767    0.3034   20.4669 C   0  0  0  0  0  0  0  0  0  0  0  0
   16.8438   -0.9434   20.0176 C   0  0  0  0  0  0  0  0  0  0  0  0
  1  2  1  0
  2  3  2  0
  3  4  1  0
  4  5  1  0
  4  6  2  0
  6  7  1  0
  7  8  1  0
  7  9  2  0
  9 10  1  0
 10 11  1  0
 11 12  2  0
 11 13  1  0
 13 14  1  0
 14 15  2  0
 14 16  2  0
 14 17  1  0
 17 18  2  0
 18 19  1  0
 19 20  2  0
 20 21  1  0
 21 22  2  0
 13 23  1  0
 23 24  1  0
 24 25  1  0
 25 26  1  0
 26 27  1  0
  9  2  1  0
 27 13  1  0
 22 17  1  0
M  END
>  <ref_mols>  (1200) 
B1396a

>  <gnina_score>  (1200) 
5.297

>  <smina_score_min>  (1200) 
-3.926

>  <ref_pdb>  (1200) 
B1396a

>  <inspiration_score>  (1200) 
None

>  <inchikey>  (1200) 
JVOOKPITIOJUIQ-UHFFFAOYSA-N

>  <tags>  (1200) 
BulkDock Fragalysis export,openbind_d68ev3c_c2_elabs_scored,openbind_d68ev3c_c2_elabs_scored_4.5plus,openbind_d68ev3c_c2_elabs,openbind_d68ev3c_c2_elabs_scored_5plus,syndirella_product,openbind_d68ev3c_c2_elabs_scored_top80percent,syndirella_placed

>  <smiles>  (1200) 
Cc1cc(F)cc(Cl)c1NC(=O)C1(S(=O)(=O)c2ccccc2)CCCCC1

>  <subsites>  (1200) 
None

>  <rmsd(smina/fragmenstein)>  (1200) 
1.331

>  <alias>  (1200) 
None

>  <energy_score>  (1200) 
-43.831301

>  <HIPPO Pose ID>  (1200) 
95699

>  <distance_score>  (1200) 
0.4057

>  <HIPPO Compound ID>  (1200) 
129626

>  <gnina_score_min>  (1200) 
5.153

>  <name>  (1200) 
P95699

>  <exports>  (1200) 
['/opt/xchem-fragalysis-2/maxwin/BulkDock/OUTPUTS/openbind_d68ev3c_c2_elabs_1LOTQJ3.sdf', '/opt/xchem-fragalysis-2/maxwin/BulkDock/OUTPUTS/openbind_d68ev3c_c2_elabs_1LSYI5W.sdf']

$$$$
P95702
     RDKit          3D

 27 29  0  0  0  0  0  0  0  0999 V2000
   13.9519   -3.9497   17.9380 C   0  0  0  0  0  0  0  0  0  0  0  0
   13.5179   -2.8682   16.9842 C   0  0  0  0  0  0  0  0  0  0  0  0
   12.3726   -3.0898   16.1968 C   0  0  0  0  0  0  0  0  0  0  0  0
   11.9777   -2.1658   15.2309 C   0  0  0  0  0  0  0  0  0  0  0  0
   12.7510   -1.0298   15.0136 C   0  0  0  0  0  0  0  0  0  0  0  0
   12.2921    0.0811   13.7820 Cl  0  0  0  0  0  0  0  0  0  0  0  0
   13.8943   -0.7867   15.7779 C   0  0  0  0  0  0  0  0  0  0  0  0
   14.2437   -1.6557   16.8334 C   0  0  0  0  0  0  0  0  0  0  0  0
   15.4746   -1.4117   17.6315 N   0  0  0  0  0  0  0  0  0  0  0  0
   14.4116   -0.7053   18.5531 C   0  0  0  0  0  0  0  0  0  0  0  0
   16.6671   -0.4999   17.3637 C   0  0  0  0  0  0  0  0  0  0  0  0
   16.8506    0.2825   16.4992 O   0  0  0  0  0  0  0  0  0  0  0  0
   17.7921   -0.8178   18.4108 C   0  0  0  0  0  0  0  0  0  0  0  0
   18.5181   -2.4199   17.9016 S   0  0  0  0  0  0  0  0  0  0  0  0
   19.7869   -2.5862   18.5916 O   0  0  0  0  0  0  0  0  0  0  0  0
   17.5283   -3.4762   18.0178 O   0  0  0  0  0  0  0  0  0  0  0  0
   18.8994   -2.2432   16.1731 C   0  0  0  0  0  0  0  0  0  0  0  0
   18.0056   -2.7239   15.2117 C   0  0  0  0  0  0  0  0  0  0  0  0
   18.3089   -2.5630   13.8600 C   0  0  0  0  0  0  0  0  0  0  0  0
   19.5019   -1.9480   13.4780 C   0  0  0  0  0  0  0  0  0  0  0  0
   20.4016   -1.4966   14.4428 C   0  0  0  0  0  0  0  0  0  0  0  0
   20.1083   -1.6527   15.7957 C   0  0  0  0  0  0  0  0  0  0  0  0
   18.9033    0.2845   18.3302 C   0  0  0  0  0  0  0  0  0  0  0  0
   18.6747    1.4007   19.3454 C   0  0  0  0  0  0  0  0  0  0  0  0
   18.7907    0.8756   20.7762 C   0  0  0  0  0  0  0  0  0  0  0  0
   18.3704   -0.5884   20.9095 C   0  0  0  0  0  0  0  0  0  0  0  0
   17.3003   -0.9510   19.8806 C   0  0  0  0  0  0  0  0  0  0  0  0
  1  2  1  0
  2  3  2  0
  3  4  1  0
  4  5  2  0
  5  6  1  0
  5  7  1  0
  7  8  2  0
  8  9  1  0
  9 10  1  0
  9 11  1  0
 11 12  2  0
 11 13  1  0
 13 14  1  0
 14 15  2  0
 14 16  2  0
 14 17  1  0
 17 18  2  0
 18 19  1  0
 19 20  2  0
 20 21  1  0
 21 22  2  0
 13 23  1  0
 23 24  1  0
 24 25  1  0
 25 26  1  0
 26 27  1  0
  8  2  1  0
 27 13  1  0
 22 17  1  0
M  END
>  <ref_mols>  (1201) 
B1396a

>  <gnina_score>  (1201) 
5.066

>  <smina_score_min>  (1201) 
-2.975

>  <ref_pdb>  (1201) 
B1396a

>  <inspiration_score>  (1201) 
None

>  <inchikey>  (1201) 
JJKOGPZDVXRSAS-UHFFFAOYSA-N

>  <tags>  (1201) 
BulkDock Fragalysis export,openbind_d68ev3c_c2_elabs_scored,openbind_d68ev3c_c2_elabs_scored_4.5plus,openbind_d68ev3c_c2_elabs,openbind_d68ev3c_c2_elabs_scored_5plus,syndirella_product,openbind_d68ev3c_c2_elabs_scored_top80percent,syndirella_placed

>  <smiles>  (1201) 
Cc1ccc(Cl)cc1N(C)C(=O)C1(S(=O)(=O)c2ccccc2)CCCCC1

>  <subsites>  (1201) 
None

>  <rmsd(smina/fragmenstein)>  (1201) 
0.811

>  <alias>  (1201) 
None

>  <energy_score>  (1201) 
-7.207719

>  <HIPPO Pose ID>  (1201) 
95702

>  <distance_score>  (1201) 
0.597124

>  <HIPPO Compound ID>  (1201) 
129631

>  <gnina_score_min>  (1201) 
5.228

>  <name>  (1201) 
P95702

>  <exports>  (1201) 
['/opt/xchem-fragalysis-2/maxwin/BulkDock/OUTPUTS/openbind_d68ev3c_c2_elabs_1LOTQJ3.sdf', '/opt/xchem-fragalysis-2/maxwin/BulkDock/OUTPUTS/openbind_d68ev3c_c2_elabs_1LSYI5W.sdf']

$$$$
P95706
     RDKit          3D

 27 29  0  0  0  0  0  0  0  0999 V2000
   13.9462   -4.1383   17.7436 C   0  0  0  0  0  0  0  0  0  0  0  0
   13.4894   -2.9366   16.9663 C   0  0  0  0  0  0  0  0  0  0  0  0
   14.1989   -1.7254   16.9490 C   0  0  0  0  0  0  0  0  0  0  0  0
   15.3745   -1.5955   17.6891 N   0  0  0  0  0  0  0  0  0  0  0  0
   16.4490   -0.4585   17.6968 C   0  0  0  0  0  0  0  0  0  0  0  0
   16.4665    0.5730   17.1399 O   0  0  0  0  0  0  0  0  0  0  0  0
   17.5694   -0.8269   18.7092 C   0  0  0  0  0  0  0  0  0  0  0  0
   18.3674   -2.3475   18.1370 S   0  0  0  0  0  0  0  0  0  0  0  0
   17.3715   -3.4082   18.1807 O   0  0  0  0  0  0  0  0  0  0  0  0
   19.6155   -2.5249   18.8556 O   0  0  0  0  0  0  0  0  0  0  0  0
   18.7834   -2.0961   16.4253 C   0  0  0  0  0  0  0  0  0  0  0  0
   19.9570   -1.4122   16.0981 C   0  0  0  0  0  0  0  0  0  0  0  0
   20.2996   -1.2378   14.7577 C   0  0  0  0  0  0  0  0  0  0  0  0
   19.4857   -1.7623   13.7540 C   0  0  0  0  0  0  0  0  0  0  0  0
   18.3296   -2.4695   14.0847 C   0  0  0  0  0  0  0  0  0  0  0  0
   17.9773   -2.6475   15.4230 C   0  0  0  0  0  0  0  0  0  0  0  0
   16.9334   -1.0472   20.1133 C   0  0  0  0  0  0  0  0  0  0  0  0
   17.8451   -0.6112   21.2567 C   0  0  0  0  0  0  0  0  0  0  0  0
   18.1691    0.8793   21.1868 C   0  0  0  0  0  0  0  0  0  0  0  0
   18.2376    1.4128   19.7574 C   0  0  0  0  0  0  0  0  0  0  0  0
   18.6282    0.3185   18.7669 C   0  0  0  0  0  0  0  0  0  0  0  0
   13.7163   -0.6403   16.2011 C   0  0  0  0  0  0  0  0  0  0  0  0
   12.5274   -0.7430   15.4757 C   0  0  0  0  0  0  0  0  0  0  0  0
   11.8287   -1.9368   15.4936 C   0  0  0  0  0  0  0  0  0  0  0  0
   10.6732   -2.0389   14.8271 F   0  0  0  0  0  0  0  0  0  0  0  0
   12.3091   -3.0168   16.2212 C   0  0  0  0  0  0  0  0  0  0  0  0
   11.6092   -4.1541   16.2216 F   0  0  0  0  0  0  0  0  0  0  0  0
  1  2  1  0
  2  3  2  0
  3  4  1  0
  4  5  1  0
  5  6  2  0
  5  7  1  0
  7  8  1  0
  8  9  2  0
  8 10  2  0
  8 11  1  0
 11 12  2  0
 12 13  1  0
 13 14  2  0
 14 15  1  0
 15 16  2  0
  7 17  1  0
 17 18  1  0
 18 19  1  0
 19 20  1  0
 20 21  1  0
  3 22  1  0
 22 23  2  0
 23 24  1  0
 24 25  1  0
 24 26  2  0
 26 27  1  0
 26  2  1  0
 21  7  1  0
 16 11  1  0
M  END
>  <ref_mols>  (1202) 
B1396a

>  <gnina_score>  (1202) 
5.168

>  <smina_score_min>  (1202) 
-3.665

>  <ref_pdb>  (1202) 
B1396a

>  <inspiration_score>  (1202) 
None

>  <inchikey>  (1202) 
QBHZEQJTOJXLMU-UHFFFAOYSA-N

>  <tags>  (1202) 
BulkDock Fragalysis export,openbind_d68ev3c_c2_elabs_scored,openbind_d68ev3c_c2_elabs_scored_4.5plus,openbind_d68ev3c_c2_elabs,openbind_d68ev3c_c2_elabs_scored_5plus,syndirella_product,openbind_d68ev3c_c2_elabs_scored_top80percent,syndirella_placed

>  <smiles>  (1202) 
Cc1c(NC(=O)C2(S(=O)(=O)c3ccccc3)CCCCC2)ccc(F)c1F

>  <subsites>  (1202) 
None

>  <rmsd(smina/fragmenstein)>  (1202) 
2.047

>  <alias>  (1202) 
None

>  <energy_score>  (1202) 
-44.195819

>  <HIPPO Pose ID>  (1202) 
95706

>  <distance_score>  (1202) 
0.526012

>  <HIPPO Compound ID>  (1202) 
129635

>  <gnina_score_min>  (1202) 
5.188

>  <name>  (1202) 
P95706

>  <exports>  (1202) 
['/opt/xchem-fragalysis-2/maxwin/BulkDock/OUTPUTS/openbind_d68ev3c_c2_elabs_1LOTQJ3.sdf', '/opt/xchem-fragalysis-2/maxwin/BulkDock/OUTPUTS/openbind_d68ev3c_c2_elabs_1LSYI5W.sdf']

$$$$
P95708
     RDKit          3D

 27 29  0  0  0  0  0  0  0  0999 V2000
   13.8451   -4.0560   17.5080 C   0  0  0  0  0  0  0  0  0  0  0  0
   13.4845   -2.7437   16.8685 C   0  0  0  0  0  0  0  0  0  0  0  0
   14.3176   -1.6153   16.9387 C   0  0  0  0  0  0  0  0  0  0  0  0
   15.5257   -1.6635   17.6314 N   0  0  0  0  0  0  0  0  0  0  0  0
   16.6323   -0.5733   17.8200 C   0  0  0  0  0  0  0  0  0  0  0  0
   16.7276    0.4996   17.3569 O   0  0  0  0  0  0  0  0  0  0  0  0
   17.6750   -1.0682   18.8540 C   0  0  0  0  0  0  0  0  0  0  0  0
   18.4590   -2.5404   18.1590 S   0  0  0  0  0  0  0  0  0  0  0  0
   19.7211   -2.7628   18.8389 O   0  0  0  0  0  0  0  0  0  0  0  0
   17.4538   -3.5939   18.1595 O   0  0  0  0  0  0  0  0  0  0  0  0
   18.8425   -2.1927   16.4559 C   0  0  0  0  0  0  0  0  0  0  0  0
   19.9921   -1.4631   16.1446 C   0  0  0  0  0  0  0  0  0  0  0  0
   20.3112   -1.2205   14.8086 C   0  0  0  0  0  0  0  0  0  0  0  0
   19.4993   -1.7239   13.7923 C   0  0  0  0  0  0  0  0  0  0  0  0
   18.3682   -2.4774   14.1052 C   0  0  0  0  0  0  0  0  0  0  0  0
   18.0392   -2.7221   15.4389 C   0  0  0  0  0  0  0  0  0  0  0  0
   17.0206   -1.4386   20.2102 C   0  0  0  0  0  0  0  0  0  0  0  0
   16.4837   -0.2262   20.9677 C   0  0  0  0  0  0  0  0  0  0  0  0
   17.5820    0.7961   21.2213 C   0  0  0  0  0  0  0  0  0  0  0  0
   18.2505    1.2235   19.9229 C   0  0  0  0  0  0  0  0  0  0  0  0
   18.7527    0.0259   19.1096 C   0  0  0  0  0  0  0  0  0  0  0  0
   13.9168   -0.4096   16.3507 C   0  0  0  0  0  0  0  0  0  0  0  0
   12.6630   -0.2838   15.7609 C   0  0  0  0  0  0  0  0  0  0  0  0
   11.8115   -1.3765   15.7369 C   0  0  0  0  0  0  0  0  0  0  0  0
   10.0334   -1.0921   15.1824 Br  0  0  0  0  0  0  0  0  0  0  0  0
   12.2411   -2.6059   16.2354 C   0  0  0  0  0  0  0  0  0  0  0  0
   11.4305   -3.6683   16.1601 F   0  0  0  0  0  0  0  0  0  0  0  0
  1  2  1  0
  2  3  2  0
  3  4  1  0
  4  5  1  0
  5  6  2  0
  5  7  1  0
  7  8  1  0
  8  9  2  0
  8 10  2  0
  8 11  1  0
 11 12  2  0
 12 13  1  0
 13 14  2  0
 14 15  1  0
 15 16  2  0
  7 17  1  0
 17 18  1  0
 18 19  1  0
 19 20  1  0
 20 21  1  0
  3 22  1  0
 22 23  2  0
 23 24  1  0
 24 25  1  0
 24 26  2  0
 26 27  1  0
 26  2  1  0
 21  7  1  0
 16 11  1  0
M  END
>  <ref_mols>  (1203) 
B1396a

>  <gnina_score>  (1203) 
5.431

>  <smina_score_min>  (1203) 
-3.733

>  <ref_pdb>  (1203) 
B1396a

>  <inspiration_score>  (1203) 
None

>  <inchikey>  (1203) 
GBHCBXJYHSWRQR-UHFFFAOYSA-N

>  <tags>  (1203) 
BulkDock Fragalysis export,openbind_d68ev3c_c2_elabs_scored,openbind_d68ev3c_c2_elabs_scored_4.5plus,openbind_d68ev3c_c2_elabs,openbind_d68ev3c_c2_elabs_scored_5plus,syndirella_product,openbind_d68ev3c_c2_elabs_scored_top80percent,syndirella_placed

>  <smiles>  (1203) 
Cc1c(NC(=O)C2(S(=O)(=O)c3ccccc3)CCCCC2)ccc(Br)c1F

>  <subsites>  (1203) 
None

>  <rmsd(smina/fragmenstein)>  (1203) 
2.617

>  <alias>  (1203) 
None

>  <energy_score>  (1203) 
-66.513907

>  <HIPPO Pose ID>  (1203) 
95708

>  <distance_score>  (1203) 
0.662083

>  <HIPPO Compound ID>  (1203) 
129637

>  <gnina_score_min>  (1203) 
5.107

>  <name>  (1203) 
P95708

>  <exports>  (1203) 
['/opt/xchem-fragalysis-2/maxwin/BulkDock/OUTPUTS/openbind_d68ev3c_c2_elabs_1LOTQJ3.sdf', '/opt/xchem-fragalysis-2/maxwin/BulkDock/OUTPUTS/openbind_d68ev3c_c2_elabs_1LSYI5W.sdf']

$$$$
P95710
     RDKit          3D

 27 29  0  0  0  0  0  0  0  0999 V2000
   14.2578   -5.0985   18.0035 N   0  0  0  0  0  0  0  0  0  0  0  0
   13.8884   -4.1128   17.5201 C   0  0  0  0  0  0  0  0  0  0  0  0
   13.4752   -2.8862   16.9076 C   0  0  0  0  0  0  0  0  0  0  0  0
   12.2327   -2.8457   16.2592 C   0  0  0  0  0  0  0  0  0  0  0  0
   11.7813   -1.6489   15.7089 C   0  0  0  0  0  0  0  0  0  0  0  0
   10.1863   -1.5130   15.1058 Cl  0  0  0  0  0  0  0  0  0  0  0  0
   12.5816   -0.5155   15.7250 C   0  0  0  0  0  0  0  0  0  0  0  0
   13.8305   -0.5616   16.3402 C   0  0  0  0  0  0  0  0  0  0  0  0
   14.2795   -1.7338   16.9578 C   0  0  0  0  0  0  0  0  0  0  0  0
   15.5031   -1.7217   17.6358 N   0  0  0  0  0  0  0  0  0  0  0  0
   16.5687   -0.5843   17.7895 C   0  0  0  0  0  0  0  0  0  0  0  0
   16.6143    0.4837   17.3065 O   0  0  0  0  0  0  0  0  0  0  0  0
   17.6447   -1.0161   18.8274 C   0  0  0  0  0  0  0  0  0  0  0  0
   18.4826   -2.4620   18.1536 S   0  0  0  0  0  0  0  0  0  0  0  0
   19.7568   -2.6446   18.8186 O   0  0  0  0  0  0  0  0  0  0  0  0
   17.5107   -3.5445   18.1632 O   0  0  0  0  0  0  0  0  0  0  0  0
   18.8482   -2.1312   16.4409 C   0  0  0  0  0  0  0  0  0  0  0  0
   18.0573   -2.7030   15.4366 C   0  0  0  0  0  0  0  0  0  0  0  0
   18.3783   -2.4794   14.0972 C   0  0  0  0  0  0  0  0  0  0  0  0
   19.4905   -1.7063   13.7656 C   0  0  0  0  0  0  0  0  0  0  0  0
   20.2937   -1.1649   14.7690 C   0  0  0  0  0  0  0  0  0  0  0  0
   19.9829   -1.3869   16.1105 C   0  0  0  0  0  0  0  0  0  0  0  0
   16.9492   -1.3493   20.1746 C   0  0  0  0  0  0  0  0  0  0  0  0
   17.9056   -1.4902   21.3574 C   0  0  0  0  0  0  0  0  0  0  0  0
   18.7690   -0.2517   21.5345 C   0  0  0  0  0  0  0  0  0  0  0  0
   19.5399    0.0739   20.2651 C   0  0  0  0  0  0  0  0  0  0  0  0
   18.6202    0.1775   19.0489 C   0  0  0  0  0  0  0  0  0  0  0  0
  1  2  3  0
  2  3  1  0
  3  4  2  0
  4  5  1  0
  5  6  1  0
  5  7  2  0
  7  8  1  0
  8  9  2  0
  9 10  1  0
 10 11  1  0
 11 12  2  0
 11 13  1  0
 13 14  1  0
 14 15  2  0
 14 16  2  0
 14 17  1  0
 17 18  2  0
 18 19  1  0
 19 20  2  0
 20 21  1  0
 21 22  2  0
 13 23  1  0
 23 24  1  0
 24 25  1  0
 25 26  1  0
 26 27  1  0
  9  3  1  0
 27 13  1  0
 22 17  1  0
M  END
>  <ref_mols>  (1204) 
B1396a

>  <gnina_score>  (1204) 
5.547

>  <smina_score_min>  (1204) 
-2.98

>  <ref_pdb>  (1204) 
B1396a

>  <inspiration_score>  (1204) 
None

>  <inchikey>  (1204) 
KFUZBJUADGJJAK-UHFFFAOYSA-N

>  <tags>  (1204) 
BulkDock Fragalysis export,openbind_d68ev3c_c2_elabs_scored,openbind_d68ev3c_c2_elabs_scored_4.5plus,openbind_d68ev3c_c2_elabs,openbind_d68ev3c_c2_elabs_scored_5plus,syndirella_product,openbind_d68ev3c_c2_elabs_scored_top80percent,syndirella_placed

>  <smiles>  (1204) 
N#Cc1cc(Cl)ccc1NC(=O)C1(S(=O)(=O)c2ccccc2)CCCCC1

>  <subsites>  (1204) 
None

>  <rmsd(smina/fragmenstein)>  (1204) 
1.276

>  <alias>  (1204) 
None

>  <energy_score>  (1204) 
-49.440439

>  <HIPPO Pose ID>  (1204) 
95710

>  <distance_score>  (1204) 
0.583764

>  <HIPPO Compound ID>  (1204) 
129639

>  <gnina_score_min>  (1204) 
5.254

>  <name>  (1204) 
P95710

>  <exports>  (1204) 
['/opt/xchem-fragalysis-2/maxwin/BulkDock/OUTPUTS/openbind_d68ev3c_c2_elabs_1LOTQJ3.sdf', '/opt/xchem-fragalysis-2/maxwin/BulkDock/OUTPUTS/openbind_d68ev3c_c2_elabs_1LSYI5W.sdf']

$$$$
P95711
     RDKit          3D

 27 29  0  0  0  0  0  0  0  0999 V2000
   11.8856    0.1309   14.5203 C   0  0  0  0  0  0  0  0  0  0  0  0
   12.4322   -0.9875   15.3534 C   0  0  0  0  0  0  0  0  0  0  0  0
   13.6210   -0.8412   16.0830 C   0  0  0  0  0  0  0  0  0  0  0  0
   14.1101   -1.8843   16.8828 C   0  0  0  0  0  0  0  0  0  0  0  0
   15.2708   -1.7142   17.6390 N   0  0  0  0  0  0  0  0  0  0  0  0
   16.2729   -0.5152   17.7048 C   0  0  0  0  0  0  0  0  0  0  0  0
   16.2307    0.5387   17.1920 O   0  0  0  0  0  0  0  0  0  0  0  0
   17.4177   -0.8474   18.7152 C   0  0  0  0  0  0  0  0  0  0  0  0
   18.2815   -2.3254   18.1344 S   0  0  0  0  0  0  0  0  0  0  0  0
   17.3399   -3.4336   18.1940 O   0  0  0  0  0  0  0  0  0  0  0  0
   19.5474   -2.4557   18.8306 O   0  0  0  0  0  0  0  0  0  0  0  0
   18.6788   -2.0701   16.4174 C   0  0  0  0  0  0  0  0  0  0  0  0
   19.8742   -1.4272   16.0809 C   0  0  0  0  0  0  0  0  0  0  0  0
   20.2161   -1.2645   14.7389 C   0  0  0  0  0  0  0  0  0  0  0  0
   19.3793   -1.7615   13.7408 C   0  0  0  0  0  0  0  0  0  0  0  0
   18.2027   -2.4302   14.0796 C   0  0  0  0  0  0  0  0  0  0  0  0
   17.8528   -2.5988   15.4203 C   0  0  0  0  0  0  0  0  0  0  0  0
   18.3692    0.3841   18.7941 C   0  0  0  0  0  0  0  0  0  0  0  0
   19.3410    0.4054   19.9728 C   0  0  0  0  0  0  0  0  0  0  0  0
   18.6290    0.1776   21.2968 C   0  0  0  0  0  0  0  0  0  0  0  0
   17.7948   -1.0928   21.2680 C   0  0  0  0  0  0  0  0  0  0  0  0
   16.7916   -1.0907   20.1156 C   0  0  0  0  0  0  0  0  0  0  0  0
   13.4128   -3.1027   16.9471 C   0  0  0  0  0  0  0  0  0  0  0  0
   13.8894   -4.2653   17.7721 C   0  0  0  0  0  0  0  0  0  0  0  0
   12.2204   -3.2370   16.2237 C   0  0  0  0  0  0  0  0  0  0  0  0
   11.7389   -2.1896   15.4499 C   0  0  0  0  0  0  0  0  0  0  0  0
   10.5728   -2.3468   14.8123 F   0  0  0  0  0  0  0  0  0  0  0  0
  1  2  1  0
  2  3  2  0
  3  4  1  0
  4  5  1  0
  5  6  1  0
  6  7  2  0
  6  8  1  0
  8  9  1  0
  9 10  2  0
  9 11  2  0
  9 12  1  0
 12 13  2  0
 13 14  1  0
 14 15  2  0
 15 16  1  0
 16 17  2  0
  8 18  1  0
 18 19  1  0
 19 20  1  0
 20 21  1  0
 21 22  1  0
  4 23  2  0
 23 24  1  0
 23 25  1  0
 25 26  2  0
 26 27  1  0
 26  2  1  0
 22  8  1  0
 17 12  1  0
M  END
>  <ref_mols>  (1205) 
B1396a

>  <gnina_score>  (1205) 
5.146

>  <smina_score_min>  (1205) 
-3.893

>  <ref_pdb>  (1205) 
B1396a

>  <inspiration_score>  (1205) 
None

>  <inchikey>  (1205) 
FWEDJSVYZMJASN-UHFFFAOYSA-N

>  <tags>  (1205) 
BulkDock Fragalysis export,openbind_d68ev3c_c2_elabs_scored,openbind_d68ev3c_c2_elabs_scored_4.5plus,openbind_d68ev3c_c2_elabs,openbind_d68ev3c_c2_elabs_scored_5plus,syndirella_product,openbind_d68ev3c_c2_elabs_scored_top80percent,syndirella_placed

>  <smiles>  (1205) 
Cc1cc(NC(=O)C2(S(=O)(=O)c3ccccc3)CCCCC2)c(C)cc1F

>  <subsites>  (1205) 
None

>  <rmsd(smina/fragmenstein)>  (1205) 
1.264

>  <alias>  (1205) 
None

>  <energy_score>  (1205) 
-28.327639

>  <HIPPO Pose ID>  (1205) 
95711

>  <distance_score>  (1205) 
0.478562

>  <HIPPO Compound ID>  (1205) 
129640

>  <gnina_score_min>  (1205) 
5.08

>  <name>  (1205) 
P95711

>  <exports>  (1205) 
['/opt/xchem-fragalysis-2/maxwin/BulkDock/OUTPUTS/openbind_d68ev3c_c2_elabs_1LOTQJ3.sdf', '/opt/xchem-fragalysis-2/maxwin/BulkDock/OUTPUTS/openbind_d68ev3c_c2_elabs_1LSYI5W.sdf']

$$$$
P95713
     RDKit          3D

 27 29  0  0  0  0  0  0  0  0999 V2000
    9.8170   -1.8023   15.0315 C   0  0  0  0  0  0  0  0  0  0  0  0
   11.2064   -2.9948   14.9770 S   0  0  0  0  0  0  0  0  0  0  0  0
   12.5254   -1.9297   15.5111 C   0  0  0  0  0  0  0  0  0  0  0  0
   12.5936   -0.7064   14.8270 C   0  0  0  0  0  0  0  0  0  0  0  0
   13.5124    0.2577   15.1776 C   0  0  0  0  0  0  0  0  0  0  0  0
   14.4325   -0.0239   16.1690 C   0  0  0  0  0  0  0  0  0  0  0  0
   14.4544   -1.2684   16.8090 C   0  0  0  0  0  0  0  0  0  0  0  0
   15.5126   -1.5184   17.6859 N   0  0  0  0  0  0  0  0  0  0  0  0
   16.7142   -0.6078   18.1157 C   0  0  0  0  0  0  0  0  0  0  0  0
   17.0340    0.4560   17.7382 O   0  0  0  0  0  0  0  0  0  0  0  0
   17.5814   -1.3532   19.1408 C   0  0  0  0  0  0  0  0  0  0  0  0
   18.3199   -2.7490   18.2983 S   0  0  0  0  0  0  0  0  0  0  0  0
   17.2770   -3.7557   18.1700 O   0  0  0  0  0  0  0  0  0  0  0  0
   19.5704   -3.0915   18.9477 O   0  0  0  0  0  0  0  0  0  0  0  0
   18.7456   -2.2512   16.6378 C   0  0  0  0  0  0  0  0  0  0  0  0
   19.8036   -1.3627   16.4312 C   0  0  0  0  0  0  0  0  0  0  0  0
   20.1652   -1.0173   15.1259 C   0  0  0  0  0  0  0  0  0  0  0  0
   19.4835   -1.5705   14.0413 C   0  0  0  0  0  0  0  0  0  0  0  0
   19.9397   -1.1395   12.4402 Cl  0  0  0  0  0  0  0  0  0  0  0  0
   18.4392   -2.4712   14.2469 C   0  0  0  0  0  0  0  0  0  0  0  0
   18.0686   -2.8180   15.5489 C   0  0  0  0  0  0  0  0  0  0  0  0
   16.7496   -1.7836   20.3781 C   0  0  0  0  0  0  0  0  0  0  0  0
   17.3669   -1.0836   21.5867 C   0  0  0  0  0  0  0  0  0  0  0  0
   18.0429    0.1396   21.0032 C   0  0  0  0  0  0  0  0  0  0  0  0
   18.6673   -0.4119   19.7310 C   0  0  0  0  0  0  0  0  0  0  0  0
   13.4723   -2.2423   16.5165 C   0  0  0  0  0  0  0  0  0  0  0  0
   13.4771   -3.5636   17.2514 C   0  0  0  0  0  0  0  0  0  0  0  0
  1  2  1  0
  2  3  1  0
  3  4  2  0
  4  5  1  0
  5  6  2  0
  6  7  1  0
  7  8  1  0
  8  9  1  0
  9 10  2  0
  9 11  1  0
 11 12  1  0
 12 13  2  0
 12 14  2  0
 12 15  1  0
 15 16  2  0
 16 17  1  0
 17 18  2  0
 18 19  1  0
 18 20  1  0
 20 21  2  0
 11 22  1  0
 22 23  1  0
 23 24  1  0
 24 25  1  0
  7 26  2  0
 26 27  1  0
 26  3  1  0
 25 11  1  0
 21 15  1  0
M  END
>  <ref_mols>  (1206) 
B1396a

>  <gnina_score>  (1206) 
5.334

>  <smina_score_min>  (1206) 
-3.159

>  <ref_pdb>  (1206) 
B1396a

>  <inspiration_score>  (1206) 
None

>  <inchikey>  (1206) 
DUYULBBOUHFHBL-UHFFFAOYSA-N

>  <tags>  (1206) 
BulkDock Fragalysis export,openbind_d68ev3c_c2_elabs_scored,openbind_d68ev3c_c2_elabs_scored_4.5plus,openbind_d68ev3c_c2_elabs,openbind_d68ev3c_c2_elabs_scored_5plus,syndirella_product,openbind_d68ev3c_c2_elabs_scored_top80percent,syndirella_placed

>  <smiles>  (1206) 
CSc1cccc(NC(=O)C2(S(=O)(=O)c3ccc(Cl)cc3)CCCC2)c1C

>  <subsites>  (1206) 
None

>  <rmsd(smina/fragmenstein)>  (1206) 
1.307

>  <alias>  (1206) 
None

>  <energy_score>  (1206) 
-51.850521

>  <HIPPO Pose ID>  (1206) 
95713

>  <distance_score>  (1206) 
1.056058

>  <HIPPO Compound ID>  (1206) 
129643

>  <gnina_score_min>  (1206) 
5.404

>  <name>  (1206) 
P95713

>  <exports>  (1206) 
['/opt/xchem-fragalysis-2/maxwin/BulkDock/OUTPUTS/openbind_d68ev3c_c2_elabs_1LOTQJ3.sdf', '/opt/xchem-fragalysis-2/maxwin/BulkDock/OUTPUTS/openbind_d68ev3c_c2_elabs_1LSYI5W.sdf']

$$$$
P95714
     RDKit          3D

 27 30  0  0  0  0  0  0  0  0999 V2000
   16.5189    0.8981   16.9618 O   0  0  0  0  0  0  0  0  0  0  0  0
   16.4931   -0.1220   17.5360 C   0  0  0  0  0  0  0  0  0  0  0  0
   15.4157   -1.2484   17.5449 N   0  0  0  0  0  0  0  0  0  0  0  0
   14.2385   -1.3852   16.8016 C   0  0  0  0  0  0  0  0  0  0  0  0
   13.6430   -0.2882   16.1783 C   0  0  0  0  0  0  0  0  0  0  0  0
   12.4450   -0.4439   15.4772 C   0  0  0  0  0  0  0  0  0  0  0  0
   11.8449   -1.6949   15.3877 C   0  0  0  0  0  0  0  0  0  0  0  0
   12.4528   -2.7955   15.9928 C   0  0  0  0  0  0  0  0  0  0  0  0
   13.6623   -2.6717   16.7079 C   0  0  0  0  0  0  0  0  0  0  0  0
   14.4034   -3.8624   17.2760 C   0  0  0  0  0  0  0  0  0  0  0  0
   14.1496   -4.2749   18.7070 C   0  0  0  0  0  0  0  0  0  0  0  0
   13.7572   -5.1677   17.5712 C   0  0  0  0  0  0  0  0  0  0  0  0
   17.6000   -0.4888   18.5585 C   0  0  0  0  0  0  0  0  0  0  0  0
   18.3961   -2.0244   18.0899 S   0  0  0  0  0  0  0  0  0  0  0  0
   19.6424   -2.1595   18.8211 O   0  0  0  0  0  0  0  0  0  0  0  0
   17.4054   -3.0838   18.1950 O   0  0  0  0  0  0  0  0  0  0  0  0
   18.8315   -1.8767   16.3715 C   0  0  0  0  0  0  0  0  0  0  0  0
   18.0923   -2.5545   15.3953 C   0  0  0  0  0  0  0  0  0  0  0  0
   18.4743   -2.4613   14.0543 C   0  0  0  0  0  0  0  0  0  0  0  0
   19.5939   -1.7081   13.7019 C   0  0  0  0  0  0  0  0  0  0  0  0
   20.0637   -1.5934   12.0518 Cl  0  0  0  0  0  0  0  0  0  0  0  0
   20.3417   -1.0519   14.6788 C   0  0  0  0  0  0  0  0  0  0  0  0
   19.9677   -1.1426   16.0206 C   0  0  0  0  0  0  0  0  0  0  0  0
   17.0423   -0.5745   19.9896 C   0  0  0  0  0  0  0  0  0  0  0  0
   16.9026    0.8763   20.4354 C   0  0  0  0  0  0  0  0  0  0  0  0
   17.9858    1.6474   19.6885 C   0  0  0  0  0  0  0  0  0  0  0  0
   18.6196    0.6591   18.7084 C   0  0  0  0  0  0  0  0  0  0  0  0
  1  2  2  0
  2  3  1  0
  3  4  1  0
  4  5  2  0
  5  6  1  0
  6  7  2  0
  7  8  1  0
  8  9  2  0
  9 10  1  0
 10 11  1  0
 11 12  1  0
  2 13  1  0
 13 14  1  0
 14 15  2  0
 14 16  2  0
 14 17  1  0
 17 18  2  0
 18 19  1  0
 19 20  2  0
 20 21  1  0
 20 22  1  0
 22 23  2  0
 13 24  1  0
 24 25  1  0
 25 26  1  0
 26 27  1  0
  9  4  1  0
 12 10  1  0
 27 13  1  0
 23 17  1  0
M  END
>  <ref_mols>  (1207) 
B1396a

>  <gnina_score>  (1207) 
5.255

>  <smina_score_min>  (1207) 
-3.834

>  <ref_pdb>  (1207) 
B1396a

>  <inspiration_score>  (1207) 
None

>  <inchikey>  (1207) 
IEGBKLCFRQCLCD-UHFFFAOYSA-N

>  <tags>  (1207) 
BulkDock Fragalysis export,openbind_d68ev3c_c2_elabs_scored,openbind_d68ev3c_c2_elabs_scored_4.5plus,openbind_d68ev3c_c2_elabs,openbind_d68ev3c_c2_elabs_scored_5plus,syndirella_product,openbind_d68ev3c_c2_elabs_scored_top80percent,syndirella_placed

>  <smiles>  (1207) 
O=C(Nc1ccccc1C1CC1)C1(S(=O)(=O)c2ccc(Cl)cc2)CCCC1

>  <subsites>  (1207) 
None

>  <rmsd(smina/fragmenstein)>  (1207) 
1.85

>  <alias>  (1207) 
None

>  <energy_score>  (1207) 
-59.617008

>  <HIPPO Pose ID>  (1207) 
95714

>  <distance_score>  (1207) 
0.693997

>  <HIPPO Compound ID>  (1207) 
129644

>  <gnina_score_min>  (1207) 
5.104

>  <name>  (1207) 
P95714

>  <exports>  (1207) 
['/opt/xchem-fragalysis-2/maxwin/BulkDock/OUTPUTS/openbind_d68ev3c_c2_elabs_1LOTQJ3.sdf', '/opt/xchem-fragalysis-2/maxwin/BulkDock/OUTPUTS/openbind_d68ev3c_c2_elabs_1LSYI5W.sdf']

$$$$
P95715
     RDKit          3D

 27 29  0  0  0  0  0  0  0  0999 V2000
   11.8721    0.1416   14.5413 C   0  0  0  0  0  0  0  0  0  0  0  0
   12.4252   -0.9833   15.3615 C   0  0  0  0  0  0  0  0  0  0  0  0
   13.6181   -0.8404   16.0852 C   0  0  0  0  0  0  0  0  0  0  0  0
   14.1108   -1.8864   16.8788 C   0  0  0  0  0  0  0  0  0  0  0  0
   15.2773   -1.7204   17.6269 N   0  0  0  0  0  0  0  0  0  0  0  0
   16.2902   -0.5303   17.6768 C   0  0  0  0  0  0  0  0  0  0  0  0
   16.2545    0.5190   17.1556 O   0  0  0  0  0  0  0  0  0  0  0  0
   17.4207   -0.8757   18.6762 C   0  0  0  0  0  0  0  0  0  0  0  0
   18.2865   -2.3463   18.1296 S   0  0  0  0  0  0  0  0  0  0  0  0
   17.3412   -3.4512   18.1633 O   0  0  0  0  0  0  0  0  0  0  0  0
   19.5292   -2.4644   18.8704 O   0  0  0  0  0  0  0  0  0  0  0  0
   18.7268   -2.0743   16.4269 C   0  0  0  0  0  0  0  0  0  0  0  0
   17.9783   -2.6710   15.4058 C   0  0  0  0  0  0  0  0  0  0  0  0
   18.3593   -2.4805   14.0744 C   0  0  0  0  0  0  0  0  0  0  0  0
   19.4860   -1.7138   13.7756 C   0  0  0  0  0  0  0  0  0  0  0  0
   19.9511   -1.4777   12.1370 Cl  0  0  0  0  0  0  0  0  0  0  0  0
   20.2426   -1.1394   14.7961 C   0  0  0  0  0  0  0  0  0  0  0  0
   19.8699   -1.3262   16.1284 C   0  0  0  0  0  0  0  0  0  0  0  0
   18.4040    0.3168   18.8344 C   0  0  0  0  0  0  0  0  0  0  0  0
   17.9270    1.0546   20.0763 C   0  0  0  0  0  0  0  0  0  0  0  0
   17.5515   -0.0809   21.0061 C   0  0  0  0  0  0  0  0  0  0  0  0
   16.8288   -1.0711   20.0989 C   0  0  0  0  0  0  0  0  0  0  0  0
   13.4121   -3.1039   16.9443 C   0  0  0  0  0  0  0  0  0  0  0  0
   13.8902   -4.2685   17.7655 C   0  0  0  0  0  0  0  0  0  0  0  0
   12.2169   -3.2357   16.2250 C   0  0  0  0  0  0  0  0  0  0  0  0
   11.7321   -2.1856   15.4567 C   0  0  0  0  0  0  0  0  0  0  0  0
   10.5628   -2.3408   14.8244 F   0  0  0  0  0  0  0  0  0  0  0  0
  1  2  1  0
  2  3  2  0
  3  4  1  0
  4  5  1  0
  5  6  1  0
  6  7  2  0
  6  8  1  0
  8  9  1  0
  9 10  2  0
  9 11  2  0
  9 12  1  0
 12 13  2  0
 13 14  1  0
 14 15  2  0
 15 16  1  0
 15 17  1  0
 17 18  2  0
  8 19  1  0
 19 20  1  0
 20 21  1  0
 21 22  1  0
  4 23  2  0
 23 24  1  0
 23 25  1  0
 25 26  2  0
 26 27  1  0
 26  2  1  0
 22  8  1  0
 18 12  1  0
M  END
>  <ref_mols>  (1208) 
B1396a

>  <gnina_score>  (1208) 
5.364

>  <smina_score_min>  (1208) 
-3.949

>  <ref_pdb>  (1208) 
B1396a

>  <inspiration_score>  (1208) 
None

>  <inchikey>  (1208) 
MKAAKOBMEUDDML-UHFFFAOYSA-N

>  <tags>  (1208) 
BulkDock Fragalysis export,openbind_d68ev3c_c2_elabs_scored,openbind_d68ev3c_c2_elabs_scored_4.5plus,openbind_d68ev3c_c2_elabs,openbind_d68ev3c_c2_elabs_scored_5plus,syndirella_product,openbind_d68ev3c_c2_elabs_scored_top80percent,syndirella_placed

>  <smiles>  (1208) 
Cc1cc(NC(=O)C2(S(=O)(=O)c3ccc(Cl)cc3)CCCC2)c(C)cc1F

>  <subsites>  (1208) 
None

>  <rmsd(smina/fragmenstein)>  (1208) 
1.343

>  <alias>  (1208) 
None

>  <energy_score>  (1208) 
-28.769311

>  <HIPPO Pose ID>  (1208) 
95715

>  <distance_score>  (1208) 
0.454529

>  <HIPPO Compound ID>  (1208) 
129646

>  <gnina_score_min>  (1208) 
5.243

>  <name>  (1208) 
P95715

>  <exports>  (1208) 
['/opt/xchem-fragalysis-2/maxwin/BulkDock/OUTPUTS/openbind_d68ev3c_c2_elabs_1LOTQJ3.sdf', '/opt/xchem-fragalysis-2/maxwin/BulkDock/OUTPUTS/openbind_d68ev3c_c2_elabs_1LSYI5W.sdf']

$$$$
P95718
     RDKit          3D

 27 29  0  0  0  0  0  0  0  0999 V2000
   13.9216   -4.1486   17.7396 C   0  0  0  0  0  0  0  0  0  0  0  0
   13.4924   -2.9434   16.9521 C   0  0  0  0  0  0  0  0  0  0  0  0
   14.2243   -1.7452   16.9342 C   0  0  0  0  0  0  0  0  0  0  0  0
   15.3943   -1.6371   17.6859 N   0  0  0  0  0  0  0  0  0  0  0  0
   16.4405   -0.4782   17.7741 C   0  0  0  0  0  0  0  0  0  0  0  0
   16.4343    0.5882   17.2880 O   0  0  0  0  0  0  0  0  0  0  0  0
   17.5597   -0.8886   18.7598 C   0  0  0  0  0  0  0  0  0  0  0  0
   18.3690   -2.3720   18.1644 S   0  0  0  0  0  0  0  0  0  0  0  0
   19.6225   -2.5435   18.8745 O   0  0  0  0  0  0  0  0  0  0  0  0
   17.3874   -3.4454   18.1956 O   0  0  0  0  0  0  0  0  0  0  0  0
   18.7810   -2.0824   16.4569 C   0  0  0  0  0  0  0  0  0  0  0  0
   18.0272   -2.6850   15.4426 C   0  0  0  0  0  0  0  0  0  0  0  0
   18.3859   -2.4819   14.1070 C   0  0  0  0  0  0  0  0  0  0  0  0
   19.4956   -1.6954   13.7966 C   0  0  0  0  0  0  0  0  0  0  0  0
   19.9339   -1.4442   12.1530 Cl  0  0  0  0  0  0  0  0  0  0  0  0
   20.2571   -1.1142   14.8097 C   0  0  0  0  0  0  0  0  0  0  0  0
   19.9071   -1.3144   16.1463 C   0  0  0  0  0  0  0  0  0  0  0  0
   18.5829    0.2647   18.9488 C   0  0  0  0  0  0  0  0  0  0  0  0
   18.1305    0.9851   20.2099 C   0  0  0  0  0  0  0  0  0  0  0  0
   17.7178   -0.1612   21.1101 C   0  0  0  0  0  0  0  0  0  0  0  0
   16.9648   -1.1049   20.1781 C   0  0  0  0  0  0  0  0  0  0  0  0
   13.7687   -0.6573   16.1742 C   0  0  0  0  0  0  0  0  0  0  0  0
   12.5812   -0.7420   15.4436 C   0  0  0  0  0  0  0  0  0  0  0  0
   11.8585   -1.9215   15.4656 C   0  0  0  0  0  0  0  0  0  0  0  0
   10.7076   -2.0064   14.7892 F   0  0  0  0  0  0  0  0  0  0  0  0
   12.3142   -3.0059   16.2016 C   0  0  0  0  0  0  0  0  0  0  0  0
   11.5965   -4.1320   16.1999 F   0  0  0  0  0  0  0  0  0  0  0  0
  1  2  1  0
  2  3  2  0
  3  4  1  0
  4  5  1  0
  5  6  2  0
  5  7  1  0
  7  8  1  0
  8  9  2  0
  8 10  2  0
  8 11  1  0
 11 12  2  0
 12 13  1  0
 13 14  2  0
 14 15  1  0
 14 16  1  0
 16 17  2  0
  7 18  1  0
 18 19  1  0
 19 20  1  0
 20 21  1  0
  3 22  1  0
 22 23  2  0
 23 24  1  0
 24 25  1  0
 24 26  2  0
 26 27  1  0
 26  2  1  0
 21  7  1  0
 17 11  1  0
M  END
>  <ref_mols>  (1209) 
B1396a

>  <gnina_score>  (1209) 
5.372

>  <smina_score_min>  (1209) 
-4.184

>  <ref_pdb>  (1209) 
B1396a

>  <inspiration_score>  (1209) 
None

>  <inchikey>  (1209) 
MAYUWWKCMOLDFG-UHFFFAOYSA-N

>  <tags>  (1209) 
BulkDock Fragalysis export,openbind_d68ev3c_c2_elabs_scored,openbind_d68ev3c_c2_elabs_scored_4.5plus,openbind_d68ev3c_c2_elabs,openbind_d68ev3c_c2_elabs_scored_5plus,syndirella_product,openbind_d68ev3c_c2_elabs_scored_top80percent,syndirella_placed

>  <smiles>  (1209) 
Cc1c(NC(=O)C2(S(=O)(=O)c3ccc(Cl)cc3)CCCC2)ccc(F)c1F

>  <subsites>  (1209) 
None

>  <rmsd(smina/fragmenstein)>  (1209) 
3.214

>  <alias>  (1209) 
None

>  <energy_score>  (1209) 
-22.549935

>  <HIPPO Pose ID>  (1209) 
95718

>  <distance_score>  (1209) 
0.540875

>  <HIPPO Compound ID>  (1209) 
129650

>  <gnina_score_min>  (1209) 
5.091

>  <name>  (1209) 
P95718

>  <exports>  (1209) 
['/opt/xchem-fragalysis-2/maxwin/BulkDock/OUTPUTS/openbind_d68ev3c_c2_elabs_1LOTQJ3.sdf', '/opt/xchem-fragalysis-2/maxwin/BulkDock/OUTPUTS/openbind_d68ev3c_c2_elabs_1LSYI5W.sdf']

$$$$
P95719
     RDKit          3D

 27 29  0  0  0  0  0  0  0  0999 V2000
   13.5210   -5.2583   17.3536 O   0  0  0  0  0  0  0  0  0  0  0  0
   13.7995   -4.1201   17.7055 C   0  0  0  0  0  0  0  0  0  0  0  0
   13.3550   -2.9505   16.9189 C   0  0  0  0  0  0  0  0  0  0  0  0
   12.2087   -3.1209   16.1184 C   0  0  0  0  0  0  0  0  0  0  0  0
   11.7071   -2.0693   15.3579 C   0  0  0  0  0  0  0  0  0  0  0  0
   12.3481   -0.8392   15.4069 C   0  0  0  0  0  0  0  0  0  0  0  0
   13.4953   -0.6735   16.1890 C   0  0  0  0  0  0  0  0  0  0  0  0
   14.0252    0.5540   16.2187 F   0  0  0  0  0  0  0  0  0  0  0  0
   14.0404   -1.7230   16.9435 C   0  0  0  0  0  0  0  0  0  0  0  0
   15.2327   -1.5772   17.6820 N   0  0  0  0  0  0  0  0  0  0  0  0
   16.3217   -0.4530   17.6417 C   0  0  0  0  0  0  0  0  0  0  0  0
   16.3496    0.5551   17.0451 O   0  0  0  0  0  0  0  0  0  0  0  0
   17.4352   -0.7962   18.6604 C   0  0  0  0  0  0  0  0  0  0  0  0
   18.2483   -2.2999   18.1460 S   0  0  0  0  0  0  0  0  0  0  0  0
   19.4734   -2.4623   18.9055 O   0  0  0  0  0  0  0  0  0  0  0  0
   17.2422   -3.3516   18.1803 O   0  0  0  0  0  0  0  0  0  0  0  0
   18.7255   -2.0723   16.4470 C   0  0  0  0  0  0  0  0  0  0  0  0
   18.0116   -2.7081   15.4248 C   0  0  0  0  0  0  0  0  0  0  0  0
   18.4191   -2.5417   14.0978 C   0  0  0  0  0  0  0  0  0  0  0  0
   19.5367   -1.7595   13.8047 C   0  0  0  0  0  0  0  0  0  0  0  0
   20.0341   -1.5547   12.1715 Cl  0  0  0  0  0  0  0  0  0  0  0  0
   20.2601   -1.1477   14.8273 C   0  0  0  0  0  0  0  0  0  0  0  0
   19.8620   -1.3113   16.1552 C   0  0  0  0  0  0  0  0  0  0  0  0
   18.4300    0.3710   18.8202 C   0  0  0  0  0  0  0  0  0  0  0  0
   17.7753    1.3342   19.8110 C   0  0  0  0  0  0  0  0  0  0  0  0
   16.7196    0.5269   20.5589 C   0  0  0  0  0  0  0  0  0  0  0  0
   16.8919   -0.9144   20.0939 C   0  0  0  0  0  0  0  0  0  0  0  0
  1  2  2  0
  2  3  1  0
  3  4  2  0
  4  5  1  0
  5  6  2  0
  6  7  1  0
  7  8  1  0
  7  9  2  0
  9 10  1  0
 10 11  1  0
 11 12  2  0
 11 13  1  0
 13 14  1  0
 14 15  2  0
 14 16  2  0
 14 17  1  0
 17 18  2  0
 18 19  1  0
 19 20  2  0
 20 21  1  0
 20 22  1  0
 22 23  2  0
 13 24  1  0
 24 25  1  0
 25 26  1  0
 26 27  1  0
  9  3  1  0
 27 13  1  0
 23 17  1  0
M  END
>  <ref_mols>  (1210) 
B1396a

>  <gnina_score>  (1210) 
5.409

>  <smina_score_min>  (1210) 
-3.791

>  <ref_pdb>  (1210) 
B1396a

>  <inspiration_score>  (1210) 
None

>  <inchikey>  (1210) 
UIXPNLDNECOCFD-UHFFFAOYSA-N

>  <tags>  (1210) 
BulkDock Fragalysis export,openbind_d68ev3c_c2_elabs_scored,openbind_d68ev3c_c2_elabs_scored_4.5plus,openbind_d68ev3c_c2_elabs,openbind_d68ev3c_c2_elabs_scored_5plus,syndirella_product,openbind_d68ev3c_c2_elabs_scored_top80percent,syndirella_placed

>  <smiles>  (1210) 
O=Cc1cccc(F)c1NC(=O)C1(S(=O)(=O)c2ccc(Cl)cc2)CCCC1

>  <subsites>  (1210) 
None

>  <rmsd(smina/fragmenstein)>  (1210) 
1.706

>  <alias>  (1210) 
None

>  <energy_score>  (1210) 
-45.705671

>  <HIPPO Pose ID>  (1210) 
95719

>  <distance_score>  (1210) 
0.449328

>  <HIPPO Compound ID>  (1210) 
129651

>  <gnina_score_min>  (1210) 
5.029

>  <name>  (1210) 
P95719

>  <exports>  (1210) 
['/opt/xchem-fragalysis-2/maxwin/BulkDock/OUTPUTS/openbind_d68ev3c_c2_elabs_1LOTQJ3.sdf', '/opt/xchem-fragalysis-2/maxwin/BulkDock/OUTPUTS/openbind_d68ev3c_c2_elabs_1LSYI5W.sdf']

$$$$
P95720
     RDKit          3D

 27 29  0  0  0  0  0  0  0  0999 V2000
   13.6748   -3.6818   17.2752 C   0  0  0  0  0  0  0  0  0  0  0  0
   13.4157   -2.3171   16.6756 C   0  0  0  0  0  0  0  0  0  0  0  0
   12.3854   -2.1074   15.7324 C   0  0  0  0  0  0  0  0  0  0  0  0
   11.4219   -3.4768   14.8887 Br  0  0  0  0  0  0  0  0  0  0  0  0
   12.0543   -0.8384   15.2653 C   0  0  0  0  0  0  0  0  0  0  0  0
   12.7913    0.2486   15.6816 C   0  0  0  0  0  0  0  0  0  0  0  0
   13.8842    0.0674   16.5255 C   0  0  0  0  0  0  0  0  0  0  0  0
   14.5123    1.2444   16.8198 O   0  0  0  0  0  0  0  0  0  0  0  0
   14.2284   -1.2057   17.0250 C   0  0  0  0  0  0  0  0  0  0  0  0
   15.3556   -1.4282   17.8425 N   0  0  0  0  0  0  0  0  0  0  0  0
   16.5496   -0.4884   18.1999 C   0  0  0  0  0  0  0  0  0  0  0  0
   16.7361    0.6367   17.9311 O   0  0  0  0  0  0  0  0  0  0  0  0
   17.5270   -1.2281   19.1320 C   0  0  0  0  0  0  0  0  0  0  0  0
   18.2348   -2.6217   18.2530 S   0  0  0  0  0  0  0  0  0  0  0  0
   17.1885   -3.6279   18.1530 O   0  0  0  0  0  0  0  0  0  0  0  0
   19.5014   -2.9654   18.8711 O   0  0  0  0  0  0  0  0  0  0  0  0
   18.6150   -2.1227   16.5828 C   0  0  0  0  0  0  0  0  0  0  0  0
   17.8151   -2.5762   15.5251 C   0  0  0  0  0  0  0  0  0  0  0  0
   18.1702   -2.2732   14.2075 C   0  0  0  0  0  0  0  0  0  0  0  0
   19.3243   -1.5333   13.9527 C   0  0  0  0  0  0  0  0  0  0  0  0
   19.7606   -1.1575   12.3328 Cl  0  0  0  0  0  0  0  0  0  0  0  0
   20.1307   -1.0980   15.0038 C   0  0  0  0  0  0  0  0  0  0  0  0
   19.7842   -1.4019   16.3234 C   0  0  0  0  0  0  0  0  0  0  0  0
   16.8141   -1.7035   20.4320 C   0  0  0  0  0  0  0  0  0  0  0  0
   17.4345   -0.9192   21.5831 C   0  0  0  0  0  0  0  0  0  0  0  0
   18.8468   -0.6478   21.1152 C   0  0  0  0  0  0  0  0  0  0  0  0
   18.6449   -0.2788   19.6526 C   0  0  0  0  0  0  0  0  0  0  0  0
  1  2  1  0
  2  3  2  0
  3  4  1  0
  3  5  1  0
  5  6  2  0
  6  7  1  0
  7  8  1  0
  7  9  2  0
  9 10  1  0
 10 11  1  0
 11 12  2  0
 11 13  1  0
 13 14  1  0
 14 15  2  0
 14 16  2  0
 14 17  1  0
 17 18  2  0
 18 19  1  0
 19 20  2  0
 20 21  1  0
 20 22  1  0
 22 23  2  0
 13 24  1  0
 24 25  1  0
 25 26  1  0
 26 27  1  0
  9  2  1  0
 27 13  1  0
 23 17  1  0
M  END
>  <ref_mols>  (1211) 
B1396a

>  <gnina_score>  (1211) 
5.328

>  <smina_score_min>  (1211) 
-3.576

>  <ref_pdb>  (1211) 
B1396a

>  <inspiration_score>  (1211) 
None

>  <inchikey>  (1211) 
GXTDOGISODDFEN-UHFFFAOYSA-N

>  <tags>  (1211) 
BulkDock Fragalysis export,openbind_d68ev3c_c2_elabs_scored,openbind_d68ev3c_c2_elabs_scored_4.5plus,openbind_d68ev3c_c2_elabs,openbind_d68ev3c_c2_elabs_scored_5plus,syndirella_product,openbind_d68ev3c_c2_elabs_scored_top80percent,syndirella_placed

>  <smiles>  (1211) 
Cc1c(Br)ccc(O)c1NC(=O)C1(S(=O)(=O)c2ccc(Cl)cc2)CCCC1

>  <subsites>  (1211) 
None

>  <rmsd(smina/fragmenstein)>  (1211) 
2.104

>  <alias>  (1211) 
None

>  <energy_score>  (1211) 
-52.063233

>  <HIPPO Pose ID>  (1211) 
95720

>  <distance_score>  (1211) 
0.942115

>  <HIPPO Compound ID>  (1211) 
129652

>  <gnina_score_min>  (1211) 
5.053

>  <name>  (1211) 
P95720

>  <exports>  (1211) 
['/opt/xchem-fragalysis-2/maxwin/BulkDock/OUTPUTS/openbind_d68ev3c_c2_elabs_1LOTQJ3.sdf', '/opt/xchem-fragalysis-2/maxwin/BulkDock/OUTPUTS/openbind_d68ev3c_c2_elabs_1LSYI5W.sdf']

$$$$
P95721
     RDKit          3D

 27 29  0  0  0  0  0  0  0  0999 V2000
   13.8431   -4.0607   17.5060 C   0  0  0  0  0  0  0  0  0  0  0  0
   13.4874   -2.7474   16.8657 C   0  0  0  0  0  0  0  0  0  0  0  0
   14.3251   -1.6222   16.9341 C   0  0  0  0  0  0  0  0  0  0  0  0
   15.5337   -1.6762   17.6258 N   0  0  0  0  0  0  0  0  0  0  0  0
   16.6460   -0.5919   17.8125 C   0  0  0  0  0  0  0  0  0  0  0  0
   16.7465    0.4800   17.3486 O   0  0  0  0  0  0  0  0  0  0  0  0
   17.6827   -1.1023   18.8325 C   0  0  0  0  0  0  0  0  0  0  0  0
   18.4698   -2.5518   18.1642 S   0  0  0  0  0  0  0  0  0  0  0  0
   19.7268   -2.7696   18.8532 O   0  0  0  0  0  0  0  0  0  0  0  0
   17.4631   -3.6029   18.1541 O   0  0  0  0  0  0  0  0  0  0  0  0
   18.8725   -2.1959   16.4670 C   0  0  0  0  0  0  0  0  0  0  0  0
   19.9491   -1.3519   16.1816 C   0  0  0  0  0  0  0  0  0  0  0  0
   20.2837   -1.0907   14.8514 C   0  0  0  0  0  0  0  0  0  0  0  0
   19.5575   -1.6862   13.8203 C   0  0  0  0  0  0  0  0  0  0  0  0
   19.9792   -1.3602   12.1854 Cl  0  0  0  0  0  0  0  0  0  0  0  0
   18.4981   -2.5476   14.1056 C   0  0  0  0  0  0  0  0  0  0  0  0
   18.1535   -2.8103   15.4341 C   0  0  0  0  0  0  0  0  0  0  0  0
   18.7008   -0.0021   19.1961 C   0  0  0  0  0  0  0  0  0  0  0  0
   18.0123    0.8550   20.2586 C   0  0  0  0  0  0  0  0  0  0  0  0
   16.9033   -0.0083   20.8505 C   0  0  0  0  0  0  0  0  0  0  0  0
   17.0554   -1.3823   20.2076 C   0  0  0  0  0  0  0  0  0  0  0  0
   13.9278   -0.4151   16.3467 C   0  0  0  0  0  0  0  0  0  0  0  0
   12.6732   -0.2851   15.7587 C   0  0  0  0  0  0  0  0  0  0  0  0
   11.8176   -1.3748   15.7361 C   0  0  0  0  0  0  0  0  0  0  0  0
   10.0398   -1.0854   15.1830 Br  0  0  0  0  0  0  0  0  0  0  0  0
   12.2434   -2.6054   16.2344 C   0  0  0  0  0  0  0  0  0  0  0  0
   11.4291   -3.6651   16.1609 F   0  0  0  0  0  0  0  0  0  0  0  0
  1  2  1  0
  2  3  2  0
  3  4  1  0
  4  5  1  0
  5  6  2  0
  5  7  1  0
  7  8  1  0
  8  9  2  0
  8 10  2  0
  8 11  1  0
 11 12  2  0
 12 13  1  0
 13 14  2  0
 14 15  1  0
 14 16  1  0
 16 17  2  0
  7 18  1  0
 18 19  1  0
 19 20  1  0
 20 21  1  0
  3 22  1  0
 22 23  2  0
 23 24  1  0
 24 25  1  0
 24 26  2  0
 26 27  1  0
 26  2  1  0
 21  7  1  0
 17 11  1  0
M  END
>  <ref_mols>  (1212) 
B1396a

>  <gnina_score>  (1212) 
5.658

>  <smina_score_min>  (1212) 
-3.992

>  <ref_pdb>  (1212) 
B1396a

>  <inspiration_score>  (1212) 
None

>  <inchikey>  (1212) 
OZMKAZVQBPTJKY-UHFFFAOYSA-N

>  <tags>  (1212) 
BulkDock Fragalysis export,openbind_d68ev3c_c2_elabs_scored,openbind_d68ev3c_c2_elabs_scored_4.5plus,openbind_d68ev3c_c2_elabs,openbind_d68ev3c_c2_elabs_scored_5plus,syndirella_product,openbind_d68ev3c_c2_elabs_scored_top80percent,syndirella_placed

>  <smiles>  (1212) 
Cc1c(NC(=O)C2(S(=O)(=O)c3ccc(Cl)cc3)CCCC2)ccc(Br)c1F

>  <subsites>  (1212) 
None

>  <rmsd(smina/fragmenstein)>  (1212) 
3.06

>  <alias>  (1212) 
None

>  <energy_score>  (1212) 
-42.951583

>  <HIPPO Pose ID>  (1212) 
95721

>  <distance_score>  (1212) 
0.654256

>  <HIPPO Compound ID>  (1212) 
129653

>  <gnina_score_min>  (1212) 
5.048

>  <name>  (1212) 
P95721

>  <exports>  (1212) 
['/opt/xchem-fragalysis-2/maxwin/BulkDock/OUTPUTS/openbind_d68ev3c_c2_elabs_1LOTQJ3.sdf', '/opt/xchem-fragalysis-2/maxwin/BulkDock/OUTPUTS/openbind_d68ev3c_c2_elabs_1LSYI5W.sdf']

$$$$
P95722
     RDKit          3D

 27 29  0  0  0  0  0  0  0  0999 V2000
   14.3106   -5.1022   18.0959 N   0  0  0  0  0  0  0  0  0  0  0  0
   13.9363   -4.1235   17.6025 C   0  0  0  0  0  0  0  0  0  0  0  0
   13.5184   -2.9055   16.9767 C   0  0  0  0  0  0  0  0  0  0  0  0
   12.2947   -2.8910   16.2928 C   0  0  0  0  0  0  0  0  0  0  0  0
   11.8414   -1.7074   15.7175 C   0  0  0  0  0  0  0  0  0  0  0  0
   10.2670   -1.6091   15.0609 Cl  0  0  0  0  0  0  0  0  0  0  0  0
   12.6207   -0.5599   15.7472 C   0  0  0  0  0  0  0  0  0  0  0  0
   13.8488   -0.5781   16.4040 C   0  0  0  0  0  0  0  0  0  0  0  0
   14.2987   -1.7373   17.0459 C   0  0  0  0  0  0  0  0  0  0  0  0
   15.4883   -1.6863   17.7826 N   0  0  0  0  0  0  0  0  0  0  0  0
   16.5852   -0.5717   17.8655 C   0  0  0  0  0  0  0  0  0  0  0  0
   16.6163    0.4994   17.3896 O   0  0  0  0  0  0  0  0  0  0  0  0
   17.7026   -1.0332   18.8272 C   0  0  0  0  0  0  0  0  0  0  0  0
   18.4841   -2.4871   18.1458 S   0  0  0  0  0  0  0  0  0  0  0  0
   17.4757   -3.5345   18.1390 O   0  0  0  0  0  0  0  0  0  0  0  0
   19.7461   -2.7070   18.8242 O   0  0  0  0  0  0  0  0  0  0  0  0
   18.8672   -2.1329   16.4438 C   0  0  0  0  0  0  0  0  0  0  0  0
   18.1542   -2.7737   15.4221 C   0  0  0  0  0  0  0  0  0  0  0  0
   18.4875   -2.5234   14.0884 C   0  0  0  0  0  0  0  0  0  0  0  0
   19.5300   -1.6474   13.7863 C   0  0  0  0  0  0  0  0  0  0  0  0
   19.9369   -1.3350   12.1451 Cl  0  0  0  0  0  0  0  0  0  0  0  0
   20.2515   -1.0268   14.8056 C   0  0  0  0  0  0  0  0  0  0  0  0
   19.9287   -1.2764   16.1410 C   0  0  0  0  0  0  0  0  0  0  0  0
   17.1151   -1.3148   20.2374 C   0  0  0  0  0  0  0  0  0  0  0  0
   17.8843   -0.4280   21.2111 C   0  0  0  0  0  0  0  0  0  0  0  0
   18.2992    0.7595   20.3676 C   0  0  0  0  0  0  0  0  0  0  0  0
   18.7368    0.1003   19.0684 C   0  0  0  0  0  0  0  0  0  0  0  0
  1  2  3  0
  2  3  1  0
  3  4  2  0
  4  5  1  0
  5  6  1  0
  5  7  2  0
  7  8  1  0
  8  9  2  0
  9 10  1  0
 10 11  1  0
 11 12  2  0
 11 13  1  0
 13 14  1  0
 14 15  2  0
 14 16  2  0
 14 17  1  0
 17 18  2  0
 18 19  1  0
 19 20  2  0
 20 21  1  0
 20 22  1  0
 22 23  2  0
 13 24  1  0
 24 25  1  0
 25 26  1  0
 26 27  1  0
  9  3  1  0
 27 13  1  0
 23 17  1  0
M  END
>  <ref_mols>  (1213) 
B1396a

>  <gnina_score>  (1213) 
5.7

>  <smina_score_min>  (1213) 
-3.107

>  <ref_pdb>  (1213) 
B1396a

>  <inspiration_score>  (1213) 
None

>  <inchikey>  (1213) 
LUEPDGIQVHZLSW-UHFFFAOYSA-N

>  <tags>  (1213) 
BulkDock Fragalysis export,openbind_d68ev3c_c2_elabs_scored,openbind_d68ev3c_c2_elabs_scored_4.5plus,openbind_d68ev3c_c2_elabs,openbind_d68ev3c_c2_elabs_scored_5plus,syndirella_product,openbind_d68ev3c_c2_elabs_scored_top80percent,syndirella_placed

>  <smiles>  (1213) 
N#Cc1cc(Cl)ccc1NC(=O)C1(S(=O)(=O)c2ccc(Cl)cc2)CCCC1

>  <subsites>  (1213) 
None

>  <rmsd(smina/fragmenstein)>  (1213) 
1.431

>  <alias>  (1213) 
None

>  <energy_score>  (1213) 
-26.182062

>  <HIPPO Pose ID>  (1213) 
95722

>  <distance_score>  (1213) 
0.601663

>  <HIPPO Compound ID>  (1213) 
129654

>  <gnina_score_min>  (1213) 
5.389

>  <name>  (1213) 
P95722

>  <exports>  (1213) 
['/opt/xchem-fragalysis-2/maxwin/BulkDock/OUTPUTS/openbind_d68ev3c_c2_elabs_1LOTQJ3.sdf', '/opt/xchem-fragalysis-2/maxwin/BulkDock/OUTPUTS/openbind_d68ev3c_c2_elabs_1LSYI5W.sdf']

$$$$
P95723
     RDKit          3D

 27 29  0  0  0  0  0  0  0  0999 V2000
    9.5517   -1.7746   15.0824 C   0  0  0  0  0  0  0  0  0  0  0  0
   10.8297   -2.4285   15.1751 O   0  0  0  0  0  0  0  0  0  0  0  0
   11.8475   -1.5725   15.5171 C   0  0  0  0  0  0  0  0  0  0  0  0
   11.8612   -0.2835   14.9697 C   0  0  0  0  0  0  0  0  0  0  0  0
   12.7492    0.6708   15.4216 C   0  0  0  0  0  0  0  0  0  0  0  0
   13.6852    0.3188   16.3732 C   0  0  0  0  0  0  0  0  0  0  0  0
   13.7925   -1.0059   16.8163 C   0  0  0  0  0  0  0  0  0  0  0  0
   14.8905   -1.2115   17.6424 N   0  0  0  0  0  0  0  0  0  0  0  0
   15.8814   -2.4101   17.7277 C   0  0  0  0  0  0  0  0  0  0  0  0
   15.8766   -3.4370   17.1696 O   0  0  0  0  0  0  0  0  0  0  0  0
   16.9971   -2.0551   18.7624 C   0  0  0  0  0  0  0  0  0  0  0  0
   18.4910   -2.9687   18.2729 S   0  0  0  0  0  0  0  0  0  0  0  0
   18.2320   -4.3931   18.3362 O   0  0  0  0  0  0  0  0  0  0  0  0
   19.6209   -2.4352   19.0179 O   0  0  0  0  0  0  0  0  0  0  0  0
   18.8030   -2.5372   16.5639 C   0  0  0  0  0  0  0  0  0  0  0  0
   18.4937   -3.4455   15.5458 C   0  0  0  0  0  0  0  0  0  0  0  0
   18.8024   -3.1289   14.2197 C   0  0  0  0  0  0  0  0  0  0  0  0
   19.4203   -1.9148   13.9205 C   0  0  0  0  0  0  0  0  0  0  0  0
   19.7910   -1.5227   12.2875 Cl  0  0  0  0  0  0  0  0  0  0  0  0
   19.7515   -1.0197   14.9376 C   0  0  0  0  0  0  0  0  0  0  0  0
   19.4541   -1.3343   16.2661 C   0  0  0  0  0  0  0  0  0  0  0  0
   17.3538   -0.5621   18.9712 C   0  0  0  0  0  0  0  0  0  0  0  0
   16.6304   -0.1060   20.2449 C   0  0  0  0  0  0  0  0  0  0  0  0
   15.8358   -1.3016   20.7487 C   0  0  0  0  0  0  0  0  0  0  0  0
   16.5465   -2.5101   20.1613 C   0  0  0  0  0  0  0  0  0  0  0  0
   12.8609   -1.9833   16.4138 C   0  0  0  0  0  0  0  0  0  0  0  0
   12.8941   -3.3858   16.9657 C   0  0  0  0  0  0  0  0  0  0  0  0
  1  2  1  0
  2  3  1  0
  3  4  2  0
  4  5  1  0
  5  6  2  0
  6  7  1  0
  7  8  1  0
  8  9  1  0
  9 10  2  0
  9 11  1  0
 11 12  1  0
 12 13  2  0
 12 14  2  0
 12 15  1  0
 15 16  2  0
 16 17  1  0
 17 18  2  0
 18 19  1  0
 18 20  1  0
 20 21  2  0
 11 22  1  0
 22 23  1  0
 23 24  1  0
 24 25  1  0
  7 26  2  0
 26 27  1  0
 26  3  1  0
 25 11  1  0
 21 15  1  0
M  END
>  <ref_mols>  (1214) 
B1396a

>  <gnina_score>  (1214) 
5.18

>  <smina_score_min>  (1214) 
-2.85

>  <ref_pdb>  (1214) 
B1396a

>  <inspiration_score>  (1214) 
None

>  <inchikey>  (1214) 
GECMUEJJUYGUFP-UHFFFAOYSA-N

>  <tags>  (1214) 
BulkDock Fragalysis export,openbind_d68ev3c_c2_elabs_scored,openbind_d68ev3c_c2_elabs_scored_4.5plus,openbind_d68ev3c_c2_elabs,openbind_d68ev3c_c2_elabs_scored_5plus,syndirella_product,openbind_d68ev3c_c2_elabs_scored_top80percent,syndirella_placed

>  <smiles>  (1214) 
COc1cccc(NC(=O)C2(S(=O)(=O)c3ccc(Cl)cc3)CCCC2)c1C

>  <subsites>  (1214) 
None

>  <rmsd(smina/fragmenstein)>  (1214) 
2.268

>  <alias>  (1214) 
None

>  <energy_score>  (1214) 
-12.630104

>  <HIPPO Pose ID>  (1214) 
95723

>  <distance_score>  (1214) 
1.251076

>  <HIPPO Compound ID>  (1214) 
129655

>  <gnina_score_min>  (1214) 
5.173

>  <name>  (1214) 
P95723

>  <exports>  (1214) 
['/opt/xchem-fragalysis-2/maxwin/BulkDock/OUTPUTS/openbind_d68ev3c_c2_elabs_1LOTQJ3.sdf', '/opt/xchem-fragalysis-2/maxwin/BulkDock/OUTPUTS/openbind_d68ev3c_c2_elabs_1LSYI5W.sdf']

$$$$
P95724
     RDKit          3D

 27 29  0  0  0  0  0  0  0  0999 V2000
   16.8966    0.6473   18.0464 O   0  0  0  0  0  0  0  0  0  0  0  0
   16.6933   -0.4752   18.3180 C   0  0  0  0  0  0  0  0  0  0  0  0
   15.4749   -1.3959   17.9757 N   0  0  0  0  0  0  0  0  0  0  0  0
   14.3506   -1.1548   17.1797 C   0  0  0  0  0  0  0  0  0  0  0  0
   14.1021    0.1581   16.7600 C   0  0  0  0  0  0  0  0  0  0  0  0
   13.0440    0.4559   15.9126 C   0  0  0  0  0  0  0  0  0  0  0  0
   12.2640   -0.5710   15.4239 C   0  0  0  0  0  0  0  0  0  0  0  0
   12.5195   -1.8899   15.8160 C   0  0  0  0  0  0  0  0  0  0  0  0
   11.4638   -3.2522   14.7160 I   0  0  0  0  0  0  0  0  0  0  0  0
   13.5059   -2.2090   16.7691 C   0  0  0  0  0  0  0  0  0  0  0  0
   13.6846   -3.5956   17.3409 C   0  0  0  0  0  0  0  0  0  0  0  0
   14.9496   -4.0906   16.9373 O   0  0  0  0  0  0  0  0  0  0  0  0
   17.6588   -1.2364   19.2316 C   0  0  0  0  0  0  0  0  0  0  0  0
   18.4002   -2.5969   18.3413 S   0  0  0  0  0  0  0  0  0  0  0  0
   17.4140   -3.6661   18.3100 O   0  0  0  0  0  0  0  0  0  0  0  0
   19.7111   -2.8657   18.9028 O   0  0  0  0  0  0  0  0  0  0  0  0
   18.6915   -2.1011   16.6524 C   0  0  0  0  0  0  0  0  0  0  0  0
   17.9077   -2.6321   15.6207 C   0  0  0  0  0  0  0  0  0  0  0  0
   18.2078   -2.3217   14.2907 C   0  0  0  0  0  0  0  0  0  0  0  0
   19.2935   -1.4978   13.9979 C   0  0  0  0  0  0  0  0  0  0  0  0
   19.6624   -1.1146   12.3629 Cl  0  0  0  0  0  0  0  0  0  0  0  0
   20.0851   -0.9826   15.0235 C   0  0  0  0  0  0  0  0  0  0  0  0
   19.7916   -1.2907   16.3550 C   0  0  0  0  0  0  0  0  0  0  0  0
   16.9430   -1.7035   20.5145 C   0  0  0  0  0  0  0  0  0  0  0  0
   18.0467   -1.8885   21.5455 C   0  0  0  0  0  0  0  0  0  0  0  0
   19.1082   -0.8556   21.1967 C   0  0  0  0  0  0  0  0  0  0  0  0
   18.7300   -0.2912   19.8262 C   0  0  0  0  0  0  0  0  0  0  0  0
  1  2  2  0
  2  3  1  0
  3  4  1  0
  4  5  2  0
  5  6  1  0
  6  7  2  0
  7  8  1  0
  8  9  1  0
  8 10  2  0
 10 11  1  0
 11 12  1  0
  2 13  1  0
 13 14  1  0
 14 15  2  0
 14 16  2  0
 14 17  1  0
 17 18  2  0
 18 19  1  0
 19 20  2  0
 20 21  1  0
 20 22  1  0
 22 23  2  0
 13 24  1  0
 24 25  1  0
 25 26  1  0
 26 27  1  0
 10  4  1  0
 27 13  1  0
 23 17  1  0
M  END
>  <ref_mols>  (1215) 
B1396a

>  <gnina_score>  (1215) 
5.092

>  <smina_score_min>  (1215) 
-3.227

>  <ref_pdb>  (1215) 
B1396a

>  <inspiration_score>  (1215) 
None

>  <inchikey>  (1215) 
SELBYEBVPKWDNT-UHFFFAOYSA-N

>  <tags>  (1215) 
BulkDock Fragalysis export,openbind_d68ev3c_c2_elabs_scored,openbind_d68ev3c_c2_elabs_scored_4.5plus,openbind_d68ev3c_c2_elabs,openbind_d68ev3c_c2_elabs_scored_5plus,syndirella_product,openbind_d68ev3c_c2_elabs_scored_top80percent,syndirella_placed

>  <smiles>  (1215) 
O=C(Nc1cccc(I)c1CO)C1(S(=O)(=O)c2ccc(Cl)cc2)CCCC1

>  <subsites>  (1215) 
None

>  <rmsd(smina/fragmenstein)>  (1215) 
2.496

>  <alias>  (1215) 
None

>  <energy_score>  (1215) 
-51.144623

>  <HIPPO Pose ID>  (1215) 
95724

>  <distance_score>  (1215) 
1.073961

>  <HIPPO Compound ID>  (1215) 
129656

>  <gnina_score_min>  (1215) 
5.184

>  <name>  (1215) 
P95724

>  <exports>  (1215) 
['/opt/xchem-fragalysis-2/maxwin/BulkDock/OUTPUTS/openbind_d68ev3c_c2_elabs_1LOTQJ3.sdf', '/opt/xchem-fragalysis-2/maxwin/BulkDock/OUTPUTS/openbind_d68ev3c_c2_elabs_1LSYI5W.sdf']

$$$$
P95725
     RDKit          3D

 27 29  0  0  0  0  0  0  0  0999 V2000
   13.5320   -5.2069   17.3350 O   0  0  0  0  0  0  0  0  0  0  0  0
   13.8435   -4.0696   17.6638 C   0  0  0  0  0  0  0  0  0  0  0  0
   13.3456   -2.8910   16.9147 C   0  0  0  0  0  0  0  0  0  0  0  0
   12.2211   -3.1075   16.0947 C   0  0  0  0  0  0  0  0  0  0  0  0
   11.6759   -2.0753   15.3437 C   0  0  0  0  0  0  0  0  0  0  0  0
   12.2305   -0.8073   15.4437 C   0  0  0  0  0  0  0  0  0  0  0  0
   13.3490   -0.5731   16.2625 C   0  0  0  0  0  0  0  0  0  0  0  0
   13.7444    1.0970   16.4764 Cl  0  0  0  0  0  0  0  0  0  0  0  0
   13.9655   -1.6230   16.9768 C   0  0  0  0  0  0  0  0  0  0  0  0
   15.1515   -1.4667   17.7316 N   0  0  0  0  0  0  0  0  0  0  0  0
   16.3555   -0.4818   17.5413 C   0  0  0  0  0  0  0  0  0  0  0  0
   16.5052    0.3952   16.7784 O   0  0  0  0  0  0  0  0  0  0  0  0
   17.4187   -0.7829   18.6138 C   0  0  0  0  0  0  0  0  0  0  0  0
   18.2457   -2.2993   18.1397 S   0  0  0  0  0  0  0  0  0  0  0  0
   17.2460   -3.3559   18.1875 O   0  0  0  0  0  0  0  0  0  0  0  0
   19.4690   -2.4416   18.9057 O   0  0  0  0  0  0  0  0  0  0  0  0
   18.7319   -2.1162   16.4339 C   0  0  0  0  0  0  0  0  0  0  0  0
   17.9364   -2.6542   15.4156 C   0  0  0  0  0  0  0  0  0  0  0  0
   18.3378   -2.5124   14.0838 C   0  0  0  0  0  0  0  0  0  0  0  0
   19.5327   -1.8584   13.7814 C   0  0  0  0  0  0  0  0  0  0  0  0
   20.0208   -1.6811   12.1422 Cl  0  0  0  0  0  0  0  0  0  0  0  0
   20.3396   -1.3536   14.7993 C   0  0  0  0  0  0  0  0  0  0  0  0
   19.9468   -1.4928   16.1316 C   0  0  0  0  0  0  0  0  0  0  0  0
   16.8255   -0.8656   20.0310 C   0  0  0  0  0  0  0  0  0  0  0  0
   17.9649   -0.5231   20.9834 C   0  0  0  0  0  0  0  0  0  0  0  0
   18.9359    0.3404   20.1915 C   0  0  0  0  0  0  0  0  0  0  0  0
   18.3900    0.4042   18.7683 C   0  0  0  0  0  0  0  0  0  0  0  0
  1  2  2  0
  2  3  1  0
  3  4  2  0
  4  5  1  0
  5  6  2  0
  6  7  1  0
  7  8  1  0
  7  9  2  0
  9 10  1  0
 10 11  1  0
 11 12  2  0
 11 13  1  0
 13 14  1  0
 14 15  2  0
 14 16  2  0
 14 17  1  0
 17 18  2  0
 18 19  1  0
 19 20  2  0
 20 21  1  0
 20 22  1  0
 22 23  2  0
 13 24  1  0
 24 25  1  0
 25 26  1  0
 26 27  1  0
  9  3  1  0
 27 13  1  0
 23 17  1  0
M  END
>  <ref_mols>  (1216) 
B1396a

>  <gnina_score>  (1216) 
5.457

>  <smina_score_min>  (1216) 
-3.777

>  <ref_pdb>  (1216) 
B1396a

>  <inspiration_score>  (1216) 
None

>  <inchikey>  (1216) 
FIZBOFHKFWVNAQ-UHFFFAOYSA-N

>  <tags>  (1216) 
BulkDock Fragalysis export,openbind_d68ev3c_c2_elabs_scored,openbind_d68ev3c_c2_elabs_scored_4.5plus,openbind_d68ev3c_c2_elabs,openbind_d68ev3c_c2_elabs_scored_5plus,syndirella_product,openbind_d68ev3c_c2_elabs_scored_top80percent,syndirella_placed

>  <smiles>  (1216) 
O=Cc1cccc(Cl)c1NC(=O)C1(S(=O)(=O)c2ccc(Cl)cc2)CCCC1

>  <subsites>  (1216) 
None

>  <rmsd(smina/fragmenstein)>  (1216) 
1.682

>  <alias>  (1216) 
None

>  <energy_score>  (1216) 
-37.04525

>  <HIPPO Pose ID>  (1216) 
95725

>  <distance_score>  (1216) 
0.428402

>  <HIPPO Compound ID>  (1216) 
129657

>  <gnina_score_min>  (1216) 
5.089

>  <name>  (1216) 
P95725

>  <exports>  (1216) 
['/opt/xchem-fragalysis-2/maxwin/BulkDock/OUTPUTS/openbind_d68ev3c_c2_elabs_1LOTQJ3.sdf', '/opt/xchem-fragalysis-2/maxwin/BulkDock/OUTPUTS/openbind_d68ev3c_c2_elabs_1LSYI5W.sdf']

$$$$
P95726
     RDKit          3D

 27 29  0  0  0  0  0  0  0  0999 V2000
   10.7976   -2.2700   14.6477 C   0  0  0  0  0  0  0  0  0  0  0  0
   11.9307   -2.0372   15.5851 C   0  0  0  0  0  0  0  0  0  0  0  0
   12.4758   -3.0904   16.3102 C   0  0  0  0  0  0  0  0  0  0  0  0
   13.6070   -2.9034   17.1184 C   0  0  0  0  0  0  0  0  0  0  0  0
   14.1396   -4.1178   17.8363 C   0  0  0  0  0  0  0  0  0  0  0  0
   14.2235   -1.6275   17.1853 C   0  0  0  0  0  0  0  0  0  0  0  0
   15.4195   -1.5401   17.9213 N   0  0  0  0  0  0  0  0  0  0  0  0
   16.6264   -0.5526   17.7851 C   0  0  0  0  0  0  0  0  0  0  0  0
   16.7682    0.3814   17.0913 O   0  0  0  0  0  0  0  0  0  0  0  0
   17.7157   -0.9372   18.8052 C   0  0  0  0  0  0  0  0  0  0  0  0
   18.4673   -2.4485   18.2335 S   0  0  0  0  0  0  0  0  0  0  0  0
   19.7313   -2.6342   18.9211 O   0  0  0  0  0  0  0  0  0  0  0  0
   17.4557   -3.4900   18.3102 O   0  0  0  0  0  0  0  0  0  0  0  0
   18.8529   -2.1999   16.5115 C   0  0  0  0  0  0  0  0  0  0  0  0
   18.0320   -2.7508   15.5210 C   0  0  0  0  0  0  0  0  0  0  0  0
   18.3482   -2.5418   14.1756 C   0  0  0  0  0  0  0  0  0  0  0  0
   19.4812   -1.8039   13.8314 C   0  0  0  0  0  0  0  0  0  0  0  0
   19.8570   -1.5404   12.1738 Cl  0  0  0  0  0  0  0  0  0  0  0  0
   20.3110   -1.2785   14.8205 C   0  0  0  0  0  0  0  0  0  0  0  0
   20.0034   -1.4833   16.1669 C   0  0  0  0  0  0  0  0  0  0  0  0
   18.7522    0.1963   18.9606 C   0  0  0  0  0  0  0  0  0  0  0  0
   18.1166    1.1860   19.9360 C   0  0  0  0  0  0  0  0  0  0  0  0
   17.0854    0.3916   20.7309 C   0  0  0  0  0  0  0  0  0  0  0  0
   17.2074   -1.0507   20.2499 C   0  0  0  0  0  0  0  0  0  0  0  0
   13.6051   -0.5512   16.5202 C   0  0  0  0  0  0  0  0  0  0  0  0
   13.9995    1.2881   16.8087 Br  0  0  0  0  0  0  0  0  0  0  0  0
   12.4891   -0.7688   15.7031 C   0  0  0  0  0  0  0  0  0  0  0  0
  1  2  1  0
  2  3  2  0
  3  4  1  0
  4  5  1  0
  4  6  2  0
  6  7  1  0
  7  8  1  0
  8  9  2  0
  8 10  1  0
 10 11  1  0
 11 12  2  0
 11 13  2  0
 11 14  1  0
 14 15  2  0
 15 16  1  0
 16 17  2  0
 17 18  1  0
 17 19  1  0
 19 20  2  0
 10 21  1  0
 21 22  1  0
 22 23  1  0
 23 24  1  0
  6 25  1  0
 25 26  1  0
 25 27  2  0
 27  2  1  0
 24 10  1  0
 20 14  1  0
M  END
>  <ref_mols>  (1217) 
B1396a

>  <gnina_score>  (1217) 
5.431

>  <smina_score_min>  (1217) 
-3.662

>  <ref_pdb>  (1217) 
B1396a

>  <inspiration_score>  (1217) 
None

>  <inchikey>  (1217) 
HTVWSTLIDSUGPL-UHFFFAOYSA-N

>  <tags>  (1217) 
BulkDock Fragalysis export,openbind_d68ev3c_c2_elabs_scored,openbind_d68ev3c_c2_elabs_scored_4.5plus,openbind_d68ev3c_c2_elabs,openbind_d68ev3c_c2_elabs_scored_5plus,syndirella_product,openbind_d68ev3c_c2_elabs_scored_top80percent,syndirella_placed

>  <smiles>  (1217) 
Cc1cc(C)c(NC(=O)C2(S(=O)(=O)c3ccc(Cl)cc3)CCCC2)c(Br)c1

>  <subsites>  (1217) 
None

>  <rmsd(smina/fragmenstein)>  (1217) 
1.928

>  <alias>  (1217) 
None

>  <energy_score>  (1217) 
-39.702682

>  <HIPPO Pose ID>  (1217) 
95726

>  <distance_score>  (1217) 
0.571818

>  <HIPPO Compound ID>  (1217) 
129659

>  <gnina_score_min>  (1217) 
5.172

>  <name>  (1217) 
P95726

>  <exports>  (1217) 
['/opt/xchem-fragalysis-2/maxwin/BulkDock/OUTPUTS/openbind_d68ev3c_c2_elabs_1LOTQJ3.sdf', '/opt/xchem-fragalysis-2/maxwin/BulkDock/OUTPUTS/openbind_d68ev3c_c2_elabs_1LSYI5W.sdf']

$$$$
P95727
     RDKit          3D

 27 29  0  0  0  0  0  0  0  0999 V2000
   16.5861    0.3195   17.4224 O   0  0  0  0  0  0  0  0  0  0  0  0
   16.4727   -0.7472   17.8943 C   0  0  0  0  0  0  0  0  0  0  0  0
   15.3794   -1.8416   17.6711 N   0  0  0  0  0  0  0  0  0  0  0  0
   14.2041   -1.8059   16.9256 C   0  0  0  0  0  0  0  0  0  0  0  0
   13.8427   -0.6375   16.2489 C   0  0  0  0  0  0  0  0  0  0  0  0
   12.6019   -0.5392   15.6260 C   0  0  0  0  0  0  0  0  0  0  0  0
   11.7382   -1.6239   15.6504 C   0  0  0  0  0  0  0  0  0  0  0  0
   10.1329   -1.4106   15.0938 Cl  0  0  0  0  0  0  0  0  0  0  0  0
   12.1277   -2.8305   16.2282 C   0  0  0  0  0  0  0  0  0  0  0  0
   13.3543   -2.9270   16.9045 C   0  0  0  0  0  0  0  0  0  0  0  0
   13.6859   -4.2002   17.6351 C   0  0  0  0  0  0  0  0  0  0  0  0
   13.6430   -3.9495   19.0311 O   0  0  0  0  0  0  0  0  0  0  0  0
   17.4790   -1.2583   18.9335 C   0  0  0  0  0  0  0  0  0  0  0  0
   18.4035   -2.6075   18.2065 S   0  0  0  0  0  0  0  0  0  0  0  0
   19.6862   -2.7200   18.8758 O   0  0  0  0  0  0  0  0  0  0  0  0
   17.5212   -3.7620   18.1519 O   0  0  0  0  0  0  0  0  0  0  0  0
   18.7676   -2.1715   16.5137 C   0  0  0  0  0  0  0  0  0  0  0  0
   19.8639   -1.3505   16.2341 C   0  0  0  0  0  0  0  0  0  0  0  0
   20.1887   -1.0618   14.9067 C   0  0  0  0  0  0  0  0  0  0  0  0
   19.4338   -1.6094   13.8700 C   0  0  0  0  0  0  0  0  0  0  0  0
   19.8416   -1.2492   12.2387 Cl  0  0  0  0  0  0  0  0  0  0  0  0
   18.3555   -2.4498   14.1467 C   0  0  0  0  0  0  0  0  0  0  0  0
   18.0223   -2.7403   15.4726 C   0  0  0  0  0  0  0  0  0  0  0  0
   18.4021   -0.1172   19.4157 C   0  0  0  0  0  0  0  0  0  0  0  0
   18.8205   -0.4595   20.8450 C   0  0  0  0  0  0  0  0  0  0  0  0
   17.8790   -1.5566   21.3184 C   0  0  0  0  0  0  0  0  0  0  0  0
   16.7974   -1.6637   20.2526 C   0  0  0  0  0  0  0  0  0  0  0  0
  1  2  2  0
  2  3  1  0
  3  4  1  0
  4  5  2  0
  5  6  1  0
  6  7  2  0
  7  8  1  0
  7  9  1  0
  9 10  2  0
 10 11  1  0
 11 12  1  0
  2 13  1  0
 13 14  1  0
 14 15  2  0
 14 16  2  0
 14 17  1  0
 17 18  2  0
 18 19  1  0
 19 20  2  0
 20 21  1  0
 20 22  1  0
 22 23  2  0
 13 24  1  0
 24 25  1  0
 25 26  1  0
 26 27  1  0
 10  4  1  0
 27 13  1  0
 23 17  1  0
M  END
>  <ref_mols>  (1218) 
B1396a

>  <gnina_score>  (1218) 
5.335

>  <smina_score_min>  (1218) 
-3.478

>  <ref_pdb>  (1218) 
B1396a

>  <inspiration_score>  (1218) 
None

>  <inchikey>  (1218) 
MQARZPOUWRJCBS-UHFFFAOYSA-N

>  <tags>  (1218) 
BulkDock Fragalysis export,openbind_d68ev3c_c2_elabs_scored,openbind_d68ev3c_c2_elabs_scored_4.5plus,openbind_d68ev3c_c2_elabs,openbind_d68ev3c_c2_elabs_scored_5plus,syndirella_product,openbind_d68ev3c_c2_elabs_scored_top80percent,syndirella_placed

>  <smiles>  (1218) 
O=C(Nc1ccc(Cl)cc1CO)C1(S(=O)(=O)c2ccc(Cl)cc2)CCCC1

>  <subsites>  (1218) 
None

>  <rmsd(smina/fragmenstein)>  (1218) 
2.124

>  <alias>  (1218) 
None

>  <energy_score>  (1218) 
-54.495203

>  <HIPPO Pose ID>  (1218) 
95727

>  <distance_score>  (1218) 
0.558891

>  <HIPPO Compound ID>  (1218) 
129661

>  <gnina_score_min>  (1218) 
5.008

>  <name>  (1218) 
P95727

>  <exports>  (1218) 
['/opt/xchem-fragalysis-2/maxwin/BulkDock/OUTPUTS/openbind_d68ev3c_c2_elabs_1LOTQJ3.sdf', '/opt/xchem-fragalysis-2/maxwin/BulkDock/OUTPUTS/openbind_d68ev3c_c2_elabs_1LSYI5W.sdf']

$$$$
P95730
     RDKit          3D

 27 29  0  0  0  0  0  0  0  0999 V2000
   13.3250    0.4624   12.9366 C   0  0  0  0  0  0  0  0  0  0  0  0
   11.9323    0.4407   14.0983 S   0  0  0  0  0  0  0  0  0  0  0  0
   12.4695   -0.8895   15.1599 C   0  0  0  0  0  0  0  0  0  0  0  0
   11.7186   -2.0615   15.2114 C   0  0  0  0  0  0  0  0  0  0  0  0
   12.1311   -3.1154   16.0261 C   0  0  0  0  0  0  0  0  0  0  0  0
   13.2907   -3.0145   16.8112 C   0  0  0  0  0  0  0  0  0  0  0  0
   13.6919   -4.1862   17.6653 C   0  0  0  0  0  0  0  0  0  0  0  0
   14.0348   -1.8240   16.7740 C   0  0  0  0  0  0  0  0  0  0  0  0
   15.1712   -1.6949   17.5764 N   0  0  0  0  0  0  0  0  0  0  0  0
   16.2379   -0.5536   17.6492 C   0  0  0  0  0  0  0  0  0  0  0  0
   16.2795    0.4824   17.1025 O   0  0  0  0  0  0  0  0  0  0  0  0
   17.2936   -0.9291   18.7081 C   0  0  0  0  0  0  0  0  0  0  0  0
   18.2135   -2.3602   18.1433 S   0  0  0  0  0  0  0  0  0  0  0  0
   19.4681   -2.4433   18.8678 O   0  0  0  0  0  0  0  0  0  0  0  0
   17.3054   -3.4960   18.1661 O   0  0  0  0  0  0  0  0  0  0  0  0
   18.6422   -2.0730   16.4365 C   0  0  0  0  0  0  0  0  0  0  0  0
   17.8706   -2.6423   15.4169 C   0  0  0  0  0  0  0  0  0  0  0  0
   18.2422   -2.4476   14.0838 C   0  0  0  0  0  0  0  0  0  0  0  0
   19.3847   -1.7069   13.7798 C   0  0  0  0  0  0  0  0  0  0  0  0
   19.8286   -1.4592   12.1369 Cl  0  0  0  0  0  0  0  0  0  0  0  0
   20.1692   -1.1665   14.7975 C   0  0  0  0  0  0  0  0  0  0  0  0
   19.8053   -1.3580   16.1319 C   0  0  0  0  0  0  0  0  0  0  0  0
   18.2184    0.2668   19.0221 C   0  0  0  0  0  0  0  0  0  0  0  0
   18.6799    0.1007   20.4690 C   0  0  0  0  0  0  0  0  0  0  0  0
   17.7410   -0.9121   21.1079 C   0  0  0  0  0  0  0  0  0  0  0  0
   16.6445   -1.1709   20.0837 C   0  0  0  0  0  0  0  0  0  0  0  0
   13.6216   -0.7726   15.9477 C   0  0  0  0  0  0  0  0  0  0  0  0
  1  2  1  0
  2  3  1  0
  3  4  2  0
  4  5  1  0
  5  6  2  0
  6  7  1  0
  6  8  1  0
  8  9  1  0
  9 10  1  0
 10 11  2  0
 10 12  1  0
 12 13  1  0
 13 14  2  0
 13 15  2  0
 13 16  1  0
 16 17  2  0
 17 18  1  0
 18 19  2  0
 19 20  1  0
 19 21  1  0
 21 22  2  0
 12 23  1  0
 23 24  1  0
 24 25  1  0
 25 26  1  0
  8 27  2  0
 27  3  1  0
 26 12  1  0
 22 16  1  0
M  END
>  <ref_mols>  (1219) 
B1396a

>  <gnina_score>  (1219) 
5.227

>  <smina_score_min>  (1219) 
-3.97

>  <ref_pdb>  (1219) 
B1396a

>  <inspiration_score>  (1219) 
None

>  <inchikey>  (1219) 
QWDUYCLCZBXBLG-UHFFFAOYSA-N

>  <tags>  (1219) 
BulkDock Fragalysis export,openbind_d68ev3c_c2_elabs_scored,openbind_d68ev3c_c2_elabs_scored_4.5plus,openbind_d68ev3c_c2_elabs,openbind_d68ev3c_c2_elabs_scored_5plus,syndirella_product,openbind_d68ev3c_c2_elabs_scored_top80percent,syndirella_placed

>  <smiles>  (1219) 
CSc1ccc(C)c(NC(=O)C2(S(=O)(=O)c3ccc(Cl)cc3)CCCC2)c1

>  <subsites>  (1219) 
None

>  <rmsd(smina/fragmenstein)>  (1219) 
2.146

>  <alias>  (1219) 
None

>  <energy_score>  (1219) 
-38.802852

>  <HIPPO Pose ID>  (1219) 
95730

>  <distance_score>  (1219) 
0.447272

>  <HIPPO Compound ID>  (1219) 
129666

>  <gnina_score_min>  (1219) 
5.232

>  <name>  (1219) 
P95730

>  <exports>  (1219) 
['/opt/xchem-fragalysis-2/maxwin/BulkDock/OUTPUTS/openbind_d68ev3c_c2_elabs_1LOTQJ3.sdf', '/opt/xchem-fragalysis-2/maxwin/BulkDock/OUTPUTS/openbind_d68ev3c_c2_elabs_1LSYI5W.sdf']

$$$$
P95731
     RDKit          3D

 27 29  0  0  0  0  0  0  0  0999 V2000
   14.8288    0.5087   15.5758 C   0  0  0  0  0  0  0  0  0  0  0  0
   13.9577   -0.6526   15.9620 C   0  0  0  0  0  0  0  0  0  0  0  0
   12.6480   -0.6148   15.4480 C   0  0  0  0  0  0  0  0  0  0  0  0
   11.7802   -1.6782   15.6246 C   0  0  0  0  0  0  0  0  0  0  0  0
   10.1515   -1.5070   15.1277 Cl  0  0  0  0  0  0  0  0  0  0  0  0
   12.2154   -2.8318   16.2556 C   0  0  0  0  0  0  0  0  0  0  0  0
   13.4896   -2.8738   16.8461 C   0  0  0  0  0  0  0  0  0  0  0  0
   13.8553   -4.1227   17.6130 C   0  0  0  0  0  0  0  0  0  0  0  0
   14.3508   -1.7456   16.7603 C   0  0  0  0  0  0  0  0  0  0  0  0
   15.5324   -1.8095   17.5245 N   0  0  0  0  0  0  0  0  0  0  0  0
   16.5415   -0.6817   17.9344 C   0  0  0  0  0  0  0  0  0  0  0  0
   16.5786    0.4506   17.6315 O   0  0  0  0  0  0  0  0  0  0  0  0
   17.5485   -1.2550   18.9462 C   0  0  0  0  0  0  0  0  0  0  0  0
   18.4278   -2.6175   18.1818 S   0  0  0  0  0  0  0  0  0  0  0  0
   17.4941   -3.7326   18.1164 O   0  0  0  0  0  0  0  0  0  0  0  0
   19.7019   -2.7896   18.8530 O   0  0  0  0  0  0  0  0  0  0  0  0
   18.7974   -2.1657   16.4965 C   0  0  0  0  0  0  0  0  0  0  0  0
   18.0835   -2.7590   15.4462 C   0  0  0  0  0  0  0  0  0  0  0  0
   18.4149   -2.4524   14.1238 C   0  0  0  0  0  0  0  0  0  0  0  0
   19.4612   -1.5699   13.8587 C   0  0  0  0  0  0  0  0  0  0  0  0
   19.8676   -1.1873   12.2324 Cl  0  0  0  0  0  0  0  0  0  0  0  0
   20.1861   -0.9978   14.9038 C   0  0  0  0  0  0  0  0  0  0  0  0
   19.8630   -1.3030   16.2284 C   0  0  0  0  0  0  0  0  0  0  0  0
   18.5360   -0.1676   19.4560 C   0  0  0  0  0  0  0  0  0  0  0  0
   18.6681   -0.4044   20.9538 C   0  0  0  0  0  0  0  0  0  0  0  0
   17.2612   -0.7918   21.3525 C   0  0  0  0  0  0  0  0  0  0  0  0
   16.8190   -1.7305   20.2364 C   0  0  0  0  0  0  0  0  0  0  0  0
  1  2  1  0
  2  3  2  0
  3  4  1  0
  4  5  1  0
  4  6  2  0
  6  7  1  0
  7  8  1  0
  7  9  2  0
  9 10  1  0
 10 11  1  0
 11 12  2  0
 11 13  1  0
 13 14  1  0
 14 15  2  0
 14 16  2  0
 14 17  1  0
 17 18  2  0
 18 19  1  0
 19 20  2  0
 20 21  1  0
 20 22  1  0
 22 23  2  0
 13 24  1  0
 24 25  1  0
 25 26  1  0
 26 27  1  0
  9  2  1  0
 27 13  1  0
 23 17  1  0
M  END
>  <ref_mols>  (1220) 
B1396a

>  <gnina_score>  (1220) 
5.612

>  <smina_score_min>  (1220) 
-3.194

>  <ref_pdb>  (1220) 
B1396a

>  <inspiration_score>  (1220) 
None

>  <inchikey>  (1220) 
WRZUSAIKNOHMNG-UHFFFAOYSA-N

>  <tags>  (1220) 
BulkDock Fragalysis export,openbind_d68ev3c_c2_elabs_scored,openbind_d68ev3c_c2_elabs_scored_4.5plus,openbind_d68ev3c_c2_elabs,openbind_d68ev3c_c2_elabs_scored_5plus,syndirella_product,openbind_d68ev3c_c2_elabs_scored_top80percent,syndirella_placed

>  <smiles>  (1220) 
Cc1cc(Cl)cc(C)c1NC(=O)C1(S(=O)(=O)c2ccc(Cl)cc2)CCCC1

>  <subsites>  (1220) 
None

>  <rmsd(smina/fragmenstein)>  (1220) 
1.332

>  <alias>  (1220) 
None

>  <energy_score>  (1220) 
-31.209284

>  <HIPPO Pose ID>  (1220) 
95731

>  <distance_score>  (1220) 
0.627651

>  <HIPPO Compound ID>  (1220) 
129667

>  <gnina_score_min>  (1220) 
5.376

>  <name>  (1220) 
P95731

>  <exports>  (1220) 
['/opt/xchem-fragalysis-2/maxwin/BulkDock/OUTPUTS/openbind_d68ev3c_c2_elabs_1LOTQJ3.sdf', '/opt/xchem-fragalysis-2/maxwin/BulkDock/OUTPUTS/openbind_d68ev3c_c2_elabs_1LSYI5W.sdf']

$$$$
P95732
     RDKit          3D

 27 30  0  0  0  0  0  0  0  0999 V2000
   16.7857   -0.4581   16.4445 O   0  0  0  0  0  0  0  0  0  0  0  0
   16.3464   -1.0030   17.3938 C   0  0  0  0  0  0  0  0  0  0  0  0
   14.9768   -1.6236   17.6261 N   0  0  0  0  0  0  0  0  0  0  0  0
   14.9585   -3.1558   17.2058 C   0  0  0  0  0  0  0  0  0  0  0  0
   13.6161   -3.8359   17.3775 C   0  0  0  0  0  0  0  0  0  0  0  0
   12.9815   -2.7588   16.6430 C   0  0  0  0  0  0  0  0  0  0  0  0
   11.8791   -2.7646   15.8173 C   0  0  0  0  0  0  0  0  0  0  0  0
   11.2177   -3.8969   15.5914 F   0  0  0  0  0  0  0  0  0  0  0  0
   11.4890   -1.6044   15.1648 C   0  0  0  0  0  0  0  0  0  0  0  0
   12.2456   -0.4437   15.3248 C   0  0  0  0  0  0  0  0  0  0  0  0
   13.3947   -0.4618   16.1234 C   0  0  0  0  0  0  0  0  0  0  0  0
   13.7740   -1.6377   16.7762 C   0  0  0  0  0  0  0  0  0  0  0  0
   17.2179   -1.1714   18.6439 C   0  0  0  0  0  0  0  0  0  0  0  0
   18.4916   -2.4078   18.2761 S   0  0  0  0  0  0  0  0  0  0  0  0
   19.6852   -2.1098   19.0481 O   0  0  0  0  0  0  0  0  0  0  0  0
   17.8959   -3.7280   18.3985 O   0  0  0  0  0  0  0  0  0  0  0  0
   18.9789   -2.2503   16.5624 C   0  0  0  0  0  0  0  0  0  0  0  0
   19.8458   -1.2203   16.1838 C   0  0  0  0  0  0  0  0  0  0  0  0
   20.2273   -1.0975   14.8458 C   0  0  0  0  0  0  0  0  0  0  0  0
   19.7685   -2.0177   13.9034 C   0  0  0  0  0  0  0  0  0  0  0  0
   20.2556   -1.8679   12.2607 Cl  0  0  0  0  0  0  0  0  0  0  0  0
   18.9394   -3.0718   14.2873 C   0  0  0  0  0  0  0  0  0  0  0  0
   18.5447   -3.1953   15.6224 C   0  0  0  0  0  0  0  0  0  0  0  0
   16.4707   -1.5005   19.9480 C   0  0  0  0  0  0  0  0  0  0  0  0
   17.3941   -1.0313   21.0616 C   0  0  0  0  0  0  0  0  0  0  0  0
   18.0850    0.2052   20.5071 C   0  0  0  0  0  0  0  0  0  0  0  0
   17.8470    0.1961   18.9957 C   0  0  0  0  0  0  0  0  0  0  0  0
  1  2  2  0
  2  3  1  0
  3  4  1  0
  4  5  1  0
  5  6  1  0
  6  7  2  0
  7  8  1  0
  7  9  1  0
  9 10  2  0
 10 11  1  0
 11 12  2  0
  2 13  1  0
 13 14  1  0
 14 15  2  0
 14 16  2  0
 14 17  1  0
 17 18  2  0
 18 19  1  0
 19 20  2  0
 20 21  1  0
 20 22  1  0
 22 23  2  0
 13 24  1  0
 24 25  1  0
 25 26  1  0
 26 27  1  0
 12  3  1  0
 27 13  1  0
 12  6  1  0
 23 17  1  0
M  END
>  <ref_mols>  (1221) 
B1396a

>  <gnina_score>  (1221) 
5.331

>  <smina_score_min>  (1221) 
-4.492

>  <ref_pdb>  (1221) 
B1396a

>  <inspiration_score>  (1221) 
None

>  <inchikey>  (1221) 
YOYFMDXCGFVPSU-UHFFFAOYSA-N

>  <tags>  (1221) 
BulkDock Fragalysis export,openbind_d68ev3c_c2_elabs_scored,openbind_d68ev3c_c2_elabs_scored_4.5plus,openbind_d68ev3c_c2_elabs,openbind_d68ev3c_c2_elabs_scored_5plus,syndirella_product,openbind_d68ev3c_c2_elabs_scored_top80percent,syndirella_placed

>  <smiles>  (1221) 
O=C(N1CCc2c(F)cccc21)C1(S(=O)(=O)c2ccc(Cl)cc2)CCCC1

>  <subsites>  (1221) 
None

>  <rmsd(smina/fragmenstein)>  (1221) 
2.931

>  <alias>  (1221) 
None

>  <energy_score>  (1221) 
-2.400336

>  <HIPPO Pose ID>  (1221) 
95732

>  <distance_score>  (1221) 
0.409513

>  <HIPPO Compound ID>  (1221) 
129668

>  <gnina_score_min>  (1221) 
5.036

>  <name>  (1221) 
P95732

>  <exports>  (1221) 
['/opt/xchem-fragalysis-2/maxwin/BulkDock/OUTPUTS/openbind_d68ev3c_c2_elabs_1LOTQJ3.sdf', '/opt/xchem-fragalysis-2/maxwin/BulkDock/OUTPUTS/openbind_d68ev3c_c2_elabs_1LSYI5W.sdf']

$$$$
P95734
     RDKit          3D

 27 29  0  0  0  0  0  0  0  0999 V2000
   13.3546   -4.3825   20.4639 C   0  0  0  0  0  0  0  0  0  0  0  0
   14.8216   -4.3163   19.4261 S   0  0  0  0  0  0  0  0  0  0  0  0
   14.0988   -4.4572   17.7652 C   0  0  0  0  0  0  0  0  0  0  0  0
   13.5395   -3.2065   17.1162 C   0  0  0  0  0  0  0  0  0  0  0  0
   12.3131   -3.3226   16.4258 C   0  0  0  0  0  0  0  0  0  0  0  0
   11.7869   -2.2699   15.6740 C   0  0  0  0  0  0  0  0  0  0  0  0
   12.4758   -1.0687   15.6052 C   0  0  0  0  0  0  0  0  0  0  0  0
   13.6964   -0.9320   16.2685 C   0  0  0  0  0  0  0  0  0  0  0  0
   14.2401   -1.9908   17.0099 C   0  0  0  0  0  0  0  0  0  0  0  0
   15.4870   -1.8448   17.6189 N   0  0  0  0  0  0  0  0  0  0  0  0
   16.4603   -0.6226   17.6574 C   0  0  0  0  0  0  0  0  0  0  0  0
   16.3953    0.4167   17.1192 O   0  0  0  0  0  0  0  0  0  0  0  0
   17.6170   -0.9210   18.6391 C   0  0  0  0  0  0  0  0  0  0  0  0
   18.5399   -2.3379   18.0590 S   0  0  0  0  0  0  0  0  0  0  0  0
   17.6685   -3.4981   18.1032 O   0  0  0  0  0  0  0  0  0  0  0  0
   19.8142   -2.3862   18.7518 O   0  0  0  0  0  0  0  0  0  0  0  0
   18.9040   -2.0411   16.3425 C   0  0  0  0  0  0  0  0  0  0  0  0
   19.9818   -1.2186   16.0050 C   0  0  0  0  0  0  0  0  0  0  0  0
   20.2986   -1.0200   14.6605 C   0  0  0  0  0  0  0  0  0  0  0  0
   19.5537   -1.6570   13.6681 C   0  0  0  0  0  0  0  0  0  0  0  0
   19.9540   -1.4084   12.0141 Cl  0  0  0  0  0  0  0  0  0  0  0  0
   18.4927   -2.4973   14.0063 C   0  0  0  0  0  0  0  0  0  0  0  0
   18.1664   -2.6977   15.3495 C   0  0  0  0  0  0  0  0  0  0  0  0
   17.1258   -1.1108   20.0818 C   0  0  0  0  0  0  0  0  0  0  0  0
   16.8812    0.3017   20.6027 C   0  0  0  0  0  0  0  0  0  0  0  0
   17.8344    1.2061   19.8307 C   0  0  0  0  0  0  0  0  0  0  0  0
   18.5328    0.3124   18.8071 C   0  0  0  0  0  0  0  0  0  0  0  0
  1  2  1  0
  2  3  1  0
  3  4  1  0
  4  5  2  0
  5  6  1  0
  6  7  2  0
  7  8  1  0
  8  9  2  0
  9 10  1  0
 10 11  1  0
 11 12  2  0
 11 13  1  0
 13 14  1  0
 14 15  2  0
 14 16  2  0
 14 17  1  0
 17 18  2  0
 18 19  1  0
 19 20  2  0
 20 21  1  0
 20 22  1  0
 22 23  2  0
 13 24  1  0
 24 25  1  0
 25 26  1  0
 26 27  1  0
  9  4  1  0
 27 13  1  0
 23 17  1  0
M  END
>  <ref_mols>  (1222) 
B1396a

>  <gnina_score>  (1222) 
5.188

>  <smina_score_min>  (1222) 
-2.8

>  <ref_pdb>  (1222) 
B1396a

>  <inspiration_score>  (1222) 
None

>  <inchikey>  (1222) 
GSBPMCYJIIYNEM-UHFFFAOYSA-N

>  <tags>  (1222) 
BulkDock Fragalysis export,openbind_d68ev3c_c2_elabs_scored,openbind_d68ev3c_c2_elabs_scored_4.5plus,openbind_d68ev3c_c2_elabs,openbind_d68ev3c_c2_elabs_scored_5plus,syndirella_product,openbind_d68ev3c_c2_elabs_scored_top80percent,syndirella_placed

>  <smiles>  (1222) 
CSCc1ccccc1NC(=O)C1(S(=O)(=O)c2ccc(Cl)cc2)CCCC1

>  <subsites>  (1222) 
None

>  <rmsd(smina/fragmenstein)>  (1222) 
1.978

>  <alias>  (1222) 
None

>  <energy_score>  (1222) 
-66.397868

>  <HIPPO Pose ID>  (1222) 
95734

>  <distance_score>  (1222) 
0.51169

>  <HIPPO Compound ID>  (1222) 
129670

>  <gnina_score_min>  (1222) 
5.246

>  <name>  (1222) 
P95734

>  <exports>  (1222) 
['/opt/xchem-fragalysis-2/maxwin/BulkDock/OUTPUTS/openbind_d68ev3c_c2_elabs_1LOTQJ3.sdf', '/opt/xchem-fragalysis-2/maxwin/BulkDock/OUTPUTS/openbind_d68ev3c_c2_elabs_1LSYI5W.sdf']

$$$$
P95735
     RDKit          3D

 27 29  0  0  0  0  0  0  0  0999 V2000
   14.1183   -4.9900   18.3640 N   0  0  0  0  0  0  0  0  0  0  0  0
   13.7272   -4.1306   17.6932 C   0  0  0  0  0  0  0  0  0  0  0  0
   13.3132   -3.0309   16.8739 C   0  0  0  0  0  0  0  0  0  0  0  0
   12.1538   -3.1638   16.0957 C   0  0  0  0  0  0  0  0  0  0  0  0
   11.7236   -2.1181   15.2805 C   0  0  0  0  0  0  0  0  0  0  0  0
   12.4615   -0.9390   15.2411 C   0  0  0  0  0  0  0  0  0  0  0  0
   11.8768    0.4832   14.1410 Br  0  0  0  0  0  0  0  0  0  0  0  0
   13.6268   -0.7980   16.0011 C   0  0  0  0  0  0  0  0  0  0  0  0
   14.0624   -1.8422   16.8250 C   0  0  0  0  0  0  0  0  0  0  0  0
   15.2204   -1.6990   17.6040 N   0  0  0  0  0  0  0  0  0  0  0  0
   16.2674   -0.5387   17.6623 C   0  0  0  0  0  0  0  0  0  0  0  0
   16.2763    0.5028   17.1252 O   0  0  0  0  0  0  0  0  0  0  0  0
   17.3575   -0.9030   18.6920 C   0  0  0  0  0  0  0  0  0  0  0  0
   18.2778   -2.3246   18.1091 S   0  0  0  0  0  0  0  0  0  0  0  0
   19.5343   -2.4144   18.8287 O   0  0  0  0  0  0  0  0  0  0  0  0
   17.3654   -3.4558   18.1197 O   0  0  0  0  0  0  0  0  0  0  0  0
   18.7003   -2.0271   16.4033 C   0  0  0  0  0  0  0  0  0  0  0  0
   19.8491   -1.2900   16.0997 C   0  0  0  0  0  0  0  0  0  0  0  0
   20.2177   -1.1040   14.7661 C   0  0  0  0  0  0  0  0  0  0  0  0
   19.4540   -1.6731   13.7481 C   0  0  0  0  0  0  0  0  0  0  0  0
   19.9143   -1.4399   12.1079 Cl  0  0  0  0  0  0  0  0  0  0  0  0
   18.3254   -2.4355   14.0508 C   0  0  0  0  0  0  0  0  0  0  0  0
   17.9486   -2.6236   15.3836 C   0  0  0  0  0  0  0  0  0  0  0  0
   16.7417   -1.1526   20.0823 C   0  0  0  0  0  0  0  0  0  0  0  0
   17.8541   -0.8747   21.0846 C   0  0  0  0  0  0  0  0  0  0  0  0
   18.7753    0.1379   20.4200 C   0  0  0  0  0  0  0  0  0  0  0  0
   18.2727    0.3045   18.9873 C   0  0  0  0  0  0  0  0  0  0  0  0
  1  2  3  0
  2  3  1  0
  3  4  2  0
  4  5  1  0
  5  6  2  0
  6  7  1  0
  6  8  1  0
  8  9  2  0
  9 10  1  0
 10 11  1  0
 11 12  2  0
 11 13  1  0
 13 14  1  0
 14 15  2  0
 14 16  2  0
 14 17  1  0
 17 18  2  0
 18 19  1  0
 19 20  2  0
 20 21  1  0
 20 22  1  0
 22 23  2  0
 13 24  1  0
 24 25  1  0
 25 26  1  0
 26 27  1  0
  9  3  1  0
 27 13  1  0
 23 17  1  0
M  END
>  <ref_mols>  (1223) 
B1396a

>  <gnina_score>  (1223) 
5.469

>  <smina_score_min>  (1223) 
-3.771

>  <ref_pdb>  (1223) 
B1396a

>  <inspiration_score>  (1223) 
None

>  <inchikey>  (1223) 
GAQJVURHZGREAA-UHFFFAOYSA-N

>  <tags>  (1223) 
BulkDock Fragalysis export,openbind_d68ev3c_c2_elabs_scored,openbind_d68ev3c_c2_elabs_scored_4.5plus,openbind_d68ev3c_c2_elabs,openbind_d68ev3c_c2_elabs_scored_5plus,syndirella_product,openbind_d68ev3c_c2_elabs_scored_top80percent,syndirella_placed

>  <smiles>  (1223) 
N#Cc1ccc(Br)cc1NC(=O)C1(S(=O)(=O)c2ccc(Cl)cc2)CCCC1

>  <subsites>  (1223) 
None

>  <rmsd(smina/fragmenstein)>  (1223) 
1.532

>  <alias>  (1223) 
None

>  <energy_score>  (1223) 
-52.091117

>  <HIPPO Pose ID>  (1223) 
95735

>  <distance_score>  (1223) 
0.452142

>  <HIPPO Compound ID>  (1223) 
129671

>  <gnina_score_min>  (1223) 
5.368

>  <name>  (1223) 
P95735

>  <exports>  (1223) 
['/opt/xchem-fragalysis-2/maxwin/BulkDock/OUTPUTS/openbind_d68ev3c_c2_elabs_1LOTQJ3.sdf', '/opt/xchem-fragalysis-2/maxwin/BulkDock/OUTPUTS/openbind_d68ev3c_c2_elabs_1LSYI5W.sdf']

$$$$
P95736
     RDKit          3D

 27 29  0  0  0  0  0  0  0  0999 V2000
   14.1952   -4.9455   18.2183 N   0  0  0  0  0  0  0  0  0  0  0  0
   13.8009   -4.0393   17.6129 C   0  0  0  0  0  0  0  0  0  0  0  0
   13.4028   -2.8833   16.8730 C   0  0  0  0  0  0  0  0  0  0  0  0
   12.2506   -2.9482   16.0897 C   0  0  0  0  0  0  0  0  0  0  0  0
   11.5380   -4.0755   16.0465 F   0  0  0  0  0  0  0  0  0  0  0  0
   11.8061   -1.8642   15.3414 C   0  0  0  0  0  0  0  0  0  0  0  0
   12.5339   -0.6826   15.3710 C   0  0  0  0  0  0  0  0  0  0  0  0
   13.7009   -0.6017   16.1393 C   0  0  0  0  0  0  0  0  0  0  0  0
   14.1488   -1.6967   16.8919 C   0  0  0  0  0  0  0  0  0  0  0  0
   15.3218   -1.5878   17.6530 N   0  0  0  0  0  0  0  0  0  0  0  0
   16.4128   -0.4662   17.6825 C   0  0  0  0  0  0  0  0  0  0  0  0
   16.4529    0.5680   17.1322 O   0  0  0  0  0  0  0  0  0  0  0  0
   17.5077   -0.8573   18.7042 C   0  0  0  0  0  0  0  0  0  0  0  0
   18.3354   -2.3372   18.1278 S   0  0  0  0  0  0  0  0  0  0  0  0
   19.5724   -2.5098   18.8650 O   0  0  0  0  0  0  0  0  0  0  0  0
   17.3442   -3.4003   18.1287 O   0  0  0  0  0  0  0  0  0  0  0  0
   18.7850   -2.0561   16.4280 C   0  0  0  0  0  0  0  0  0  0  0  0
   19.8762   -1.2346   16.1326 C   0  0  0  0  0  0  0  0  0  0  0  0
   20.2517   -1.0419   14.8017 C   0  0  0  0  0  0  0  0  0  0  0  0
   19.5525   -1.6846   13.7805 C   0  0  0  0  0  0  0  0  0  0  0  0
   20.0243   -1.4431   12.1446 Cl  0  0  0  0  0  0  0  0  0  0  0  0
   18.4807   -2.5267   14.0767 C   0  0  0  0  0  0  0  0  0  0  0  0
   18.0953   -2.7206   15.4059 C   0  0  0  0  0  0  0  0  0  0  0  0
   18.5203    0.3026   18.9101 C   0  0  0  0  0  0  0  0  0  0  0  0
   18.0433    1.0208   20.1633 C   0  0  0  0  0  0  0  0  0  0  0  0
   17.6226   -0.1279   21.0563 C   0  0  0  0  0  0  0  0  0  0  0  0
   16.8854   -1.0705   20.1111 C   0  0  0  0  0  0  0  0  0  0  0  0
  1  2  3  0
  2  3  1  0
  3  4  2  0
  4  5  1  0
  4  6  1  0
  6  7  2  0
  7  8  1  0
  8  9  2  0
  9 10  1  0
 10 11  1  0
 11 12  2  0
 11 13  1  0
 13 14  1  0
 14 15  2  0
 14 16  2  0
 14 17  1  0
 17 18  2  0
 18 19  1  0
 19 20  2  0
 20 21  1  0
 20 22  1  0
 22 23  2  0
 13 24  1  0
 24 25  1  0
 25 26  1  0
 26 27  1  0
  9  3  1  0
 27 13  1  0
 23 17  1  0
M  END
>  <ref_mols>  (1224) 
B1396a

>  <gnina_score>  (1224) 
5.432

>  <smina_score_min>  (1224) 
-3.881

>  <ref_pdb>  (1224) 
B1396a

>  <inspiration_score>  (1224) 
None

>  <inchikey>  (1224) 
PVSPQRVFWZAPGX-UHFFFAOYSA-N

>  <tags>  (1224) 
BulkDock Fragalysis export,openbind_d68ev3c_c2_elabs_scored,openbind_d68ev3c_c2_elabs_scored_4.5plus,openbind_d68ev3c_c2_elabs,openbind_d68ev3c_c2_elabs_scored_5plus,syndirella_product,openbind_d68ev3c_c2_elabs_scored_top80percent,syndirella_placed

>  <smiles>  (1224) 
N#Cc1c(F)cccc1NC(=O)C1(S(=O)(=O)c2ccc(Cl)cc2)CCCC1

>  <subsites>  (1224) 
None

>  <rmsd(smina/fragmenstein)>  (1224) 
2.241

>  <alias>  (1224) 
None

>  <energy_score>  (1224) 
-34.567029

>  <HIPPO Pose ID>  (1224) 
95736

>  <distance_score>  (1224) 
0.504974

>  <HIPPO Compound ID>  (1224) 
129672

>  <gnina_score_min>  (1224) 
5.259

>  <name>  (1224) 
P95736

>  <exports>  (1224) 
['/opt/xchem-fragalysis-2/maxwin/BulkDock/OUTPUTS/openbind_d68ev3c_c2_elabs_1LOTQJ3.sdf', '/opt/xchem-fragalysis-2/maxwin/BulkDock/OUTPUTS/openbind_d68ev3c_c2_elabs_1LSYI5W.sdf']

$$$$
P95737
     RDKit          3D

 27 29  0  0  0  0  0  0  0  0999 V2000
   13.7016    1.7978   17.0833 C   0  0  0  0  0  0  0  0  0  0  0  0
   14.0927    1.0010   15.5097 S   0  0  0  0  0  0  0  0  0  0  0  0
   13.4717   -0.6452   15.8276 C   0  0  0  0  0  0  0  0  0  0  0  0
   12.2819   -0.8995   15.1072 C   0  0  0  0  0  0  0  0  0  0  0  0
   11.6045   -2.1063   15.2075 C   0  0  0  0  0  0  0  0  0  0  0  0
   12.1069   -3.0898   16.0393 C   0  0  0  0  0  0  0  0  0  0  0  0
   13.2883   -2.8819   16.7733 C   0  0  0  0  0  0  0  0  0  0  0  0
   13.7584   -4.0315   17.6378 C   0  0  0  0  0  0  0  0  0  0  0  0
   14.0048   -1.6509   16.6688 C   0  0  0  0  0  0  0  0  0  0  0  0
   15.1865   -1.6013   17.4511 N   0  0  0  0  0  0  0  0  0  0  0  0
   16.3592   -0.5630   17.4569 C   0  0  0  0  0  0  0  0  0  0  0  0
   16.5586    0.3601   16.7635 O   0  0  0  0  0  0  0  0  0  0  0  0
   17.3239   -0.9099   18.6012 C   0  0  0  0  0  0  0  0  0  0  0  0
   18.2371   -2.3747   18.1233 S   0  0  0  0  0  0  0  0  0  0  0  0
   17.3022   -3.4891   18.1428 O   0  0  0  0  0  0  0  0  0  0  0  0
   19.4562   -2.4589   18.9061 O   0  0  0  0  0  0  0  0  0  0  0  0
   18.7397   -2.1451   16.4276 C   0  0  0  0  0  0  0  0  0  0  0  0
   17.9858   -2.7100   15.3919 C   0  0  0  0  0  0  0  0  0  0  0  0
   18.3990   -2.5362   14.0678 C   0  0  0  0  0  0  0  0  0  0  0  0
   19.5644   -1.8214   13.7904 C   0  0  0  0  0  0  0  0  0  0  0  0
   20.0708   -1.6076   12.1608 Cl  0  0  0  0  0  0  0  0  0  0  0  0
   20.3287   -1.2846   14.8253 C   0  0  0  0  0  0  0  0  0  0  0  0
   19.9236   -1.4547   16.1504 C   0  0  0  0  0  0  0  0  0  0  0  0
   16.6027   -1.0851   19.9486 C   0  0  0  0  0  0  0  0  0  0  0  0
   17.6526   -0.8057   21.0152 C   0  0  0  0  0  0  0  0  0  0  0  0
   18.6383    0.1680   20.3867 C   0  0  0  0  0  0  0  0  0  0  0  0
   18.2531    0.2822   18.9132 C   0  0  0  0  0  0  0  0  0  0  0  0
  1  2  1  0
  2  3  1  0
  3  4  2  0
  4  5  1  0
  5  6  2  0
  6  7  1  0
  7  8  1  0
  7  9  2  0
  9 10  1  0
 10 11  1  0
 11 12  2  0
 11 13  1  0
 13 14  1  0
 14 15  2  0
 14 16  2  0
 14 17  1  0
 17 18  2  0
 18 19  1  0
 19 20  2  0
 20 21  1  0
 20 22  1  0
 22 23  2  0
 13 24  1  0
 24 25  1  0
 25 26  1  0
 26 27  1  0
  9  3  1  0
 27 13  1  0
 23 17  1  0
M  END
>  <ref_mols>  (1225) 
B1396a

>  <gnina_score>  (1225) 
5.266

>  <smina_score_min>  (1225) 
-3.436

>  <ref_pdb>  (1225) 
B1396a

>  <inspiration_score>  (1225) 
None

>  <inchikey>  (1225) 
NJJCHZQKKVEGMX-UHFFFAOYSA-N

>  <tags>  (1225) 
BulkDock Fragalysis export,openbind_d68ev3c_c2_elabs_scored,openbind_d68ev3c_c2_elabs_scored_4.5plus,openbind_d68ev3c_c2_elabs,openbind_d68ev3c_c2_elabs_scored_5plus,syndirella_product,openbind_d68ev3c_c2_elabs_scored_top80percent,syndirella_placed

>  <smiles>  (1225) 
CSc1cccc(C)c1NC(=O)C1(S(=O)(=O)c2ccc(Cl)cc2)CCCC1

>  <subsites>  (1225) 
None

>  <rmsd(smina/fragmenstein)>  (1225) 
1.998

>  <alias>  (1225) 
None

>  <energy_score>  (1225) 
-35.429061

>  <HIPPO Pose ID>  (1225) 
95737

>  <distance_score>  (1225) 
0.414651

>  <HIPPO Compound ID>  (1225) 
129673

>  <gnina_score_min>  (1225) 
5.059

>  <name>  (1225) 
P95737

>  <exports>  (1225) 
['/opt/xchem-fragalysis-2/maxwin/BulkDock/OUTPUTS/openbind_d68ev3c_c2_elabs_1LOTQJ3.sdf', '/opt/xchem-fragalysis-2/maxwin/BulkDock/OUTPUTS/openbind_d68ev3c_c2_elabs_1LSYI5W.sdf']

$$$$
P95738
     RDKit          3D

 27 29  0  0  0  0  0  0  0  0999 V2000
   13.9627   -4.1693   17.7116 C   0  0  0  0  0  0  0  0  0  0  0  0
   13.4054   -2.9974   16.9436 C   0  0  0  0  0  0  0  0  0  0  0  0
   12.2446   -3.2163   16.1852 C   0  0  0  0  0  0  0  0  0  0  0  0
   11.6811   -2.1914   15.4474 C   0  0  0  0  0  0  0  0  0  0  0  0
   10.5592   -2.4229   14.7587 F   0  0  0  0  0  0  0  0  0  0  0  0
   12.2280   -0.9237   15.4685 C   0  0  0  0  0  0  0  0  0  0  0  0
   13.3746   -0.6731   16.2334 C   0  0  0  0  0  0  0  0  0  0  0  0
   13.7776    0.9995   16.3812 Cl  0  0  0  0  0  0  0  0  0  0  0  0
   14.0098   -1.7143   16.9485 C   0  0  0  0  0  0  0  0  0  0  0  0
   15.1848   -1.5706   17.7150 N   0  0  0  0  0  0  0  0  0  0  0  0
   16.3650   -0.5474   17.5853 C   0  0  0  0  0  0  0  0  0  0  0  0
   16.4962    0.3733   16.8719 O   0  0  0  0  0  0  0  0  0  0  0  0
   17.4228   -0.8627   18.6625 C   0  0  0  0  0  0  0  0  0  0  0  0
   18.2770   -2.3586   18.1457 S   0  0  0  0  0  0  0  0  0  0  0  0
   19.5115   -2.4806   18.8987 O   0  0  0  0  0  0  0  0  0  0  0  0
   17.3111   -3.4454   18.1878 O   0  0  0  0  0  0  0  0  0  0  0  0
   18.7376   -2.1372   16.4367 C   0  0  0  0  0  0  0  0  0  0  0  0
   17.9159   -2.6386   15.4203 C   0  0  0  0  0  0  0  0  0  0  0  0
   18.2971   -2.4756   14.0850 C   0  0  0  0  0  0  0  0  0  0  0  0
   19.4985   -1.8369   13.7764 C   0  0  0  0  0  0  0  0  0  0  0  0
   19.9626   -1.6340   12.1332 Cl  0  0  0  0  0  0  0  0  0  0  0  0
   20.3306   -1.3674   14.7909 C   0  0  0  0  0  0  0  0  0  0  0  0
   19.9576   -1.5278   16.1266 C   0  0  0  0  0  0  0  0  0  0  0  0
   18.4164    0.3175   18.8305 C   0  0  0  0  0  0  0  0  0  0  0  0
   18.7564    0.3565   20.3124 C   0  0  0  0  0  0  0  0  0  0  0  0
   17.4264    0.0508   20.9635 C   0  0  0  0  0  0  0  0  0  0  0  0
   16.8144   -1.0348   20.0826 C   0  0  0  0  0  0  0  0  0  0  0  0
  1  2  1  0
  2  3  2  0
  3  4  1  0
  4  5  1  0
  4  6  2  0
  6  7  1  0
  7  8  1  0
  7  9  2  0
  9 10  1  0
 10 11  1  0
 11 12  2  0
 11 13  1  0
 13 14  1  0
 14 15  2  0
 14 16  2  0
 14 17  1  0
 17 18  2  0
 18 19  1  0
 19 20  2  0
 20 21  1  0
 20 22  1  0
 22 23  2  0
 13 24  1  0
 24 25  1  0
 25 26  1  0
 26 27  1  0
  9  2  1  0
 27 13  1  0
 23 17  1  0
M  END
>  <ref_mols>  (1226) 
B1396a

>  <gnina_score>  (1226) 
5.514

>  <smina_score_min>  (1226) 
-3.872

>  <ref_pdb>  (1226) 
B1396a

>  <inspiration_score>  (1226) 
None

>  <inchikey>  (1226) 
IANFWLNYGGMNRG-UHFFFAOYSA-N

>  <tags>  (1226) 
BulkDock Fragalysis export,openbind_d68ev3c_c2_elabs_scored,openbind_d68ev3c_c2_elabs_scored_4.5plus,openbind_d68ev3c_c2_elabs,openbind_d68ev3c_c2_elabs_scored_5plus,syndirella_product,openbind_d68ev3c_c2_elabs_scored_top80percent,syndirella_placed

>  <smiles>  (1226) 
Cc1cc(F)cc(Cl)c1NC(=O)C1(S(=O)(=O)c2ccc(Cl)cc2)CCCC1

>  <subsites>  (1226) 
None

>  <rmsd(smina/fragmenstein)>  (1226) 
1.639

>  <alias>  (1226) 
None

>  <energy_score>  (1226) 
-25.363779

>  <HIPPO Pose ID>  (1226) 
95738

>  <distance_score>  (1226) 
0.42129

>  <HIPPO Compound ID>  (1226) 
129674

>  <gnina_score_min>  (1226) 
5.349

>  <name>  (1226) 
P95738

>  <exports>  (1226) 
['/opt/xchem-fragalysis-2/maxwin/BulkDock/OUTPUTS/openbind_d68ev3c_c2_elabs_1LOTQJ3.sdf', '/opt/xchem-fragalysis-2/maxwin/BulkDock/OUTPUTS/openbind_d68ev3c_c2_elabs_1LSYI5W.sdf']

$$$$
P95739
     RDKit          3D

 27 29  0  0  0  0  0  0  0  0999 V2000
   13.7837   -4.1050   17.6275 C   0  0  0  0  0  0  0  0  0  0  0  0
   13.4870   -2.8394   16.8615 C   0  0  0  0  0  0  0  0  0  0  0  0
   12.2169   -2.7140   16.2699 C   0  0  0  0  0  0  0  0  0  0  0  0
   11.8465   -1.5250   15.6536 C   0  0  0  0  0  0  0  0  0  0  0  0
   10.0558   -1.1847   15.1846 Br  0  0  0  0  0  0  0  0  0  0  0  0
   12.7811   -0.5260   15.4505 C   0  0  0  0  0  0  0  0  0  0  0  0
   14.0664   -0.6573   15.9800 C   0  0  0  0  0  0  0  0  0  0  0  0
   15.2025    0.5138   15.4142 Cl  0  0  0  0  0  0  0  0  0  0  0  0
   14.3971   -1.7558   16.7967 C   0  0  0  0  0  0  0  0  0  0  0  0
   15.5304   -1.8291   17.6299 N   0  0  0  0  0  0  0  0  0  0  0  0
   16.5330   -0.7140   18.0829 C   0  0  0  0  0  0  0  0  0  0  0  0
   16.5189    0.4428   17.8919 O   0  0  0  0  0  0  0  0  0  0  0  0
   17.6129   -1.3260   18.9951 C   0  0  0  0  0  0  0  0  0  0  0  0
   18.4314   -2.6653   18.1636 S   0  0  0  0  0  0  0  0  0  0  0  0
   19.7176   -2.8966   18.7918 O   0  0  0  0  0  0  0  0  0  0  0  0
   17.4628   -3.7504   18.0903 O   0  0  0  0  0  0  0  0  0  0  0  0
   18.7719   -2.1636   16.4915 C   0  0  0  0  0  0  0  0  0  0  0  0
   18.1117   -2.7951   15.4290 C   0  0  0  0  0  0  0  0  0  0  0  0
   18.4333   -2.4508   14.1139 C   0  0  0  0  0  0  0  0  0  0  0  0
   19.4133   -1.4892   13.8700 C   0  0  0  0  0  0  0  0  0  0  0  0
   19.8105   -1.0632   12.2521 Cl  0  0  0  0  0  0  0  0  0  0  0  0
   20.0805   -0.8729   14.9291 C   0  0  0  0  0  0  0  0  0  0  0  0
   19.7678   -1.2152   16.2468 C   0  0  0  0  0  0  0  0  0  0  0  0
   18.6060   -0.2520   19.4881 C   0  0  0  0  0  0  0  0  0  0  0  0
   17.9341    0.4211   20.6867 C   0  0  0  0  0  0  0  0  0  0  0  0
   16.8241   -0.5194   21.1423 C   0  0  0  0  0  0  0  0  0  0  0  0
   17.0001   -1.7946   20.3269 C   0  0  0  0  0  0  0  0  0  0  0  0
  1  2  1  0
  2  3  2  0
  3  4  1  0
  4  5  1  0
  4  6  2  0
  6  7  1  0
  7  8  1  0
  7  9  2  0
  9 10  1  0
 10 11  1  0
 11 12  2  0
 11 13  1  0
 13 14  1  0
 14 15  2  0
 14 16  2  0
 14 17  1  0
 17 18  2  0
 18 19  1  0
 19 20  2  0
 20 21  1  0
 20 22  1  0
 22 23  2  0
 13 24  1  0
 24 25  1  0
 25 26  1  0
 26 27  1  0
  9  2  1  0
 27 13  1  0
 23 17  1  0
M  END
>  <ref_mols>  (1227) 
B1396a

>  <gnina_score>  (1227) 
5.77

>  <smina_score_min>  (1227) 
-2.638

>  <ref_pdb>  (1227) 
B1396a

>  <inspiration_score>  (1227) 
None

>  <inchikey>  (1227) 
SABSDCYSQPYJDK-UHFFFAOYSA-N

>  <tags>  (1227) 
BulkDock Fragalysis export,openbind_d68ev3c_c2_elabs_scored,openbind_d68ev3c_c2_elabs_scored_4.5plus,openbind_d68ev3c_c2_elabs,openbind_d68ev3c_c2_elabs_scored_5plus,syndirella_product,openbind_d68ev3c_c2_elabs_scored_top80percent,syndirella_placed

>  <smiles>  (1227) 
Cc1cc(Br)cc(Cl)c1NC(=O)C1(S(=O)(=O)c2ccc(Cl)cc2)CCCC1

>  <subsites>  (1227) 
None

>  <rmsd(smina/fragmenstein)>  (1227) 
1.492

>  <alias>  (1227) 
None

>  <energy_score>  (1227) 
-19.853795

>  <HIPPO Pose ID>  (1227) 
95739

>  <distance_score>  (1227) 
0.703177

>  <HIPPO Compound ID>  (1227) 
129675

>  <gnina_score_min>  (1227) 
5.514

>  <name>  (1227) 
P95739

>  <exports>  (1227) 
['/opt/xchem-fragalysis-2/maxwin/BulkDock/OUTPUTS/openbind_d68ev3c_c2_elabs_1LOTQJ3.sdf', '/opt/xchem-fragalysis-2/maxwin/BulkDock/OUTPUTS/openbind_d68ev3c_c2_elabs_1LSYI5W.sdf']

$$$$
P95741
     RDKit          3D

 27 29  0  0  0  0  0  0  0  0999 V2000
   10.4295   -1.6312   14.9591 C   0  0  0  0  0  0  0  0  0  0  0  0
   11.7654   -1.6871   15.6246 C   0  0  0  0  0  0  0  0  0  0  0  0
   12.2389   -2.8587   16.2241 C   0  0  0  0  0  0  0  0  0  0  0  0
   13.4587   -2.8746   16.9283 C   0  0  0  0  0  0  0  0  0  0  0  0
   13.8827   -4.1560   17.5972 C   0  0  0  0  0  0  0  0  0  0  0  0
   14.2272   -1.6938   17.0047 C   0  0  0  0  0  0  0  0  0  0  0  0
   15.4402   -1.7141   17.7064 N   0  0  0  0  0  0  0  0  0  0  0  0
   16.5556   -0.6235   17.8391 C   0  0  0  0  0  0  0  0  0  0  0  0
   16.6607    0.4218   17.3192 O   0  0  0  0  0  0  0  0  0  0  0  0
   17.6045   -1.0940   18.8635 C   0  0  0  0  0  0  0  0  0  0  0  0
   18.4166   -2.5362   18.2077 S   0  0  0  0  0  0  0  0  0  0  0  0
   17.4324   -3.6084   18.2036 O   0  0  0  0  0  0  0  0  0  0  0  0
   19.6754   -2.7286   18.9027 O   0  0  0  0  0  0  0  0  0  0  0  0
   18.8227   -2.1862   16.5092 C   0  0  0  0  0  0  0  0  0  0  0  0
   18.0923   -2.7864   15.4763 C   0  0  0  0  0  0  0  0  0  0  0  0
   18.4444   -2.5321   14.1477 C   0  0  0  0  0  0  0  0  0  0  0  0
   19.5232   -1.6949   13.8624 C   0  0  0  0  0  0  0  0  0  0  0  0
   19.9550   -1.3822   12.2273 Cl  0  0  0  0  0  0  0  0  0  0  0  0
   20.2604   -1.1134   14.8935 C   0  0  0  0  0  0  0  0  0  0  0  0
   19.9174   -1.3653   16.2235 C   0  0  0  0  0  0  0  0  0  0  0  0
   16.9989   -1.3611   20.2503 C   0  0  0  0  0  0  0  0  0  0  0  0
   16.8264    0.0213   20.8706 C   0  0  0  0  0  0  0  0  0  0  0  0
   17.9014    0.9006   20.2401 C   0  0  0  0  0  0  0  0  0  0  0  0
   18.6049    0.0317   19.1978 C   0  0  0  0  0  0  0  0  0  0  0  0
   13.7377   -0.5331   16.3940 C   0  0  0  0  0  0  0  0  0  0  0  0
   14.3802    0.6366   16.4812 F   0  0  0  0  0  0  0  0  0  0  0  0
   12.5237   -0.5245   15.7190 C   0  0  0  0  0  0  0  0  0  0  0  0
  1  2  1  0
  2  3  2  0
  3  4  1  0
  4  5  1  0
  4  6  2  0
  6  7  1  0
  7  8  1  0
  8  9  2  0
  8 10  1  0
 10 11  1  0
 11 12  2  0
 11 13  2  0
 11 14  1  0
 14 15  2  0
 15 16  1  0
 16 17  2  0
 17 18  1  0
 17 19  1  0
 19 20  2  0
 10 21  1  0
 21 22  1  0
 22 23  1  0
 23 24  1  0
  6 25  1  0
 25 26  1  0
 25 27  2  0
 27  2  1  0
 24 10  1  0
 20 14  1  0
M  END
>  <ref_mols>  (1228) 
B1396a

>  <gnina_score>  (1228) 
5.464

>  <smina_score_min>  (1228) 
-3.51

>  <ref_pdb>  (1228) 
B1396a

>  <inspiration_score>  (1228) 
None

>  <inchikey>  (1228) 
PJNTZJFRTGVYAW-UHFFFAOYSA-N

>  <tags>  (1228) 
BulkDock Fragalysis export,openbind_d68ev3c_c2_elabs_scored,openbind_d68ev3c_c2_elabs_scored_4.5plus,openbind_d68ev3c_c2_elabs,openbind_d68ev3c_c2_elabs_scored_5plus,syndirella_product,openbind_d68ev3c_c2_elabs_scored_top80percent,syndirella_placed

>  <smiles>  (1228) 
Cc1cc(C)c(NC(=O)C2(S(=O)(=O)c3ccc(Cl)cc3)CCCC2)c(F)c1

>  <subsites>  (1228) 
None

>  <rmsd(smina/fragmenstein)>  (1228) 
1.894

>  <alias>  (1228) 
None

>  <energy_score>  (1228) 
-49.119047

>  <HIPPO Pose ID>  (1228) 
95741

>  <distance_score>  (1228) 
0.561446

>  <HIPPO Compound ID>  (1228) 
129677

>  <gnina_score_min>  (1228) 
5.255

>  <name>  (1228) 
P95741

>  <exports>  (1228) 
['/opt/xchem-fragalysis-2/maxwin/BulkDock/OUTPUTS/openbind_d68ev3c_c2_elabs_1LOTQJ3.sdf', '/opt/xchem-fragalysis-2/maxwin/BulkDock/OUTPUTS/openbind_d68ev3c_c2_elabs_1LSYI5W.sdf']

$$$$
P95742
     RDKit          3D

 27 29  0  0  0  0  0  0  0  0999 V2000
   13.8094   -4.0073   17.5636 C   0  0  0  0  0  0  0  0  0  0  0  0
   13.3393   -2.7818   16.8226 C   0  0  0  0  0  0  0  0  0  0  0  0
   12.2189   -2.9003   15.9873 C   0  0  0  0  0  0  0  0  0  0  0  0
   11.6040   -4.0782   15.8663 F   0  0  0  0  0  0  0  0  0  0  0  0
   11.7058   -1.8299   15.2731 C   0  0  0  0  0  0  0  0  0  0  0  0
   12.3024   -0.5870   15.4129 C   0  0  0  0  0  0  0  0  0  0  0  0
   13.4255   -0.4265   16.2402 C   0  0  0  0  0  0  0  0  0  0  0  0
   13.8883    1.2159   16.5113 Cl  0  0  0  0  0  0  0  0  0  0  0  0
   13.9912   -1.5304   16.9172 C   0  0  0  0  0  0  0  0  0  0  0  0
   15.1537   -1.4696   17.7129 N   0  0  0  0  0  0  0  0  0  0  0  0
   16.3926   -0.5139   17.6316 C   0  0  0  0  0  0  0  0  0  0  0  0
   16.5931    0.4117   16.9409 O   0  0  0  0  0  0  0  0  0  0  0  0
   17.4043   -0.9108   18.7193 C   0  0  0  0  0  0  0  0  0  0  0  0
   18.2439   -2.3916   18.1672 S   0  0  0  0  0  0  0  0  0  0  0  0
   19.4817   -2.5471   18.9082 O   0  0  0  0  0  0  0  0  0  0  0  0
   17.2667   -3.4690   18.1802 O   0  0  0  0  0  0  0  0  0  0  0  0
   18.7072   -2.1343   16.4636 C   0  0  0  0  0  0  0  0  0  0  0  0
   19.9089   -1.4821   16.1699 C   0  0  0  0  0  0  0  0  0  0  0  0
   20.2895   -1.3015   14.8388 C   0  0  0  0  0  0  0  0  0  0  0  0
   19.4830   -1.7916   13.8131 C   0  0  0  0  0  0  0  0  0  0  0  0
   19.9572   -1.5649   12.1758 Cl  0  0  0  0  0  0  0  0  0  0  0  0
   18.2992   -2.4696   14.1056 C   0  0  0  0  0  0  0  0  0  0  0  0
   17.9103   -2.6528   15.4359 C   0  0  0  0  0  0  0  0  0  0  0  0
   16.7561   -1.0895   20.1030 C   0  0  0  0  0  0  0  0  0  0  0  0
   17.8694   -0.8539   21.1153 C   0  0  0  0  0  0  0  0  0  0  0  0
   18.8551    0.0901   20.4431 C   0  0  0  0  0  0  0  0  0  0  0  0
   18.3844    0.2484   18.9993 C   0  0  0  0  0  0  0  0  0  0  0  0
  1  2  1  0
  2  3  2  0
  3  4  1  0
  3  5  1  0
  5  6  2  0
  6  7  1  0
  7  8  1  0
  7  9  2  0
  9 10  1  0
 10 11  1  0
 11 12  2  0
 11 13  1  0
 13 14  1  0
 14 15  2  0
 14 16  2  0
 14 17  1  0
 17 18  2  0
 18 19  1  0
 19 20  2  0
 20 21  1  0
 20 22  1  0
 22 23  2  0
 13 24  1  0
 24 25  1  0
 25 26  1  0
 26 27  1  0
  9  2  1  0
 27 13  1  0
 23 17  1  0
M  END
>  <ref_mols>  (1229) 
B1396a

>  <gnina_score>  (1229) 
5.476

>  <smina_score_min>  (1229) 
-3.923

>  <ref_pdb>  (1229) 
B1396a

>  <inspiration_score>  (1229) 
None

>  <inchikey>  (1229) 
YKVXCXFGJQTCGZ-UHFFFAOYSA-N

>  <tags>  (1229) 
BulkDock Fragalysis export,openbind_d68ev3c_c2_elabs_scored,openbind_d68ev3c_c2_elabs_scored_4.5plus,openbind_d68ev3c_c2_elabs,openbind_d68ev3c_c2_elabs_scored_5plus,syndirella_product,openbind_d68ev3c_c2_elabs_scored_top80percent,syndirella_placed

>  <smiles>  (1229) 
Cc1c(F)ccc(Cl)c1NC(=O)C1(S(=O)(=O)c2ccc(Cl)cc2)CCCC1

>  <subsites>  (1229) 
None

>  <rmsd(smina/fragmenstein)>  (1229) 
1.866

>  <alias>  (1229) 
None

>  <energy_score>  (1229) 
-24.030954

>  <HIPPO Pose ID>  (1229) 
95742

>  <distance_score>  (1229) 
0.477601

>  <HIPPO Compound ID>  (1229) 
129678

>  <gnina_score_min>  (1229) 
5.504

>  <name>  (1229) 
P95742

>  <exports>  (1229) 
['/opt/xchem-fragalysis-2/maxwin/BulkDock/OUTPUTS/openbind_d68ev3c_c2_elabs_1LOTQJ3.sdf', '/opt/xchem-fragalysis-2/maxwin/BulkDock/OUTPUTS/openbind_d68ev3c_c2_elabs_1LSYI5W.sdf']

$$$$
P95745
     RDKit          3D

 27 29  0  0  0  0  0  0  0  0999 V2000
   16.2738    0.4960   17.0561 O   0  0  0  0  0  0  0  0  0  0  0  0
   16.2458   -0.5477   17.5888 C   0  0  0  0  0  0  0  0  0  0  0  0
   15.2234   -1.7220   17.4600 N   0  0  0  0  0  0  0  0  0  0  0  0
   14.0231   -1.8063   16.7480 C   0  0  0  0  0  0  0  0  0  0  0  0
   13.5565   -0.7165   16.0061 C   0  0  0  0  0  0  0  0  0  0  0  0
   12.3668   -0.8175   15.2826 C   0  0  0  0  0  0  0  0  0  0  0  0
   11.7415    0.6617   14.2839 Br  0  0  0  0  0  0  0  0  0  0  0  0
   11.6347   -1.9986   15.2821 C   0  0  0  0  0  0  0  0  0  0  0  0
   12.0922   -3.0839   16.0271 C   0  0  0  0  0  0  0  0  0  0  0  0
   13.2798   -3.0024   16.7767 C   0  0  0  0  0  0  0  0  0  0  0  0
   13.7074   -4.1982   17.5886 C   0  0  0  0  0  0  0  0  0  0  0  0
   15.0110   -4.5752   17.1782 O   0  0  0  0  0  0  0  0  0  0  0  0
   17.2812   -0.8892   18.6880 C   0  0  0  0  0  0  0  0  0  0  0  0
   18.2485   -2.3079   18.2001 S   0  0  0  0  0  0  0  0  0  0  0  0
   17.3751   -3.4673   18.2723 O   0  0  0  0  0  0  0  0  0  0  0  0
   19.4893   -2.3238   18.9542 O   0  0  0  0  0  0  0  0  0  0  0  0
   18.6983   -2.0659   16.4962 C   0  0  0  0  0  0  0  0  0  0  0  0
   18.0359   -2.7698   15.4845 C   0  0  0  0  0  0  0  0  0  0  0  0
   18.4332   -2.5934   14.1555 C   0  0  0  0  0  0  0  0  0  0  0  0
   19.4888   -1.7333   13.8506 C   0  0  0  0  0  0  0  0  0  0  0  0
   19.9753   -1.5202   12.2150 Cl  0  0  0  0  0  0  0  0  0  0  0  0
   20.1591   -1.0487   14.8632 C   0  0  0  0  0  0  0  0  0  0  0  0
   19.7704   -1.2197   16.1929 C   0  0  0  0  0  0  0  0  0  0  0  0
   18.1763    0.3303   18.9993 C   0  0  0  0  0  0  0  0  0  0  0  0
   17.3568    1.2054   19.9484 C   0  0  0  0  0  0  0  0  0  0  0  0
   16.3033    0.2923   20.5673 C   0  0  0  0  0  0  0  0  0  0  0  0
   16.6144   -1.1102   20.0563 C   0  0  0  0  0  0  0  0  0  0  0  0
  1  2  2  0
  2  3  1  0
  3  4  1  0
  4  5  2  0
  5  6  1  0
  6  7  1  0
  6  8  2  0
  8  9  1  0
  9 10  2  0
 10 11  1  0
 11 12  1  0
  2 13  1  0
 13 14  1  0
 14 15  2  0
 14 16  2  0
 14 17  1  0
 17 18  2  0
 18 19  1  0
 19 20  2  0
 20 21  1  0
 20 22  1  0
 22 23  2  0
 13 24  1  0
 24 25  1  0
 25 26  1  0
 26 27  1  0
 10  4  1  0
 27 13  1  0
 23 17  1  0
M  END
>  <ref_mols>  (1230) 
B1396a

>  <gnina_score>  (1230) 
5.114

>  <smina_score_min>  (1230) 
-3.572

>  <ref_pdb>  (1230) 
B1396a

>  <inspiration_score>  (1230) 
None

>  <inchikey>  (1230) 
VZJJWWGHLGYCIP-UHFFFAOYSA-N

>  <tags>  (1230) 
BulkDock Fragalysis export,openbind_d68ev3c_c2_elabs_scored,openbind_d68ev3c_c2_elabs_scored_4.5plus,openbind_d68ev3c_c2_elabs,openbind_d68ev3c_c2_elabs_scored_5plus,syndirella_product,openbind_d68ev3c_c2_elabs_scored_top80percent,syndirella_placed

>  <smiles>  (1230) 
O=C(Nc1cc(Br)ccc1CO)C1(S(=O)(=O)c2ccc(Cl)cc2)CCCC1

>  <subsites>  (1230) 
None

>  <rmsd(smina/fragmenstein)>  (1230) 
1.963

>  <alias>  (1230) 
None

>  <energy_score>  (1230) 
-22.547861

>  <HIPPO Pose ID>  (1230) 
95745

>  <distance_score>  (1230) 
0.408692

>  <HIPPO Compound ID>  (1230) 
129681

>  <gnina_score_min>  (1230) 
5.027

>  <name>  (1230) 
P95745

>  <exports>  (1230) 
['/opt/xchem-fragalysis-2/maxwin/BulkDock/OUTPUTS/openbind_d68ev3c_c2_elabs_1LOTQJ3.sdf', '/opt/xchem-fragalysis-2/maxwin/BulkDock/OUTPUTS/openbind_d68ev3c_c2_elabs_1LSYI5W.sdf']

$$$$
P95746
     RDKit          3D

 27 29  0  0  0  0  0  0  0  0999 V2000
   13.8132   -4.0803   17.5934 C   0  0  0  0  0  0  0  0  0  0  0  0
   13.2935   -2.8957   16.8141 C   0  0  0  0  0  0  0  0  0  0  0  0
   12.1582   -3.0996   16.0066 C   0  0  0  0  0  0  0  0  0  0  0  0
   11.6223   -2.0645   15.2548 C   0  0  0  0  0  0  0  0  0  0  0  0
   12.1909   -0.8046   15.3437 C   0  0  0  0  0  0  0  0  0  0  0  0
   11.5985    0.1934   14.6690 F   0  0  0  0  0  0  0  0  0  0  0  0
   13.3129   -0.5591   16.1499 C   0  0  0  0  0  0  0  0  0  0  0  0
   13.7323    1.2811   16.3973 Br  0  0  0  0  0  0  0  0  0  0  0  0
   13.9167   -1.6202   16.8567 C   0  0  0  0  0  0  0  0  0  0  0  0
   15.0811   -1.5102   17.6469 N   0  0  0  0  0  0  0  0  0  0  0  0
   16.3098   -0.5458   17.5189 C   0  0  0  0  0  0  0  0  0  0  0  0
   16.4989    0.3493   16.7858 O   0  0  0  0  0  0  0  0  0  0  0  0
   17.3312   -0.8741   18.6270 C   0  0  0  0  0  0  0  0  0  0  0  0
   18.1856   -2.3762   18.1275 S   0  0  0  0  0  0  0  0  0  0  0  0
   17.2120   -3.4564   18.1475 O   0  0  0  0  0  0  0  0  0  0  0  0
   19.4031   -2.5077   18.9067 O   0  0  0  0  0  0  0  0  0  0  0  0
   18.6861   -2.1572   16.4292 C   0  0  0  0  0  0  0  0  0  0  0  0
   17.8799   -2.6462   15.3946 C   0  0  0  0  0  0  0  0  0  0  0  0
   18.2901   -2.4834   14.0680 C   0  0  0  0  0  0  0  0  0  0  0  0
   19.5046   -1.8570   13.7861 C   0  0  0  0  0  0  0  0  0  0  0  0
   20.0049   -1.6547   12.1534 Cl  0  0  0  0  0  0  0  0  0  0  0  0
   20.3208   -1.3996   14.8190 C   0  0  0  0  0  0  0  0  0  0  0  0
   19.9189   -1.5601   16.1463 C   0  0  0  0  0  0  0  0  0  0  0  0
   16.6916   -1.0387   20.0339 C   0  0  0  0  0  0  0  0  0  0  0  0
   17.3114    0.0259   20.9354 C   0  0  0  0  0  0  0  0  0  0  0  0
   18.6529    0.3220   20.3041 C   0  0  0  0  0  0  0  0  0  0  0  0
   18.3319    0.2973   18.8179 C   0  0  0  0  0  0  0  0  0  0  0  0
  1  2  1  0
  2  3  2  0
  3  4  1  0
  4  5  2  0
  5  6  1  0
  5  7  1  0
  7  8  1  0
  7  9  2  0
  9 10  1  0
 10 11  1  0
 11 12  2  0
 11 13  1  0
 13 14  1  0
 14 15  2  0
 14 16  2  0
 14 17  1  0
 17 18  2  0
 18 19  1  0
 19 20  2  0
 20 21  1  0
 20 22  1  0
 22 23  2  0
 13 24  1  0
 24 25  1  0
 25 26  1  0
 26 27  1  0
  9  2  1  0
 27 13  1  0
 23 17  1  0
M  END
>  <ref_mols>  (1231) 
B1396a

>  <gnina_score>  (1231) 
5.428

>  <smina_score_min>  (1231) 
-4.124

>  <ref_pdb>  (1231) 
B1396a

>  <inspiration_score>  (1231) 
None

>  <inchikey>  (1231) 
YOKJGIKOOKAAHA-UHFFFAOYSA-N

>  <tags>  (1231) 
BulkDock Fragalysis export,openbind_d68ev3c_c2_elabs_scored,openbind_d68ev3c_c2_elabs_scored_4.5plus,openbind_d68ev3c_c2_elabs,openbind_d68ev3c_c2_elabs_scored_5plus,syndirella_product,openbind_d68ev3c_c2_elabs_scored_top80percent,syndirella_placed

>  <smiles>  (1231) 
Cc1ccc(F)c(Br)c1NC(=O)C1(S(=O)(=O)c2ccc(Cl)cc2)CCCC1

>  <subsites>  (1231) 
None

>  <rmsd(smina/fragmenstein)>  (1231) 
2.297

>  <alias>  (1231) 
None

>  <energy_score>  (1231) 
-32.961283

>  <HIPPO Pose ID>  (1231) 
95746

>  <distance_score>  (1231) 
0.411491

>  <HIPPO Compound ID>  (1231) 
129682

>  <gnina_score_min>  (1231) 
5.262

>  <name>  (1231) 
P95746

>  <exports>  (1231) 
['/opt/xchem-fragalysis-2/maxwin/BulkDock/OUTPUTS/openbind_d68ev3c_c2_elabs_1LOTQJ3.sdf', '/opt/xchem-fragalysis-2/maxwin/BulkDock/OUTPUTS/openbind_d68ev3c_c2_elabs_1LSYI5W.sdf']

$$$$
P95748
     RDKit          3D

 27 29  0  0  0  0  0  0  0  0999 V2000
   14.7937   -5.0769   17.5933 C   0  0  0  0  0  0  0  0  0  0  0  0
   13.8608   -4.0145   18.1399 C   0  0  0  0  0  0  0  0  0  0  0  0
   13.5985   -2.8595   17.1978 C   0  0  0  0  0  0  0  0  0  0  0  0
   12.3975   -2.8457   16.4662 C   0  0  0  0  0  0  0  0  0  0  0  0
   12.0292   -1.7079   15.7483 C   0  0  0  0  0  0  0  0  0  0  0  0
   10.2924   -1.5183   15.0658 Br  0  0  0  0  0  0  0  0  0  0  0  0
   12.8869   -0.6257   15.6366 C   0  0  0  0  0  0  0  0  0  0  0  0
   14.1042   -0.6522   16.3042 C   0  0  0  0  0  0  0  0  0  0  0  0
   14.4546   -1.7423   17.1073 C   0  0  0  0  0  0  0  0  0  0  0  0
   15.6233   -1.6752   17.8646 N   0  0  0  0  0  0  0  0  0  0  0  0
   16.7520   -0.5913   17.8967 C   0  0  0  0  0  0  0  0  0  0  0  0
   16.8277    0.4421   17.3485 O   0  0  0  0  0  0  0  0  0  0  0  0
   17.8269   -1.0359   18.8958 C   0  0  0  0  0  0  0  0  0  0  0  0
   18.6399   -2.4766   18.2216 S   0  0  0  0  0  0  0  0  0  0  0  0
   19.9369   -2.6299   18.8506 O   0  0  0  0  0  0  0  0  0  0  0  0
   17.6823   -3.5700   18.2840 O   0  0  0  0  0  0  0  0  0  0  0  0
   18.9474   -2.1531   16.4943 C   0  0  0  0  0  0  0  0  0  0  0  0
   18.1044   -2.6960   15.5166 C   0  0  0  0  0  0  0  0  0  0  0  0
   18.3757   -2.4617   14.1655 C   0  0  0  0  0  0  0  0  0  0  0  0
   19.4899   -1.7063   13.8007 C   0  0  0  0  0  0  0  0  0  0  0  0
   19.8194   -1.4146   12.1386 Cl  0  0  0  0  0  0  0  0  0  0  0  0
   20.3429   -1.1891   14.7743 C   0  0  0  0  0  0  0  0  0  0  0  0
   20.0796   -1.4209   16.1258 C   0  0  0  0  0  0  0  0  0  0  0  0
   18.8154    0.1066   19.2073 C   0  0  0  0  0  0  0  0  0  0  0  0
   19.3346   -0.1348   20.6240 C   0  0  0  0  0  0  0  0  0  0  0  0
   18.3890   -1.1405   21.2646 C   0  0  0  0  0  0  0  0  0  0  0  0
   17.2310   -1.3023   20.2896 C   0  0  0  0  0  0  0  0  0  0  0  0
  1  2  1  0
  2  3  1  0
  3  4  2  0
  4  5  1  0
  5  6  1  0
  5  7  2  0
  7  8  1  0
  8  9  2  0
  9 10  1  0
 10 11  1  0
 11 12  2  0
 11 13  1  0
 13 14  1  0
 14 15  2  0
 14 16  2  0
 14 17  1  0
 17 18  2  0
 18 19  1  0
 19 20  2  0
 20 21  1  0
 20 22  1  0
 22 23  2  0
 13 24  1  0
 24 25  1  0
 25 26  1  0
 26 27  1  0
  9  3  1  0
 27 13  1  0
 23 17  1  0
M  END
>  <ref_mols>  (1232) 
B1396a

>  <gnina_score>  (1232) 
5.595

>  <smina_score_min>  (1232) 
-3.15

>  <ref_pdb>  (1232) 
B1396a

>  <inspiration_score>  (1232) 
None

>  <inchikey>  (1232) 
BUSWUGBIPQUCKP-UHFFFAOYSA-N

>  <tags>  (1232) 
BulkDock Fragalysis export,openbind_d68ev3c_c2_elabs_scored,openbind_d68ev3c_c2_elabs_scored_4.5plus,openbind_d68ev3c_c2_elabs,openbind_d68ev3c_c2_elabs_scored_5plus,syndirella_product,openbind_d68ev3c_c2_elabs_scored_top80percent,syndirella_placed

>  <smiles>  (1232) 
CCc1cc(Br)ccc1NC(=O)C1(S(=O)(=O)c2ccc(Cl)cc2)CCCC1

>  <subsites>  (1232) 
None

>  <rmsd(smina/fragmenstein)>  (1232) 
2.763

>  <alias>  (1232) 
None

>  <energy_score>  (1232) 
-40.732571

>  <HIPPO Pose ID>  (1232) 
95748

>  <distance_score>  (1232) 
0.713846

>  <HIPPO Compound ID>  (1232) 
129684

>  <gnina_score_min>  (1232) 
5.261

>  <name>  (1232) 
P95748

>  <exports>  (1232) 
['/opt/xchem-fragalysis-2/maxwin/BulkDock/OUTPUTS/openbind_d68ev3c_c2_elabs_1LOTQJ3.sdf', '/opt/xchem-fragalysis-2/maxwin/BulkDock/OUTPUTS/openbind_d68ev3c_c2_elabs_1LSYI5W.sdf']

$$$$
P95750
     RDKit          3D

 27 29  0  0  0  0  0  0  0  0999 V2000
   10.7902   -2.1888   14.6436 C   0  0  0  0  0  0  0  0  0  0  0  0
   11.9408   -2.0258   15.5748 C   0  0  0  0  0  0  0  0  0  0  0  0
   12.4239   -3.1110   16.3072 C   0  0  0  0  0  0  0  0  0  0  0  0
   13.5721   -2.9943   17.1071 C   0  0  0  0  0  0  0  0  0  0  0  0
   14.0435   -4.2157   17.8487 C   0  0  0  0  0  0  0  0  0  0  0  0
   14.2546   -1.7614   17.1564 C   0  0  0  0  0  0  0  0  0  0  0  0
   15.4320   -1.6667   17.9104 N   0  0  0  0  0  0  0  0  0  0  0  0
   16.5328   -0.5543   17.9396 C   0  0  0  0  0  0  0  0  0  0  0  0
   16.5785    0.4826   17.3951 O   0  0  0  0  0  0  0  0  0  0  0  0
   17.6537   -0.9634   18.9287 C   0  0  0  0  0  0  0  0  0  0  0  0
   18.4399   -2.4460   18.2526 S   0  0  0  0  0  0  0  0  0  0  0  0
   19.7189   -2.6349   18.9124 O   0  0  0  0  0  0  0  0  0  0  0  0
   17.4562   -3.5179   18.3033 O   0  0  0  0  0  0  0  0  0  0  0  0
   18.7893   -2.1372   16.5340 C   0  0  0  0  0  0  0  0  0  0  0  0
   17.9465   -2.6553   15.5445 C   0  0  0  0  0  0  0  0  0  0  0  0
   18.2589   -2.4493   14.1996 C   0  0  0  0  0  0  0  0  0  0  0  0
   19.4129   -1.7489   13.8480 C   0  0  0  0  0  0  0  0  0  0  0  0
   20.2630   -1.2564   14.8375 C   0  0  0  0  0  0  0  0  0  0  0  0
   19.9599   -1.4586   16.1839 C   0  0  0  0  0  0  0  0  0  0  0  0
   17.1092   -1.2824   20.3444 C   0  0  0  0  0  0  0  0  0  0  0  0
   16.5804   -0.0485   21.0725 C   0  0  0  0  0  0  0  0  0  0  0  0
   17.6557    1.0216   21.1954 C   0  0  0  0  0  0  0  0  0  0  0  0
   18.2224    1.3970   19.8339 C   0  0  0  0  0  0  0  0  0  0  0  0
   18.7112    0.1724   19.0535 C   0  0  0  0  0  0  0  0  0  0  0  0
   13.7352   -0.6745   16.4412 C   0  0  0  0  0  0  0  0  0  0  0  0
   14.2891    0.5414   16.5045 F   0  0  0  0  0  0  0  0  0  0  0  0
   12.5987   -0.8027   15.6522 C   0  0  0  0  0  0  0  0  0  0  0  0
  1  2  1  0
  2  3  2  0
  3  4  1  0
  4  5  1  0
  4  6  2  0
  6  7  1  0
  7  8  1  0
  8  9  2  0
  8 10  1  0
 10 11  1  0
 11 12  2  0
 11 13  2  0
 11 14  1  0
 14 15  2  0
 15 16  1  0
 16 17  2  0
 17 18  1  0
 18 19  2  0
 10 20  1  0
 20 21  1  0
 21 22  1  0
 22 23  1  0
 23 24  1  0
  6 25  1  0
 25 26  1  0
 25 27  2  0
 27  2  1  0
 24 10  1  0
 19 14  1  0
M  END
>  <ref_mols>  (1233) 
B1396a

>  <gnina_score>  (1233) 
5.191

>  <smina_score_min>  (1233) 
-3.621

>  <ref_pdb>  (1233) 
B1396a

>  <inspiration_score>  (1233) 
None

>  <inchikey>  (1233) 
MROMVAHJHPDYJO-UHFFFAOYSA-N

>  <tags>  (1233) 
BulkDock Fragalysis export,openbind_d68ev3c_c2_elabs_scored,openbind_d68ev3c_c2_elabs_scored_4.5plus,openbind_d68ev3c_c2_elabs,openbind_d68ev3c_c2_elabs_scored_5plus,syndirella_product,openbind_d68ev3c_c2_elabs_scored_top80percent,syndirella_placed

>  <smiles>  (1233) 
Cc1cc(C)c(NC(=O)C2(S(=O)(=O)c3ccccc3)CCCCC2)c(F)c1

>  <subsites>  (1233) 
None

>  <rmsd(smina/fragmenstein)>  (1233) 
1.691

>  <alias>  (1233) 
None

>  <energy_score>  (1233) 
-50.090767

>  <HIPPO Pose ID>  (1233) 
95750

>  <distance_score>  (1233) 
0.600775

>  <HIPPO Compound ID>  (1233) 
129687

>  <gnina_score_min>  (1233) 
5.013

>  <name>  (1233) 
P95750

>  <exports>  (1233) 
['/opt/xchem-fragalysis-2/maxwin/BulkDock/OUTPUTS/openbind_d68ev3c_c2_elabs_1LOTQJ3.sdf', '/opt/xchem-fragalysis-2/maxwin/BulkDock/OUTPUTS/openbind_d68ev3c_c2_elabs_1LSYI5W.sdf']

$$$$
P95751
     RDKit          3D

 27 29  0  0  0  0  0  0  0  0999 V2000
   14.1679   -5.0192   18.2487 N   0  0  0  0  0  0  0  0  0  0  0  0
   13.7599   -4.1379   17.6172 C   0  0  0  0  0  0  0  0  0  0  0  0
   13.3091   -3.0262   16.8340 C   0  0  0  0  0  0  0  0  0  0  0  0
   12.1208   -3.1560   16.0999 C   0  0  0  0  0  0  0  0  0  0  0  0
   11.6454   -2.0996   15.3239 C   0  0  0  0  0  0  0  0  0  0  0  0
   12.3634   -0.9091   15.2841 C   0  0  0  0  0  0  0  0  0  0  0  0
   11.7156    0.5307   14.2440 Br  0  0  0  0  0  0  0  0  0  0  0  0
   13.5576   -0.7714   15.9971 C   0  0  0  0  0  0  0  0  0  0  0  0
   14.0452   -1.8311   16.7717 C   0  0  0  0  0  0  0  0  0  0  0  0
   15.2591   -1.7013   17.4614 N   0  0  0  0  0  0  0  0  0  0  0  0
   16.2851   -0.5206   17.4978 C   0  0  0  0  0  0  0  0  0  0  0  0
   16.3055    0.4856   16.8969 O   0  0  0  0  0  0  0  0  0  0  0  0
   17.3628   -0.8137   18.5819 C   0  0  0  0  0  0  0  0  0  0  0  0
   18.2694   -2.3003   18.0826 S   0  0  0  0  0  0  0  0  0  0  0  0
   19.4897   -2.3998   18.8615 O   0  0  0  0  0  0  0  0  0  0  0  0
   17.3242   -3.4052   18.0966 O   0  0  0  0  0  0  0  0  0  0  0  0
   18.7544   -2.0635   16.3869 C   0  0  0  0  0  0  0  0  0  0  0  0
   18.0475   -2.7082   15.3651 C   0  0  0  0  0  0  0  0  0  0  0  0
   18.4533   -2.5434   14.0406 C   0  0  0  0  0  0  0  0  0  0  0  0
   19.5643   -1.7539   13.7440 C   0  0  0  0  0  0  0  0  0  0  0  0
   20.2819   -1.1366   14.7685 C   0  0  0  0  0  0  0  0  0  0  0  0
   19.8865   -1.2988   16.0958 C   0  0  0  0  0  0  0  0  0  0  0  0
   18.3563    0.3862   18.6784 C   0  0  0  0  0  0  0  0  0  0  0  0
   17.8494    1.4766   19.6194 C   0  0  0  0  0  0  0  0  0  0  0  0
   17.7226    0.9672   21.0535 C   0  0  0  0  0  0  0  0  0  0  0  0
   17.4786   -0.5378   21.1363 C   0  0  0  0  0  0  0  0  0  0  0  0
   16.6601   -1.0445   19.9524 C   0  0  0  0  0  0  0  0  0  0  0  0
  1  2  3  0
  2  3  1  0
  3  4  2  0
  4  5  1  0
  5  6  2  0
  6  7  1  0
  6  8  1  0
  8  9  2  0
  9 10  1  0
 10 11  1  0
 11 12  2  0
 11 13  1  0
 13 14  1  0
 14 15  2  0
 14 16  2  0
 14 17  1  0
 17 18  2  0
 18 19  1  0
 19 20  2  0
 20 21  1  0
 21 22  2  0
 13 23  1  0
 23 24  1  0
 24 25  1  0
 25 26  1  0
 26 27  1  0
  9  3  1  0
 27 13  1  0
 22 17  1  0
M  END
>  <ref_mols>  (1234) 
B1396a

>  <gnina_score>  (1234) 
5.327

>  <smina_score_min>  (1234) 
-3.747

>  <ref_pdb>  (1234) 
B1396a

>  <inspiration_score>  (1234) 
None

>  <inchikey>  (1234) 
ZNWPBTYSXFYDIM-UHFFFAOYSA-N

>  <tags>  (1234) 
BulkDock Fragalysis export,openbind_d68ev3c_c2_elabs_scored,openbind_d68ev3c_c2_elabs_scored_4.5plus,openbind_d68ev3c_c2_elabs,openbind_d68ev3c_c2_elabs_scored_5plus,syndirella_product,openbind_d68ev3c_c2_elabs_scored_top80percent,syndirella_placed

>  <smiles>  (1234) 
N#Cc1ccc(Br)cc1NC(=O)C1(S(=O)(=O)c2ccccc2)CCCCC1

>  <subsites>  (1234) 
None

>  <rmsd(smina/fragmenstein)>  (1234) 
1.548

>  <alias>  (1234) 
None

>  <energy_score>  (1234) 
-43.999214

>  <HIPPO Pose ID>  (1234) 
95751

>  <distance_score>  (1234) 
0.407827

>  <HIPPO Compound ID>  (1234) 
129688

>  <gnina_score_min>  (1234) 
5.193

>  <name>  (1234) 
P95751

>  <exports>  (1234) 
['/opt/xchem-fragalysis-2/maxwin/BulkDock/OUTPUTS/openbind_d68ev3c_c2_elabs_1LOTQJ3.sdf', '/opt/xchem-fragalysis-2/maxwin/BulkDock/OUTPUTS/openbind_d68ev3c_c2_elabs_1LSYI5W.sdf']

$$$$
P95752
     RDKit          3D

 27 29  0  0  0  0  0  0  0  0999 V2000
   13.8577   -4.0151   17.5157 C   0  0  0  0  0  0  0  0  0  0  0  0
   13.3648   -2.7850   16.7955 C   0  0  0  0  0  0  0  0  0  0  0  0
   12.2159   -2.9019   15.9995 C   0  0  0  0  0  0  0  0  0  0  0  0
   11.6045   -4.0825   15.8874 F   0  0  0  0  0  0  0  0  0  0  0  0
   11.6721   -1.8276   15.3164 C   0  0  0  0  0  0  0  0  0  0  0  0
   12.2626   -0.5825   15.4573 C   0  0  0  0  0  0  0  0  0  0  0  0
   13.4152   -0.4229   16.2456 C   0  0  0  0  0  0  0  0  0  0  0  0
   13.8589    1.2233   16.5184 Cl  0  0  0  0  0  0  0  0  0  0  0  0
   14.0203   -1.5321   16.8780 C   0  0  0  0  0  0  0  0  0  0  0  0
   15.2335   -1.5072   17.5996 N   0  0  0  0  0  0  0  0  0  0  0  0
   16.3930   -0.4524   17.6042 C   0  0  0  0  0  0  0  0  0  0  0  0
   16.5460    0.5104   16.9526 O   0  0  0  0  0  0  0  0  0  0  0  0
   17.4301   -0.8167   18.7067 C   0  0  0  0  0  0  0  0  0  0  0  0
   18.2393   -2.3475   18.1676 S   0  0  0  0  0  0  0  0  0  0  0  0
   19.4768   -2.5097   18.9090 O   0  0  0  0  0  0  0  0  0  0  0  0
   17.2410   -3.4053   18.2214 O   0  0  0  0  0  0  0  0  0  0  0  0
   18.6896   -2.1435   16.4542 C   0  0  0  0  0  0  0  0  0  0  0  0
   17.8396   -2.6137   15.4472 C   0  0  0  0  0  0  0  0  0  0  0  0
   18.2101   -2.4634   14.1097 C   0  0  0  0  0  0  0  0  0  0  0  0
   19.4307   -1.8728   13.7828 C   0  0  0  0  0  0  0  0  0  0  0  0
   20.2916   -1.4398   14.7900 C   0  0  0  0  0  0  0  0  0  0  0  0
   19.9296   -1.5858   16.1289 C   0  0  0  0  0  0  0  0  0  0  0  0
   16.7614   -1.0518   20.0963 C   0  0  0  0  0  0  0  0  0  0  0  0
   16.6355    0.2360   20.9061 C   0  0  0  0  0  0  0  0  0  0  0  0
   18.0028    0.8159   21.2580 C   0  0  0  0  0  0  0  0  0  0  0  0
   19.0761    0.4725   20.2284 C   0  0  0  0  0  0  0  0  0  0  0  0
   18.4825    0.3362   18.8277 C   0  0  0  0  0  0  0  0  0  0  0  0
  1  2  1  0
  2  3  2  0
  3  4  1  0
  3  5  1  0
  5  6  2  0
  6  7  1  0
  7  8  1  0
  7  9  2  0
  9 10  1  0
 10 11  1  0
 11 12  2  0
 11 13  1  0
 13 14  1  0
 14 15  2  0
 14 16  2  0
 14 17  1  0
 17 18  2  0
 18 19  1  0
 19 20  2  0
 20 21  1  0
 21 22  2  0
 13 23  1  0
 23 24  1  0
 24 25  1  0
 25 26  1  0
 26 27  1  0
  9  2  1  0
 27 13  1  0
 22 17  1  0
M  END
>  <ref_mols>  (1235) 
B1396a

>  <gnina_score>  (1235) 
5.287

>  <smina_score_min>  (1235) 
-4.372

>  <ref_pdb>  (1235) 
B1396a

>  <inspiration_score>  (1235) 
None

>  <inchikey>  (1235) 
WDHPXGJYMCBHNC-UHFFFAOYSA-N

>  <tags>  (1235) 
BulkDock Fragalysis export,openbind_d68ev3c_c2_elabs_scored,openbind_d68ev3c_c2_elabs_scored_4.5plus,openbind_d68ev3c_c2_elabs,openbind_d68ev3c_c2_elabs_scored_5plus,syndirella_product,openbind_d68ev3c_c2_elabs_scored_top80percent,syndirella_placed

>  <smiles>  (1235) 
Cc1c(F)ccc(Cl)c1NC(=O)C1(S(=O)(=O)c2ccccc2)CCCCC1

>  <subsites>  (1235) 
None

>  <rmsd(smina/fragmenstein)>  (1235) 
2.86

>  <alias>  (1235) 
None

>  <energy_score>  (1235) 
-24.524594

>  <HIPPO Pose ID>  (1235) 
95752

>  <distance_score>  (1235) 
0.502849

>  <HIPPO Compound ID>  (1235) 
129689

>  <gnina_score_min>  (1235) 
5.058

>  <name>  (1235) 
P95752

>  <exports>  (1235) 
['/opt/xchem-fragalysis-2/maxwin/BulkDock/OUTPUTS/openbind_d68ev3c_c2_elabs_1LOTQJ3.sdf', '/opt/xchem-fragalysis-2/maxwin/BulkDock/OUTPUTS/openbind_d68ev3c_c2_elabs_1LSYI5W.sdf']

$$$$
P95755
     RDKit          3D

 27 29  0  0  0  0  0  0  0  0999 V2000
   14.0089   -4.0621   17.5627 C   0  0  0  0  0  0  0  0  0  0  0  0
   13.5123   -2.7807   16.9355 C   0  0  0  0  0  0  0  0  0  0  0  0
   12.2800   -2.8314   16.2616 C   0  0  0  0  0  0  0  0  0  0  0  0
   11.7440   -1.6791   15.7120 C   0  0  0  0  0  0  0  0  0  0  0  0
   10.1717   -1.6719   15.0462 Cl  0  0  0  0  0  0  0  0  0  0  0  0
   12.4279   -0.4792   15.7948 C   0  0  0  0  0  0  0  0  0  0  0  0
   13.6572   -0.3869   16.4718 C   0  0  0  0  0  0  0  0  0  0  0  0
   14.2062    1.0068   16.5952 C   0  0  0  0  0  0  0  0  0  0  0  0
   14.2311   -1.5535   17.0216 C   0  0  0  0  0  0  0  0  0  0  0  0
   15.4667   -1.6005   17.6952 N   0  0  0  0  0  0  0  0  0  0  0  0
   16.6416   -0.5627   17.7402 C   0  0  0  0  0  0  0  0  0  0  0  0
   16.7851    0.4476   17.1617 O   0  0  0  0  0  0  0  0  0  0  0  0
   17.6864   -1.0174   18.7897 C   0  0  0  0  0  0  0  0  0  0  0  0
   18.4324   -2.5375   18.1635 S   0  0  0  0  0  0  0  0  0  0  0  0
   19.6774   -2.7736   18.8700 O   0  0  0  0  0  0  0  0  0  0  0  0
   17.4032   -3.5664   18.1785 O   0  0  0  0  0  0  0  0  0  0  0  0
   18.8483   -2.2391   16.4581 C   0  0  0  0  0  0  0  0  0  0  0  0
   20.0236   -1.5509   16.1474 C   0  0  0  0  0  0  0  0  0  0  0  0
   20.3548   -1.3257   14.8114 C   0  0  0  0  0  0  0  0  0  0  0  0
   19.5277   -1.8040   13.7953 C   0  0  0  0  0  0  0  0  0  0  0  0
   18.3689   -2.5144   14.1086 C   0  0  0  0  0  0  0  0  0  0  0  0
   18.0275   -2.7421   15.4422 C   0  0  0  0  0  0  0  0  0  0  0  0
   16.9883   -1.2678   20.1583 C   0  0  0  0  0  0  0  0  0  0  0  0
   17.8663   -0.9070   21.3531 C   0  0  0  0  0  0  0  0  0  0  0  0
   18.2386    0.5738   21.3543 C   0  0  0  0  0  0  0  0  0  0  0  0
   18.3962    1.1526   19.9498 C   0  0  0  0  0  0  0  0  0  0  0  0
   18.7918    0.0764   18.9416 C   0  0  0  0  0  0  0  0  0  0  0  0
  1  2  1  0
  2  3  2  0
  3  4  1  0
  4  5  1  0
  4  6  2  0
  6  7  1  0
  7  8  1  0
  7  9  2  0
  9 10  1  0
 10 11  1  0
 11 12  2  0
 11 13  1  0
 13 14  1  0
 14 15  2  0
 14 16  2  0
 14 17  1  0
 17 18  2  0
 18 19  1  0
 19 20  2  0
 20 21  1  0
 21 22  2  0
 13 23  1  0
 23 24  1  0
 24 25  1  0
 25 26  1  0
 26 27  1  0
  9  2  1  0
 27 13  1  0
 22 17  1  0
M  END
>  <ref_mols>  (1236) 
B1396a

>  <gnina_score>  (1236) 
5.334

>  <smina_score_min>  (1236) 
-3.467

>  <ref_pdb>  (1236) 
B1396a

>  <inspiration_score>  (1236) 
None

>  <inchikey>  (1236) 
PLSYSBURYRRCOJ-UHFFFAOYSA-N

>  <tags>  (1236) 
BulkDock Fragalysis export,openbind_d68ev3c_c2_elabs_scored,openbind_d68ev3c_c2_elabs_scored_4.5plus,openbind_d68ev3c_c2_elabs,openbind_d68ev3c_c2_elabs_scored_5plus,syndirella_product,openbind_d68ev3c_c2_elabs_scored_top80percent,syndirella_placed

>  <smiles>  (1236) 
Cc1cc(Cl)cc(C)c1NC(=O)C1(S(=O)(=O)c2ccccc2)CCCCC1

>  <subsites>  (1236) 
None

>  <rmsd(smina/fragmenstein)>  (1236) 
1.837

>  <alias>  (1236) 
None

>  <energy_score>  (1236) 
-46.164352

>  <HIPPO Pose ID>  (1236) 
95755

>  <distance_score>  (1236) 
0.592091

>  <HIPPO Compound ID>  (1236) 
129692

>  <gnina_score_min>  (1236) 
5.189

>  <name>  (1236) 
P95755

>  <exports>  (1236) 
['/opt/xchem-fragalysis-2/maxwin/BulkDock/OUTPUTS/openbind_d68ev3c_c2_elabs_1LOTQJ3.sdf', '/opt/xchem-fragalysis-2/maxwin/BulkDock/OUTPUTS/openbind_d68ev3c_c2_elabs_1LSYI5W.sdf']

$$$$
P95756
     RDKit          3D

 27 29  0  0  0  0  0  0  0  0999 V2000
   11.7024    0.6086   13.2174 C   0  0  0  0  0  0  0  0  0  0  0  0
   11.6458    0.9163   15.0001 S   0  0  0  0  0  0  0  0  0  0  0  0
   12.3220   -0.6206   15.6037 C   0  0  0  0  0  0  0  0  0  0  0  0
   11.6560   -1.8326   15.4331 C   0  0  0  0  0  0  0  0  0  0  0  0
   12.1506   -2.9891   16.0425 C   0  0  0  0  0  0  0  0  0  0  0  0
   13.3130   -2.9537   16.8337 C   0  0  0  0  0  0  0  0  0  0  0  0
   13.7663   -4.2098   17.5258 C   0  0  0  0  0  0  0  0  0  0  0  0
   14.0083   -1.7408   16.9604 C   0  0  0  0  0  0  0  0  0  0  0  0
   15.1792   -1.6655   17.7206 N   0  0  0  0  0  0  0  0  0  0  0  0
   16.2611   -0.5380   17.8104 C   0  0  0  0  0  0  0  0  0  0  0  0
   16.2908    0.5265   17.3192 O   0  0  0  0  0  0  0  0  0  0  0  0
   17.3730   -0.9655   18.8071 C   0  0  0  0  0  0  0  0  0  0  0  0
   18.1928   -2.4399   18.1626 S   0  0  0  0  0  0  0  0  0  0  0  0
   19.4364   -2.6393   18.8850 O   0  0  0  0  0  0  0  0  0  0  0  0
   17.2119   -3.5145   18.1415 O   0  0  0  0  0  0  0  0  0  0  0  0
   18.6324   -2.1069   16.4705 C   0  0  0  0  0  0  0  0  0  0  0  0
   17.8472   -2.6224   15.4334 C   0  0  0  0  0  0  0  0  0  0  0  0
   18.2349   -2.4131   14.1092 C   0  0  0  0  0  0  0  0  0  0  0  0
   19.4046   -1.7078   13.8260 C   0  0  0  0  0  0  0  0  0  0  0  0
   20.1952   -1.2139   14.8636 C   0  0  0  0  0  0  0  0  0  0  0  0
   19.8174   -1.4211   16.1903 C   0  0  0  0  0  0  0  0  0  0  0  0
   16.7209   -1.2701   20.1885 C   0  0  0  0  0  0  0  0  0  0  0  0
   17.6142   -0.8949   21.3673 C   0  0  0  0  0  0  0  0  0  0  0  0
   17.9274    0.5994   21.3882 C   0  0  0  0  0  0  0  0  0  0  0  0
   18.0123    1.2152   19.9931 C   0  0  0  0  0  0  0  0  0  0  0  0
   18.4244    0.1819   18.9471 C   0  0  0  0  0  0  0  0  0  0  0  0
   13.5045   -0.5867   16.3502 C   0  0  0  0  0  0  0  0  0  0  0  0
  1  2  1  0
  2  3  1  0
  3  4  2  0
  4  5  1  0
  5  6  2  0
  6  7  1  0
  6  8  1  0
  8  9  1  0
  9 10  1  0
 10 11  2  0
 10 12  1  0
 12 13  1  0
 13 14  2  0
 13 15  2  0
 13 16  1  0
 16 17  2  0
 17 18  1  0
 18 19  2  0
 19 20  1  0
 20 21  2  0
 12 22  1  0
 22 23  1  0
 23 24  1  0
 24 25  1  0
 25 26  1  0
  8 27  2  0
 27  3  1  0
 26 12  1  0
 21 16  1  0
M  END
>  <ref_mols>  (1237) 
B1396a

>  <gnina_score>  (1237) 
5.135

>  <smina_score_min>  (1237) 
-4.006

>  <ref_pdb>  (1237) 
B1396a

>  <inspiration_score>  (1237) 
None

>  <inchikey>  (1237) 
VECJMKZDDKGGCZ-UHFFFAOYSA-N

>  <tags>  (1237) 
BulkDock Fragalysis export,openbind_d68ev3c_c2_elabs_scored,openbind_d68ev3c_c2_elabs_scored_4.5plus,openbind_d68ev3c_c2_elabs,openbind_d68ev3c_c2_elabs_scored_5plus,syndirella_product,openbind_d68ev3c_c2_elabs_scored_top80percent,syndirella_placed

>  <smiles>  (1237) 
CSc1ccc(C)c(NC(=O)C2(S(=O)(=O)c3ccccc3)CCCCC2)c1

>  <subsites>  (1237) 
None

>  <rmsd(smina/fragmenstein)>  (1237) 
1.881

>  <alias>  (1237) 
None

>  <energy_score>  (1237) 
-60.79271

>  <HIPPO Pose ID>  (1237) 
95756

>  <distance_score>  (1237) 
0.499032

>  <HIPPO Compound ID>  (1237) 
129693

>  <gnina_score_min>  (1237) 
5.015

>  <name>  (1237) 
P95756

>  <exports>  (1237) 
['/opt/xchem-fragalysis-2/maxwin/BulkDock/OUTPUTS/openbind_d68ev3c_c2_elabs_1LOTQJ3.sdf', '/opt/xchem-fragalysis-2/maxwin/BulkDock/OUTPUTS/openbind_d68ev3c_c2_elabs_1LSYI5W.sdf']

$$$$
P95757
     RDKit          3D

 27 29  0  0  0  0  0  0  0  0999 V2000
   12.1952   -3.1817   13.4663 C   0  0  0  0  0  0  0  0  0  0  0  0
   11.5117   -3.4432   15.1171 S   0  0  0  0  0  0  0  0  0  0  0  0
   12.3833   -2.1456   15.9504 C   0  0  0  0  0  0  0  0  0  0  0  0
   12.0217   -0.8505   15.5544 C   0  0  0  0  0  0  0  0  0  0  0  0
   12.7819    0.2332   15.9455 C   0  0  0  0  0  0  0  0  0  0  0  0
   13.9097    0.0224   16.7283 C   0  0  0  0  0  0  0  0  0  0  0  0
   14.2518   -1.2584   17.1816 C   0  0  0  0  0  0  0  0  0  0  0  0
   15.4172   -1.4043   17.9387 N   0  0  0  0  0  0  0  0  0  0  0  0
   16.6144   -0.4211   18.1596 C   0  0  0  0  0  0  0  0  0  0  0  0
   16.7638    0.6858   17.8018 O   0  0  0  0  0  0  0  0  0  0  0  0
   17.6691   -1.0777   19.0899 C   0  0  0  0  0  0  0  0  0  0  0  0
   18.3092   -2.5465   18.2586 S   0  0  0  0  0  0  0  0  0  0  0  0
   19.5686   -2.9219   18.8741 O   0  0  0  0  0  0  0  0  0  0  0  0
   17.2270   -3.5190   18.2139 O   0  0  0  0  0  0  0  0  0  0  0  0
   18.6797   -2.1165   16.5710 C   0  0  0  0  0  0  0  0  0  0  0  0
   19.8419   -1.3981   16.2809 C   0  0  0  0  0  0  0  0  0  0  0  0
   20.1736   -1.1347   14.9511 C   0  0  0  0  0  0  0  0  0  0  0  0
   19.3605   -1.6040   13.9190 C   0  0  0  0  0  0  0  0  0  0  0  0
   18.2113   -2.3383   14.2105 C   0  0  0  0  0  0  0  0  0  0  0  0
   17.8691   -2.6020   15.5376 C   0  0  0  0  0  0  0  0  0  0  0  0
   17.0359   -1.4882   20.4401 C   0  0  0  0  0  0  0  0  0  0  0  0
   16.4466   -0.3053   21.2134 C   0  0  0  0  0  0  0  0  0  0  0  0
   17.2348    0.9912   21.0458 C   0  0  0  0  0  0  0  0  0  0  0  0
   18.6849    0.7317   20.6733 C   0  0  0  0  0  0  0  0  0  0  0  0
   18.8408   -0.0834   19.3811 C   0  0  0  0  0  0  0  0  0  0  0  0
   13.4489   -2.3667   16.8491 C   0  0  0  0  0  0  0  0  0  0  0  0
   13.7635   -3.7395   17.3940 C   0  0  0  0  0  0  0  0  0  0  0  0
  1  2  1  0
  2  3  1  0
  3  4  2  0
  4  5  1  0
  5  6  2  0
  6  7  1  0
  7  8  1  0
  8  9  1  0
  9 10  2  0
  9 11  1  0
 11 12  1  0
 12 13  2  0
 12 14  2  0
 12 15  1  0
 15 16  2  0
 16 17  1  0
 17 18  2  0
 18 19  1  0
 19 20  2  0
 11 21  1  0
 21 22  1  0
 22 23  1  0
 23 24  1  0
 24 25  1  0
  7 26  2  0
 26 27  1  0
 26  3  1  0
 25 11  1  0
 20 15  1  0
M  END
>  <ref_mols>  (1238) 
B1396a

>  <gnina_score>  (1238) 
5.055

>  <smina_score_min>  (1238) 
-3.188

>  <ref_pdb>  (1238) 
B1396a

>  <inspiration_score>  (1238) 
None

>  <inchikey>  (1238) 
UWOKSVMSUJCBQO-UHFFFAOYSA-N

>  <tags>  (1238) 
BulkDock Fragalysis export,openbind_d68ev3c_c2_elabs_scored,openbind_d68ev3c_c2_elabs_scored_4.5plus,openbind_d68ev3c_c2_elabs,openbind_d68ev3c_c2_elabs_scored_5plus,syndirella_product,openbind_d68ev3c_c2_elabs_scored_top80percent,syndirella_placed

>  <smiles>  (1238) 
CSc1cccc(NC(=O)C2(S(=O)(=O)c3ccccc3)CCCCC2)c1C

>  <subsites>  (1238) 
None

>  <rmsd(smina/fragmenstein)>  (1238) 
0.859

>  <alias>  (1238) 
None

>  <energy_score>  (1238) 
-48.82136

>  <HIPPO Pose ID>  (1238) 
95757

>  <distance_score>  (1238) 
0.926774

>  <HIPPO Compound ID>  (1238) 
129694

>  <gnina_score_min>  (1238) 
5.089

>  <name>  (1238) 
P95757

>  <exports>  (1238) 
['/opt/xchem-fragalysis-2/maxwin/BulkDock/OUTPUTS/openbind_d68ev3c_c2_elabs_1LOTQJ3.sdf', '/opt/xchem-fragalysis-2/maxwin/BulkDock/OUTPUTS/openbind_d68ev3c_c2_elabs_1LSYI5W.sdf']

$$$$
P95766
     RDKit          3D

 27 29  0  0  0  0  0  0  0  0999 V2000
   14.1999   -4.9510   18.1939 N   0  0  0  0  0  0  0  0  0  0  0  0
   13.8094   -4.0474   17.5823 C   0  0  0  0  0  0  0  0  0  0  0  0
   13.4103   -2.8934   16.8394 C   0  0  0  0  0  0  0  0  0  0  0  0
   12.2321   -2.9447   16.0961 C   0  0  0  0  0  0  0  0  0  0  0  0
   11.5011   -4.0607   16.0869 F   0  0  0  0  0  0  0  0  0  0  0  0
   11.7824   -1.8606   15.3509 C   0  0  0  0  0  0  0  0  0  0  0  0
   12.5331   -0.6932   15.3420 C   0  0  0  0  0  0  0  0  0  0  0  0
   13.7299   -0.6284   16.0646 C   0  0  0  0  0  0  0  0  0  0  0  0
   14.1818   -1.7237   16.8141 C   0  0  0  0  0  0  0  0  0  0  0  0
   15.4009   -1.6493   17.5024 N   0  0  0  0  0  0  0  0  0  0  0  0
   16.4122   -0.4652   17.6506 C   0  0  0  0  0  0  0  0  0  0  0  0
   16.4140    0.5977   17.1563 O   0  0  0  0  0  0  0  0  0  0  0  0
   17.4944   -0.8426   18.7022 C   0  0  0  0  0  0  0  0  0  0  0  0
   18.3584   -2.3281   18.1303 S   0  0  0  0  0  0  0  0  0  0  0  0
   19.6033   -2.4661   18.8627 O   0  0  0  0  0  0  0  0  0  0  0  0
   17.3980   -3.4195   18.1492 O   0  0  0  0  0  0  0  0  0  0  0  0
   18.7913   -2.0579   16.4251 C   0  0  0  0  0  0  0  0  0  0  0  0
   18.0726   -2.7067   15.4137 C   0  0  0  0  0  0  0  0  0  0  0  0
   18.4432   -2.5222   14.0814 C   0  0  0  0  0  0  0  0  0  0  0  0
   19.5310   -1.7083   13.7658 C   0  0  0  0  0  0  0  0  0  0  0  0
   20.2604   -1.0860   14.7789 C   0  0  0  0  0  0  0  0  0  0  0  0
   19.9003   -1.2680   16.1139 C   0  0  0  0  0  0  0  0  0  0  0  0
   16.7956   -1.1170   20.0669 C   0  0  0  0  0  0  0  0  0  0  0  0
   17.6436   -0.7014   21.2654 C   0  0  0  0  0  0  0  0  0  0  0  0
   17.9398    0.7963   21.2588 C   0  0  0  0  0  0  0  0  0  0  0  0
   18.0579    1.3785   19.8519 C   0  0  0  0  0  0  0  0  0  0  0  0
   18.5194    0.3270   18.8453 C   0  0  0  0  0  0  0  0  0  0  0  0
  1  2  3  0
  2  3  1  0
  3  4  2  0
  4  5  1  0
  4  6  1  0
  6  7  2  0
  7  8  1  0
  8  9  2  0
  9 10  1  0
 10 11  1  0
 11 12  2  0
 11 13  1  0
 13 14  1  0
 14 15  2  0
 14 16  2  0
 14 17  1  0
 17 18  2  0
 18 19  1  0
 19 20  2  0
 20 21  1  0
 21 22  2  0
 13 23  1  0
 23 24  1  0
 24 25  1  0
 25 26  1  0
 26 27  1  0
  9  3  1  0
 27 13  1  0
 22 17  1  0
M  END
>  <ref_mols>  (1239) 
B1396a

>  <gnina_score>  (1239) 
5.274

>  <smina_score_min>  (1239) 
-3.86

>  <ref_pdb>  (1239) 
B1396a

>  <inspiration_score>  (1239) 
None

>  <inchikey>  (1239) 
QAJBYXCSILIVJJ-UHFFFAOYSA-N

>  <tags>  (1239) 
BulkDock Fragalysis export,openbind_d68ev3c_c2_elabs_scored,openbind_d68ev3c_c2_elabs_scored_4.5plus,openbind_d68ev3c_c2_elabs,openbind_d68ev3c_c2_elabs_scored_5plus,syndirella_product,openbind_d68ev3c_c2_elabs_scored_top80percent,syndirella_placed

>  <smiles>  (1239) 
N#Cc1c(F)cccc1NC(=O)C1(S(=O)(=O)c2ccccc2)CCCCC1

>  <subsites>  (1239) 
None

>  <rmsd(smina/fragmenstein)>  (1239) 
2.453

>  <alias>  (1239) 
None

>  <energy_score>  (1239) 
-51.913649

>  <HIPPO Pose ID>  (1239) 
95766

>  <distance_score>  (1239) 
0.510669

>  <HIPPO Compound ID>  (1239) 
129707

>  <gnina_score_min>  (1239) 
5.156

>  <name>  (1239) 
P95766

>  <exports>  (1239) 
['/opt/xchem-fragalysis-2/maxwin/BulkDock/OUTPUTS/openbind_d68ev3c_c2_elabs_1LOTQJ3.sdf', '/opt/xchem-fragalysis-2/maxwin/BulkDock/OUTPUTS/openbind_d68ev3c_c2_elabs_1LSYI5W.sdf']

$$$$
P95767
     RDKit          3D

 27 29  0  0  0  0  0  0  0  0999 V2000
   13.9766   -3.9799   17.5224 C   0  0  0  0  0  0  0  0  0  0  0  0
   13.5191   -2.6632   16.9414 C   0  0  0  0  0  0  0  0  0  0  0  0
   12.2904   -2.6461   16.2511 C   0  0  0  0  0  0  0  0  0  0  0  0
   11.7790   -1.4469   15.7696 C   0  0  0  0  0  0  0  0  0  0  0  0
   10.0164   -1.3145   15.1315 Br  0  0  0  0  0  0  0  0  0  0  0  0
   12.4924   -0.2704   15.9057 C   0  0  0  0  0  0  0  0  0  0  0  0
   13.7060   -0.2626   16.5944 C   0  0  0  0  0  0  0  0  0  0  0  0
   14.2659    1.3282   16.9799 Cl  0  0  0  0  0  0  0  0  0  0  0  0
   14.2551   -1.4578   17.1060 C   0  0  0  0  0  0  0  0  0  0  0  0
   15.4505   -1.5123   17.8510 N   0  0  0  0  0  0  0  0  0  0  0  0
   16.7067   -0.5723   17.8307 C   0  0  0  0  0  0  0  0  0  0  0  0
   16.8977    0.4277   17.2475 O   0  0  0  0  0  0  0  0  0  0  0  0
   17.7648   -1.0823   18.8483 C   0  0  0  0  0  0  0  0  0  0  0  0
   18.4399   -2.5942   18.1511 S   0  0  0  0  0  0  0  0  0  0  0  0
   19.7029   -2.8979   18.7942 O   0  0  0  0  0  0  0  0  0  0  0  0
   17.3758   -3.5871   18.1784 O   0  0  0  0  0  0  0  0  0  0  0  0
   18.8062   -2.2754   16.4364 C   0  0  0  0  0  0  0  0  0  0  0  0
   17.9095   -2.6841   15.4431 C   0  0  0  0  0  0  0  0  0  0  0  0
   18.2168   -2.4493   14.1022 C   0  0  0  0  0  0  0  0  0  0  0  0
   19.4181   -1.8295   13.7576 C   0  0  0  0  0  0  0  0  0  0  0  0
   20.3219   -1.4506   14.7495 C   0  0  0  0  0  0  0  0  0  0  0  0
   20.0245   -1.6840   16.0919 C   0  0  0  0  0  0  0  0  0  0  0  0
   18.8497    0.0270   19.0058 C   0  0  0  0  0  0  0  0  0  0  0  0
   19.8132   -0.1356   20.1801 C   0  0  0  0  0  0  0  0  0  0  0  0
   19.0759   -0.3665   21.4887 C   0  0  0  0  0  0  0  0  0  0  0  0
   18.1069   -1.5314   21.3769 C   0  0  0  0  0  0  0  0  0  0  0  0
   17.1123   -1.3380   20.2329 C   0  0  0  0  0  0  0  0  0  0  0  0
  1  2  1  0
  2  3  2  0
  3  4  1  0
  4  5  1  0
  4  6  2  0
  6  7  1  0
  7  8  1  0
  7  9  2  0
  9 10  1  0
 10 11  1  0
 11 12  2  0
 11 13  1  0
 13 14  1  0
 14 15  2  0
 14 16  2  0
 14 17  1  0
 17 18  2  0
 18 19  1  0
 19 20  2  0
 20 21  1  0
 21 22  2  0
 13 23  1  0
 23 24  1  0
 24 25  1  0
 25 26  1  0
 26 27  1  0
  9  2  1  0
 27 13  1  0
 22 17  1  0
M  END
>  <ref_mols>  (1240) 
B1396a

>  <gnina_score>  (1240) 
5.642

>  <smina_score_min>  (1240) 
-4.35

>  <ref_pdb>  (1240) 
B1396a

>  <inspiration_score>  (1240) 
None

>  <inchikey>  (1240) 
VHXCGFJJQJMNFL-UHFFFAOYSA-N

>  <tags>  (1240) 
BulkDock Fragalysis export,openbind_d68ev3c_c2_elabs_scored,openbind_d68ev3c_c2_elabs_scored_4.5plus,openbind_d68ev3c_c2_elabs,openbind_d68ev3c_c2_elabs_scored_5plus,syndirella_product,openbind_d68ev3c_c2_elabs_scored_top80percent,syndirella_placed

>  <smiles>  (1240) 
Cc1cc(Br)cc(Cl)c1NC(=O)C1(S(=O)(=O)c2ccccc2)CCCCC1

>  <subsites>  (1240) 
None

>  <rmsd(smina/fragmenstein)>  (1240) 
3.472

>  <alias>  (1240) 
None

>  <energy_score>  (1240) 
-26.871814

>  <HIPPO Pose ID>  (1240) 
95767

>  <distance_score>  (1240) 
0.69004

>  <HIPPO Compound ID>  (1240) 
129708

>  <gnina_score_min>  (1240) 
5.152

>  <name>  (1240) 
P95767

>  <exports>  (1240) 
['/opt/xchem-fragalysis-2/maxwin/BulkDock/OUTPUTS/openbind_d68ev3c_c2_elabs_1LOTQJ3.sdf', '/opt/xchem-fragalysis-2/maxwin/BulkDock/OUTPUTS/openbind_d68ev3c_c2_elabs_1LSYI5W.sdf']

$$$$
P95771
     RDKit          3D

 28 31  0  0  0  0  0  0  0  0999 V2000
   16.3030    0.4357   17.2000 O   0  0  0  0  0  0  0  0  0  0  0  0
   16.2794   -0.6050   17.7428 C   0  0  0  0  0  0  0  0  0  0  0  0
   15.2232   -1.7466   17.6884 N   0  0  0  0  0  0  0  0  0  0  0  0
   14.0715   -1.8791   16.9129 C   0  0  0  0  0  0  0  0  0  0  0  0
   13.6107   -0.8136   16.1331 C   0  0  0  0  0  0  0  0  0  0  0  0
   12.4425   -0.9372   15.3777 C   0  0  0  0  0  0  0  0  0  0  0  0
   11.7287   -2.1289   15.3915 C   0  0  0  0  0  0  0  0  0  0  0  0
   12.1853   -3.1965   16.1641 C   0  0  0  0  0  0  0  0  0  0  0  0
   13.3591   -3.0934   16.9345 C   0  0  0  0  0  0  0  0  0  0  0  0
   13.8535   -4.3166   17.6756 C   0  0  0  0  0  0  0  0  0  0  0  0
   13.8848   -4.1266   19.4762 S   0  0  0  0  0  0  0  0  0  0  0  0
   17.3866   -0.9732   18.7918 C   0  0  0  0  0  0  0  0  0  0  0  0
   18.3441   -2.3761   18.1765 S   0  0  0  0  0  0  0  0  0  0  0  0
   17.4555   -3.5298   18.1982 O   0  0  0  0  0  0  0  0  0  0  0  0
   19.6074   -2.4529   18.8899 O   0  0  0  0  0  0  0  0  0  0  0  0
   18.7996   -2.1503   16.4697 C   0  0  0  0  0  0  0  0  0  0  0  0
   19.2103   -0.9006   16.0131 C   0  0  0  0  0  0  0  0  0  0  0  0
   19.5504   -0.7427   14.6680 C   0  0  0  0  0  0  0  0  0  0  0  0
   19.5008   -1.8275   13.7775 C   0  0  0  0  0  0  0  0  0  0  0  0
   19.8376   -1.6754   12.4230 C   0  0  0  0  0  0  0  0  0  0  0  0
   19.8020   -2.7659   11.5531 C   0  0  0  0  0  0  0  0  0  0  0  0
   19.4467   -4.0234   12.0299 C   0  0  0  0  0  0  0  0  0  0  0  0
   19.1168   -4.1923   13.3753 C   0  0  0  0  0  0  0  0  0  0  0  0
   19.1144   -3.1007   14.2567 C   0  0  0  0  0  0  0  0  0  0  0  0
   18.7509   -3.2487   15.6037 C   0  0  0  0  0  0  0  0  0  0  0  0
   16.9197   -1.1623   20.2753 C   0  0  0  0  0  0  0  0  0  0  0  0
   17.2773    0.3133   20.5185 C   0  0  0  0  0  0  0  0  0  0  0  0
   18.2610    0.2082   19.3409 C   0  0  0  0  0  0  0  0  0  0  0  0
  1  2  2  0
  2  3  1  0
  3  4  1  0
  4  5  2  0
  5  6  1  0
  6  7  2  0
  7  8  1  0
  8  9  2  0
  9 10  1  0
 10 11  1  0
  2 12  1  0
 12 13  1  0
 13 14  2  0
 13 15  2  0
 13 16  1  0
 16 17  2  0
 17 18  1  0
 18 19  2  0
 19 20  1  0
 20 21  2  0
 21 22  1  0
 22 23  2  0
 23 24  1  0
 24 25  2  0
 12 26  1  0
 26 27  1  0
 27 28  1  0
  9  4  1  0
 28 12  1  0
 25 16  1  0
 24 19  1  0
M  END
>  <ref_mols>  (1241) 
B1396a

>  <gnina_score>  (1241) 
5.199

>  <smina_score_min>  (1241) 
-3.4

>  <ref_pdb>  (1241) 
B1396a

>  <inspiration_score>  (1241) 
None

>  <inchikey>  (1241) 
RQMWLGYTBQQRCV-UHFFFAOYSA-N

>  <tags>  (1241) 
BulkDock Fragalysis export,openbind_d68ev3c_c2_elabs_scored,openbind_d68ev3c_c2_elabs_scored_4.5plus,openbind_d68ev3c_c2_elabs,openbind_d68ev3c_c2_elabs_scored_5plus,syndirella_product,openbind_d68ev3c_c2_elabs_scored_top80percent,syndirella_placed

>  <smiles>  (1241) 
O=C(Nc1ccccc1CS)C1(S(=O)(=O)c2ccc3ccccc3c2)CCC1

>  <subsites>  (1241) 
None

>  <rmsd(smina/fragmenstein)>  (1241) 
2.307

>  <alias>  (1241) 
None

>  <energy_score>  (1241) 
-46.00114

>  <HIPPO Pose ID>  (1241) 
95771

>  <distance_score>  (1241) 
0.46412

>  <HIPPO Compound ID>  (1241) 
129715

>  <gnina_score_min>  (1241) 
5.102

>  <name>  (1241) 
P95771

>  <exports>  (1241) 
['/opt/xchem-fragalysis-2/maxwin/BulkDock/OUTPUTS/openbind_d68ev3c_c2_elabs_1LOTQJ3.sdf', '/opt/xchem-fragalysis-2/maxwin/BulkDock/OUTPUTS/openbind_d68ev3c_c2_elabs_1LSYI5W.sdf']

$$$$
P95772
     RDKit          3D

 28 30  0  0  0  0  0  0  0  0999 V2000
   17.1838   -2.3405   12.9063 C   0  0  0  0  0  0  0  0  0  0  0  0
   18.1535   -2.0919   14.0238 C   0  0  0  0  0  0  0  0  0  0  0  0
   19.4120   -1.5684   13.7330 C   0  0  0  0  0  0  0  0  0  0  0  0
   20.3113   -1.2805   14.7592 C   0  0  0  0  0  0  0  0  0  0  0  0
   19.9789   -1.4927   16.1094 C   0  0  0  0  0  0  0  0  0  0  0  0
   21.0381   -1.1887   17.1316 C   0  0  0  0  0  0  0  0  0  0  0  0
   18.7064   -2.0177   16.4044 C   0  0  0  0  0  0  0  0  0  0  0  0
   18.1539   -2.3622   18.0768 S   0  0  0  0  0  0  0  0  0  0  0  0
   17.2093   -3.4675   17.9977 O   0  0  0  0  0  0  0  0  0  0  0  0
   19.3222   -2.5246   18.9219 O   0  0  0  0  0  0  0  0  0  0  0  0
   17.2344   -0.9333   18.6391 C   0  0  0  0  0  0  0  0  0  0  0  0
   16.1773   -0.5299   17.5813 C   0  0  0  0  0  0  0  0  0  0  0  0
   16.1945    0.5379   17.0987 O   0  0  0  0  0  0  0  0  0  0  0  0
   15.1654   -1.7070   17.3981 N   0  0  0  0  0  0  0  0  0  0  0  0
   13.9657   -1.7688   16.6849 C   0  0  0  0  0  0  0  0  0  0  0  0
   13.5201   -0.6708   15.9401 C   0  0  0  0  0  0  0  0  0  0  0  0
   12.3319   -0.7433   15.2004 C   0  0  0  0  0  0  0  0  0  0  0  0
   11.8720    0.3982   14.4603 C   0  0  0  0  0  0  0  0  0  0  0  0
   11.4938    1.3356   13.8884 N   0  0  0  0  0  0  0  0  0  0  0  0
   11.5947   -1.9270   15.1919 C   0  0  0  0  0  0  0  0  0  0  0  0
   12.0361   -3.0231   15.9344 C   0  0  0  0  0  0  0  0  0  0  0  0
   13.2135   -2.9556   16.6977 C   0  0  0  0  0  0  0  0  0  0  0  0
   13.6311   -4.1590   17.5008 C   0  0  0  0  0  0  0  0  0  0  0  0
   16.5907   -1.1877   20.0147 C   0  0  0  0  0  0  0  0  0  0  0  0
   16.3296    0.2024   20.5876 C   0  0  0  0  0  0  0  0  0  0  0  0
   17.3703    1.1199   19.9536 C   0  0  0  0  0  0  0  0  0  0  0  0
   18.1618    0.2499   18.9774 C   0  0  0  0  0  0  0  0  0  0  0  0
   17.8219   -2.3516   15.3586 C   0  0  0  0  0  0  0  0  0  0  0  0
  1  2  1  0
  2  3  2  0
  3  4  1  0
  4  5  2  0
  5  6  1  0
  5  7  1  0
  7  8  1  0
  8  9  2  0
  8 10  2  0
  8 11  1  0
 11 12  1  0
 12 13  2  0
 12 14  1  0
 14 15  1  0
 15 16  2  0
 16 17  1  0
 17 18  1  0
 18 19  3  0
 17 20  2  0
 20 21  1  0
 21 22  2  0
 22 23  1  0
 11 24  1  0
 24 25  1  0
 25 26  1  0
 26 27  1  0
  7 28  2  0
 28  2  1  0
 27 11  1  0
 22 15  1  0
M  END
>  <ref_mols>  (1242) 
B1396a

>  <gnina_score>  (1242) 
5.213

>  <smina_score_min>  (1242) 
-3.907

>  <ref_pdb>  (1242) 
B1396a

>  <inspiration_score>  (1242) 
None

>  <inchikey>  (1242) 
JREJEVDLRABDPB-UHFFFAOYSA-N

>  <tags>  (1242) 
BulkDock Fragalysis export,openbind_d68ev3c_c2_elabs_scored,openbind_d68ev3c_c2_elabs_scored_4.5plus,openbind_d68ev3c_c2_elabs,openbind_d68ev3c_c2_elabs_scored_5plus,syndirella_product,openbind_d68ev3c_c2_elabs_scored_top80percent,syndirella_placed

>  <smiles>  (1242) 
Cc1ccc(C)c(S(=O)(=O)C2(C(=O)Nc3cc(C#N)ccc3C)CCCC2)c1

>  <subsites>  (1242) 
None

>  <rmsd(smina/fragmenstein)>  (1242) 
1.885

>  <alias>  (1242) 
None

>  <energy_score>  (1242) 
-44.24841

>  <HIPPO Pose ID>  (1242) 
95772

>  <distance_score>  (1242) 
0.527709

>  <HIPPO Compound ID>  (1242) 
129716

>  <gnina_score_min>  (1242) 
5.074

>  <name>  (1242) 
P95772

>  <exports>  (1242) 
['/opt/xchem-fragalysis-2/maxwin/BulkDock/OUTPUTS/openbind_d68ev3c_c2_elabs_1LOTQJ3.sdf', '/opt/xchem-fragalysis-2/maxwin/BulkDock/OUTPUTS/openbind_d68ev3c_c2_elabs_1LSYI5W.sdf']

$$$$
P95774
     RDKit          3D

 28 30  0  0  0  0  0  0  0  0999 V2000
   20.0093    0.3663   14.1493 C   0  0  0  0  0  0  0  0  0  0  0  0
   19.5528   -0.9826   14.6235 C   0  0  0  0  0  0  0  0  0  0  0  0
   19.3470   -2.0184   13.7133 C   0  0  0  0  0  0  0  0  0  0  0  0
   18.9113   -3.2668   14.1555 C   0  0  0  0  0  0  0  0  0  0  0  0
   18.6472   -3.5063   15.5155 C   0  0  0  0  0  0  0  0  0  0  0  0
   18.2409   -4.9006   15.9112 C   0  0  0  0  0  0  0  0  0  0  0  0
   18.7926   -2.4394   16.4279 C   0  0  0  0  0  0  0  0  0  0  0  0
   18.4023   -2.6525   18.1645 S   0  0  0  0  0  0  0  0  0  0  0  0
   17.3062   -3.6077   18.2414 O   0  0  0  0  0  0  0  0  0  0  0  0
   19.6578   -2.9511   18.8265 O   0  0  0  0  0  0  0  0  0  0  0  0
   17.7418   -1.1408   18.8532 C   0  0  0  0  0  0  0  0  0  0  0  0
   16.7014   -0.5708   17.8721 C   0  0  0  0  0  0  0  0  0  0  0  0
   16.8782    0.4715   17.3626 O   0  0  0  0  0  0  0  0  0  0  0  0
   15.4622   -1.5328   17.8150 N   0  0  0  0  0  0  0  0  0  0  0  0
   14.2697   -1.4472   17.0644 C   0  0  0  0  0  0  0  0  0  0  0  0
   13.7517   -0.2482   16.5286 C   0  0  0  0  0  0  0  0  0  0  0  0
   14.3607    1.1181   16.6773 C   0  0  0  0  0  0  0  0  0  0  0  0
   12.5151   -0.2692   15.8592 C   0  0  0  0  0  0  0  0  0  0  0  0
   11.7679   -1.4300   15.7668 C   0  0  0  0  0  0  0  0  0  0  0  0
   10.0006   -1.2761   15.1443 Br  0  0  0  0  0  0  0  0  0  0  0  0
   12.2654   -2.6245   16.2619 C   0  0  0  0  0  0  0  0  0  0  0  0
   13.5049   -2.6442   16.9306 C   0  0  0  0  0  0  0  0  0  0  0  0
   13.9447   -3.9614   17.5269 C   0  0  0  0  0  0  0  0  0  0  0  0
   17.0841   -1.4037   20.2376 C   0  0  0  0  0  0  0  0  0  0  0  0
   18.1163   -0.9883   21.2725 C   0  0  0  0  0  0  0  0  0  0  0  0
   18.7185    0.2523   20.6544 C   0  0  0  0  0  0  0  0  0  0  0  0
   18.8725   -0.1145   19.1822 C   0  0  0  0  0  0  0  0  0  0  0  0
   19.2671   -1.1981   15.9783 C   0  0  0  0  0  0  0  0  0  0  0  0
  1  2  1  0
  2  3  2  0
  3  4  1  0
  4  5  2  0
  5  6  1  0
  5  7  1  0
  7  8  1  0
  8  9  2  0
  8 10  2  0
  8 11  1  0
 11 12  1  0
 12 13  2  0
 12 14  1  0
 14 15  1  0
 15 16  2  0
 16 17  1  0
 16 18  1  0
 18 19  2  0
 19 20  1  0
 19 21  1  0
 21 22  2  0
 22 23  1  0
 11 24  1  0
 24 25  1  0
 25 26  1  0
 26 27  1  0
  7 28  2  0
 28  2  1  0
 27 11  1  0
 22 15  1  0
M  END
>  <ref_mols>  (1243) 
B1396a

>  <gnina_score>  (1243) 
5.619

>  <smina_score_min>  (1243) 
-3.842

>  <ref_pdb>  (1243) 
B1396a

>  <inspiration_score>  (1243) 
None

>  <inchikey>  (1243) 
YZDLZQYGCUSRMQ-UHFFFAOYSA-N

>  <tags>  (1243) 
BulkDock Fragalysis export,openbind_d68ev3c_c2_elabs_scored,openbind_d68ev3c_c2_elabs_scored_4.5plus,openbind_d68ev3c_c2_elabs,openbind_d68ev3c_c2_elabs_scored_5plus,syndirella_product,openbind_d68ev3c_c2_elabs_scored_top80percent,syndirella_placed

>  <smiles>  (1243) 
Cc1ccc(C)c(S(=O)(=O)C2(C(=O)Nc3c(C)cc(Br)cc3C)CCCC2)c1

>  <subsites>  (1243) 
None

>  <rmsd(smina/fragmenstein)>  (1243) 
4.171

>  <alias>  (1243) 
None

>  <energy_score>  (1243) 
-83.812714

>  <HIPPO Pose ID>  (1243) 
95774

>  <distance_score>  (1243) 
0.688122

>  <HIPPO Compound ID>  (1243) 
129718

>  <gnina_score_min>  (1243) 
5.197

>  <name>  (1243) 
P95774

>  <exports>  (1243) 
['/opt/xchem-fragalysis-2/maxwin/BulkDock/OUTPUTS/openbind_d68ev3c_c2_elabs_1LOTQJ3.sdf', '/opt/xchem-fragalysis-2/maxwin/BulkDock/OUTPUTS/openbind_d68ev3c_c2_elabs_1LSYI5W.sdf']

$$$$
P95775
     RDKit          3D

 28 30  0  0  0  0  0  0  0  0999 V2000
   20.1666    0.3851   14.1249 C   0  0  0  0  0  0  0  0  0  0  0  0
   19.6087   -0.9173   14.6197 C   0  0  0  0  0  0  0  0  0  0  0  0
   19.3914   -1.9735   13.7365 C   0  0  0  0  0  0  0  0  0  0  0  0
   18.8716   -3.1820   14.1995 C   0  0  0  0  0  0  0  0  0  0  0  0
   18.5276   -3.3590   15.5519 C   0  0  0  0  0  0  0  0  0  0  0  0
   18.0450   -4.7208   15.9708 C   0  0  0  0  0  0  0  0  0  0  0  0
   18.6792   -2.2657   16.4304 C   0  0  0  0  0  0  0  0  0  0  0  0
   18.2140   -2.3602   18.1604 S   0  0  0  0  0  0  0  0  0  0  0  0
   19.4549   -2.4210   18.9096 O   0  0  0  0  0  0  0  0  0  0  0  0
   17.2483   -3.4409   18.2976 O   0  0  0  0  0  0  0  0  0  0  0  0
   17.3131   -0.8721   18.6205 C   0  0  0  0  0  0  0  0  0  0  0  0
   16.2812   -0.5498   17.5151 C   0  0  0  0  0  0  0  0  0  0  0  0
   16.3335    0.4568   16.9164 O   0  0  0  0  0  0  0  0  0  0  0  0
   15.2381   -1.7144   17.4500 N   0  0  0  0  0  0  0  0  0  0  0  0
   14.0462   -1.8240   16.7313 C   0  0  0  0  0  0  0  0  0  0  0  0
   13.5818   -0.7555   15.9556 C   0  0  0  0  0  0  0  0  0  0  0  0
   12.3837   -0.8527   15.2286 C   0  0  0  0  0  0  0  0  0  0  0  0
   11.8792    0.3128   14.4228 C   0  0  0  0  0  0  0  0  0  0  0  0
   11.1393    1.1920   15.2600 O   0  0  0  0  0  0  0  0  0  0  0  0
   11.6496   -2.0384   15.2893 C   0  0  0  0  0  0  0  0  0  0  0  0
   12.1108   -3.1069   16.0573 C   0  0  0  0  0  0  0  0  0  0  0  0
   13.3044   -3.0141   16.7906 C   0  0  0  0  0  0  0  0  0  0  0  0
   13.7393   -4.1907   17.6212 C   0  0  0  0  0  0  0  0  0  0  0  0
   18.2701    0.3266   18.8908 C   0  0  0  0  0  0  0  0  0  0  0  0
   17.8205    0.9377   20.2114 C   0  0  0  0  0  0  0  0  0  0  0  0
   17.3682   -0.2662   21.0060 C   0  0  0  0  0  0  0  0  0  0  0  0
   16.5821   -1.0701   19.9817 C   0  0  0  0  0  0  0  0  0  0  0  0
   19.2458   -1.0690   15.9639 C   0  0  0  0  0  0  0  0  0  0  0  0
  1  2  1  0
  2  3  2  0
  3  4  1  0
  4  5  2  0
  5  6  1  0
  5  7  1  0
  7  8  1  0
  8  9  2  0
  8 10  2  0
  8 11  1  0
 11 12  1  0
 12 13  2  0
 12 14  1  0
 14 15  1  0
 15 16  2  0
 16 17  1  0
 17 18  1  0
 18 19  1  0
 17 20  2  0
 20 21  1  0
 21 22  2  0
 22 23  1  0
 11 24  1  0
 24 25  1  0
 25 26  1  0
 26 27  1  0
  7 28  2  0
 28  2  1  0
 27 11  1  0
 22 15  1  0
M  END
>  <ref_mols>  (1244) 
B1396a

>  <gnina_score>  (1244) 
5.083

>  <smina_score_min>  (1244) 
-3.911

>  <ref_pdb>  (1244) 
B1396a

>  <inspiration_score>  (1244) 
None

>  <inchikey>  (1244) 
WWKDIYHTASBJNZ-UHFFFAOYSA-N

>  <tags>  (1244) 
BulkDock Fragalysis export,openbind_d68ev3c_c2_elabs_scored,openbind_d68ev3c_c2_elabs_scored_4.5plus,openbind_d68ev3c_c2_elabs,openbind_d68ev3c_c2_elabs_scored_5plus,syndirella_product,openbind_d68ev3c_c2_elabs_scored_top80percent,syndirella_placed

>  <smiles>  (1244) 
Cc1ccc(C)c(S(=O)(=O)C2(C(=O)Nc3cc(CO)ccc3C)CCCC2)c1

>  <subsites>  (1244) 
None

>  <rmsd(smina/fragmenstein)>  (1244) 
1.705

>  <alias>  (1244) 
None

>  <energy_score>  (1244) 
-58.307499

>  <HIPPO Pose ID>  (1244) 
95775

>  <distance_score>  (1244) 
0.400475

>  <HIPPO Compound ID>  (1244) 
129719

>  <gnina_score_min>  (1244) 
5.121

>  <name>  (1244) 
P95775

>  <exports>  (1244) 
['/opt/xchem-fragalysis-2/maxwin/BulkDock/OUTPUTS/openbind_d68ev3c_c2_elabs_1LOTQJ3.sdf', '/opt/xchem-fragalysis-2/maxwin/BulkDock/OUTPUTS/openbind_d68ev3c_c2_elabs_1LSYI5W.sdf']

$$$$
P95776
     RDKit          3D

 28 31  0  0  0  0  0  0  0  0999 V2000
   20.5290    0.2024   14.2244 C   0  0  0  0  0  0  0  0  0  0  0  0
   19.8597   -1.0502   14.7066 C   0  0  0  0  0  0  0  0  0  0  0  0
   19.6117   -2.1035   13.8286 C   0  0  0  0  0  0  0  0  0  0  0  0
   19.0512   -3.2930   14.2962 C   0  0  0  0  0  0  0  0  0  0  0  0
   18.7040   -3.4600   15.6509 C   0  0  0  0  0  0  0  0  0  0  0  0
   18.2311   -4.8240   16.0704 C   0  0  0  0  0  0  0  0  0  0  0  0
   18.8914   -2.3684   16.5247 C   0  0  0  0  0  0  0  0  0  0  0  0
   18.4348   -2.3897   18.2676 S   0  0  0  0  0  0  0  0  0  0  0  0
   19.6369   -1.9922   18.9811 O   0  0  0  0  0  0  0  0  0  0  0  0
   17.8681   -3.6954   18.5569 O   0  0  0  0  0  0  0  0  0  0  0  0
   17.1307   -1.1625   18.5794 C   0  0  0  0  0  0  0  0  0  0  0  0
   16.2507   -1.0506   17.3267 C   0  0  0  0  0  0  0  0  0  0  0  0
   16.6663   -0.5128   16.3635 O   0  0  0  0  0  0  0  0  0  0  0  0
   14.9022   -1.7092   17.5817 N   0  0  0  0  0  0  0  0  0  0  0  0
   14.9295   -3.2397   17.1966 C   0  0  0  0  0  0  0  0  0  0  0  0
   13.6151   -3.9581   17.4204 C   0  0  0  0  0  0  0  0  0  0  0  0
   12.9219   -2.9286   16.6633 C   0  0  0  0  0  0  0  0  0  0  0  0
   11.7852   -3.0133   15.8784 C   0  0  0  0  0  0  0  0  0  0  0  0
   11.3723   -1.8769   15.1892 C   0  0  0  0  0  0  0  0  0  0  0  0
   12.1178   -0.7024   15.2849 C   0  0  0  0  0  0  0  0  0  0  0  0
   11.7080    0.3882   14.6245 F   0  0  0  0  0  0  0  0  0  0  0  0
   13.2790   -0.6419   16.0503 C   0  0  0  0  0  0  0  0  0  0  0  0
   13.6934   -1.7794   16.7394 C   0  0  0  0  0  0  0  0  0  0  0  0
   16.3769   -1.4644   19.8911 C   0  0  0  0  0  0  0  0  0  0  0  0
   17.2870   -0.9537   20.9965 C   0  0  0  0  0  0  0  0  0  0  0  0
   17.9440    0.2882   20.4162 C   0  0  0  0  0  0  0  0  0  0  0  0
   17.7204    0.2309   18.9031 C   0  0  0  0  0  0  0  0  0  0  0  0
   19.5232   -1.2011   16.0568 C   0  0  0  0  0  0  0  0  0  0  0  0
  1  2  1  0
  2  3  2  0
  3  4  1  0
  4  5  2  0
  5  6  1  0
  5  7  1  0
  7  8  1  0
  8  9  2  0
  8 10  2  0
  8 11  1  0
 11 12  1  0
 12 13  2  0
 12 14  1  0
 14 15  1  0
 15 16  1  0
 16 17  1  0
 17 18  2  0
 18 19  1  0
 19 20  2  0
 20 21  1  0
 20 22  1  0
 22 23  2  0
 11 24  1  0
 24 25  1  0
 25 26  1  0
 26 27  1  0
  7 28  2  0
 28  2  1  0
 27 11  1  0
 23 14  1  0
 23 17  1  0
M  END
>  <ref_mols>  (1245) 
B1396a

>  <gnina_score>  (1245) 
5.307

>  <smina_score_min>  (1245) 
-4.306

>  <ref_pdb>  (1245) 
B1396a

>  <inspiration_score>  (1245) 
None

>  <inchikey>  (1245) 
KCSAZFFPTJUYDH-UHFFFAOYSA-N

>  <tags>  (1245) 
BulkDock Fragalysis export,openbind_d68ev3c_c2_elabs_scored,openbind_d68ev3c_c2_elabs_scored_4.5plus,openbind_d68ev3c_c2_elabs,openbind_d68ev3c_c2_elabs_scored_5plus,syndirella_product,openbind_d68ev3c_c2_elabs_scored_top80percent,syndirella_placed

>  <smiles>  (1245) 
Cc1ccc(C)c(S(=O)(=O)C2(C(=O)N3CCc4ccc(F)cc43)CCCC2)c1

>  <subsites>  (1245) 
None

>  <rmsd(smina/fragmenstein)>  (1245) 
2.198

>  <alias>  (1245) 
None

>  <energy_score>  (1245) 
-43.224199

>  <HIPPO Pose ID>  (1245) 
95776

>  <distance_score>  (1245) 
0.343309

>  <HIPPO Compound ID>  (1245) 
129721

>  <gnina_score_min>  (1245) 
5.198

>  <name>  (1245) 
P95776

>  <exports>  (1245) 
['/opt/xchem-fragalysis-2/maxwin/BulkDock/OUTPUTS/openbind_d68ev3c_c2_elabs_1LOTQJ3.sdf', '/opt/xchem-fragalysis-2/maxwin/BulkDock/OUTPUTS/openbind_d68ev3c_c2_elabs_1LSYI5W.sdf']

$$$$
P95780
     RDKit          3D

 28 31  0  0  0  0  0  0  0  0999 V2000
   20.5758    0.3191   14.4862 C   0  0  0  0  0  0  0  0  0  0  0  0
   19.9368   -0.9752   14.8935 C   0  0  0  0  0  0  0  0  0  0  0  0
   19.6255   -1.9430   13.9390 C   0  0  0  0  0  0  0  0  0  0  0  0
   19.0289   -3.1453   14.3224 C   0  0  0  0  0  0  0  0  0  0  0  0
   18.6921   -3.4007   15.6653 C   0  0  0  0  0  0  0  0  0  0  0  0
   18.1686   -4.7713   15.9937 C   0  0  0  0  0  0  0  0  0  0  0  0
   18.9193   -2.3812   16.6135 C   0  0  0  0  0  0  0  0  0  0  0  0
   18.4730   -2.5165   18.3503 S   0  0  0  0  0  0  0  0  0  0  0  0
   17.7808   -3.7804   18.5330 O   0  0  0  0  0  0  0  0  0  0  0  0
   19.7117   -2.3009   19.0790 O   0  0  0  0  0  0  0  0  0  0  0  0
   17.3017   -1.2207   18.8010 C   0  0  0  0  0  0  0  0  0  0  0  0
   16.4362   -0.8801   17.5739 C   0  0  0  0  0  0  0  0  0  0  0  0
   16.8998   -0.2369   16.7014 O   0  0  0  0  0  0  0  0  0  0  0  0
   15.0421   -1.4658   17.7296 N   0  0  0  0  0  0  0  0  0  0  0  0
   14.9592   -2.9233   17.1178 C   0  0  0  0  0  0  0  0  0  0  0  0
   13.5887   -3.5575   17.1871 C   0  0  0  0  0  0  0  0  0  0  0  0
   13.0203   -2.3800   16.5555 C   0  0  0  0  0  0  0  0  0  0  0  0
   11.9934   -2.2232   15.6432 C   0  0  0  0  0  0  0  0  0  0  0  0
   11.2389   -3.5562   14.9128 Cl  0  0  0  0  0  0  0  0  0  0  0  0
   11.6653   -0.9551   15.1757 C   0  0  0  0  0  0  0  0  0  0  0  0
   12.4248    0.1409   15.5738 C   0  0  0  0  0  0  0  0  0  0  0  0
   13.5271   -0.0440   16.4102 C   0  0  0  0  0  0  0  0  0  0  0  0
   13.8397   -1.3186   16.8886 C   0  0  0  0  0  0  0  0  0  0  0  0
   18.0117    0.0678   19.2754 C   0  0  0  0  0  0  0  0  0  0  0  0
   16.9540    0.8085   20.0913 C   0  0  0  0  0  0  0  0  0  0  0  0
   16.0414   -0.2708   20.6640 C   0  0  0  0  0  0  0  0  0  0  0  0
   16.5477   -1.5925   20.0914 C   0  0  0  0  0  0  0  0  0  0  0  0
   19.5841   -1.2028   16.2288 C   0  0  0  0  0  0  0  0  0  0  0  0
  1  2  1  0
  2  3  2  0
  3  4  1  0
  4  5  2  0
  5  6  1  0
  5  7  1  0
  7  8  1  0
  8  9  2  0
  8 10  2  0
  8 11  1  0
 11 12  1  0
 12 13  2  0
 12 14  1  0
 14 15  1  0
 15 16  1  0
 16 17  1  0
 17 18  2  0
 18 19  1  0
 18 20  1  0
 20 21  2  0
 21 22  1  0
 22 23  2  0
 11 24  1  0
 24 25  1  0
 25 26  1  0
 26 27  1  0
  7 28  2  0
 28  2  1  0
 27 11  1  0
 23 14  1  0
 23 17  1  0
M  END
>  <ref_mols>  (1246) 
B1396a

>  <gnina_score>  (1246) 
5.274

>  <smina_score_min>  (1246) 
-4.144

>  <ref_pdb>  (1246) 
B1396a

>  <inspiration_score>  (1246) 
None

>  <inchikey>  (1246) 
MSOYKTNJZZEQIK-UHFFFAOYSA-N

>  <tags>  (1246) 
BulkDock Fragalysis export,openbind_d68ev3c_c2_elabs_scored,openbind_d68ev3c_c2_elabs_scored_4.5plus,openbind_d68ev3c_c2_elabs,openbind_d68ev3c_c2_elabs_scored_5plus,syndirella_product,openbind_d68ev3c_c2_elabs_scored_top80percent,syndirella_placed

>  <smiles>  (1246) 
Cc1ccc(C)c(S(=O)(=O)C2(C(=O)N3CCc4c(Cl)cccc43)CCCC2)c1

>  <subsites>  (1246) 
None

>  <rmsd(smina/fragmenstein)>  (1246) 
1.244

>  <alias>  (1246) 
None

>  <energy_score>  (1246) 
-4.727858

>  <HIPPO Pose ID>  (1246) 
95780

>  <distance_score>  (1246) 
0.673215

>  <HIPPO Compound ID>  (1246) 
129725

>  <gnina_score_min>  (1246) 
5.21

>  <name>  (1246) 
P95780

>  <exports>  (1246) 
['/opt/xchem-fragalysis-2/maxwin/BulkDock/OUTPUTS/openbind_d68ev3c_c2_elabs_1LOTQJ3.sdf', '/opt/xchem-fragalysis-2/maxwin/BulkDock/OUTPUTS/openbind_d68ev3c_c2_elabs_1LSYI5W.sdf']

$$$$
P95783
     RDKit          3D

 28 31  0  0  0  0  0  0  0  0999 V2000
   13.7438   -4.0860   17.5895 C   0  0  0  0  0  0  0  0  0  0  0  0
   13.2259   -2.9073   16.8024 C   0  0  0  0  0  0  0  0  0  0  0  0
   12.0937   -3.1062   15.9919 C   0  0  0  0  0  0  0  0  0  0  0  0
   11.5651   -2.0733   15.2290 C   0  0  0  0  0  0  0  0  0  0  0  0
   12.1418   -0.8127   15.2992 C   0  0  0  0  0  0  0  0  0  0  0  0
   13.2652   -0.5827   16.1096 C   0  0  0  0  0  0  0  0  0  0  0  0
   13.7158    1.2545   16.3150 Br  0  0  0  0  0  0  0  0  0  0  0  0
   13.8521   -1.6374   16.8364 C   0  0  0  0  0  0  0  0  0  0  0  0
   15.0112   -1.5239   17.6258 N   0  0  0  0  0  0  0  0  0  0  0  0
   16.2672   -0.6156   17.4560 C   0  0  0  0  0  0  0  0  0  0  0  0
   16.4929    0.2318   16.6754 O   0  0  0  0  0  0  0  0  0  0  0  0
   17.2923   -0.9096   18.5988 C   0  0  0  0  0  0  0  0  0  0  0  0
   18.2288   -2.3795   18.1314 S   0  0  0  0  0  0  0  0  0  0  0  0
   19.4533   -2.4480   18.9108 O   0  0  0  0  0  0  0  0  0  0  0  0
   17.3009   -3.5006   18.1930 O   0  0  0  0  0  0  0  0  0  0  0  0
   18.7580   -2.2514   16.4348 C   0  0  0  0  0  0  0  0  0  0  0  0
   18.4196   -3.2501   15.5210 C   0  0  0  0  0  0  0  0  0  0  0  0
   18.8392   -3.1326   14.1947 C   0  0  0  0  0  0  0  0  0  0  0  0
   19.5852   -2.0204   13.7716 C   0  0  0  0  0  0  0  0  0  0  0  0
   19.9984   -1.8868   12.4369 C   0  0  0  0  0  0  0  0  0  0  0  0
   20.7444   -0.7802   12.0289 C   0  0  0  0  0  0  0  0  0  0  0  0
   21.0884    0.2052   12.9494 C   0  0  0  0  0  0  0  0  0  0  0  0
   20.6862    0.0877   14.2808 C   0  0  0  0  0  0  0  0  0  0  0  0
   19.9330   -1.0177   14.7077 C   0  0  0  0  0  0  0  0  0  0  0  0
   19.5206   -1.1478   16.0425 C   0  0  0  0  0  0  0  0  0  0  0  0
   18.1801    0.2964   19.0668 C   0  0  0  0  0  0  0  0  0  0  0  0
   17.1536    0.5384   20.1862 C   0  0  0  0  0  0  0  0  0  0  0  0
   16.7753   -0.9484   20.0757 C   0  0  0  0  0  0  0  0  0  0  0  0
  1  2  1  0
  2  3  2  0
  3  4  1  0
  4  5  2  0
  5  6  1  0
  6  7  1  0
  6  8  2  0
  8  9  1  0
  9 10  1  0
 10 11  2  0
 10 12  1  0
 12 13  1  0
 13 14  2  0
 13 15  2  0
 13 16  1  0
 16 17  2  0
 17 18  1  0
 18 19  2  0
 19 20  1  0
 20 21  2  0
 21 22  1  0
 22 23  2  0
 23 24  1  0
 24 25  2  0
 12 26  1  0
 26 27  1  0
 27 28  1  0
  8  2  1  0
 28 12  1  0
 25 16  1  0
 24 19  1  0
M  END
>  <ref_mols>  (1247) 
B1396a

>  <gnina_score>  (1247) 
5.293

>  <smina_score_min>  (1247) 
-3.81

>  <ref_pdb>  (1247) 
B1396a

>  <inspiration_score>  (1247) 
None

>  <inchikey>  (1247) 
JCQZILWIBDOVMU-UHFFFAOYSA-N

>  <tags>  (1247) 
BulkDock Fragalysis export,openbind_d68ev3c_c2_elabs_scored,openbind_d68ev3c_c2_elabs_scored_4.5plus,openbind_d68ev3c_c2_elabs,openbind_d68ev3c_c2_elabs_scored_5plus,syndirella_product,openbind_d68ev3c_c2_elabs_scored_top80percent,syndirella_placed

>  <smiles>  (1247) 
Cc1cccc(Br)c1NC(=O)C1(S(=O)(=O)c2ccc3ccccc3c2)CCC1

>  <subsites>  (1247) 
None

>  <rmsd(smina/fragmenstein)>  (1247) 
2.652

>  <alias>  (1247) 
None

>  <energy_score>  (1247) 
-35.485783

>  <HIPPO Pose ID>  (1247) 
95783

>  <distance_score>  (1247) 
0.304294

>  <HIPPO Compound ID>  (1247) 
129731

>  <gnina_score_min>  (1247) 
5.051

>  <name>  (1247) 
P95783

>  <exports>  (1247) 
['/opt/xchem-fragalysis-2/maxwin/BulkDock/OUTPUTS/openbind_d68ev3c_c2_elabs_1LOTQJ3.sdf', '/opt/xchem-fragalysis-2/maxwin/BulkDock/OUTPUTS/openbind_d68ev3c_c2_elabs_1LSYI5W.sdf']

$$$$
P95784
     RDKit          3D

 28 31  0  0  0  0  0  0  0  0999 V2000
   20.6018    0.3020   14.2944 C   0  0  0  0  0  0  0  0  0  0  0  0
   19.9880   -0.9899   14.7457 C   0  0  0  0  0  0  0  0  0  0  0  0
   19.7266   -2.0084   13.8293 C   0  0  0  0  0  0  0  0  0  0  0  0
   19.1550   -3.2099   14.2521 C   0  0  0  0  0  0  0  0  0  0  0  0
   18.7961   -3.4172   15.5966 C   0  0  0  0  0  0  0  0  0  0  0  0
   18.2981   -4.7842   15.9723 C   0  0  0  0  0  0  0  0  0  0  0  0
   18.9733   -2.3503   16.5016 C   0  0  0  0  0  0  0  0  0  0  0  0
   18.4490   -2.4038   18.2191 S   0  0  0  0  0  0  0  0  0  0  0  0
   17.8340   -3.6966   18.4628 O   0  0  0  0  0  0  0  0  0  0  0  0
   19.6232   -2.0501   18.9993 O   0  0  0  0  0  0  0  0  0  0  0  0
   17.1672   -1.1506   18.4888 C   0  0  0  0  0  0  0  0  0  0  0  0
   16.2649   -1.1186   17.2323 C   0  0  0  0  0  0  0  0  0  0  0  0
   16.6783   -0.6400   16.2378 O   0  0  0  0  0  0  0  0  0  0  0  0
   14.9098   -1.7335   17.5369 N   0  0  0  0  0  0  0  0  0  0  0  0
   14.9010   -3.2860   17.2302 C   0  0  0  0  0  0  0  0  0  0  0  0
   13.5757   -3.9753   17.4678 C   0  0  0  0  0  0  0  0  0  0  0  0
   12.9040   -2.9598   16.6757 C   0  0  0  0  0  0  0  0  0  0  0  0
   11.7689   -3.0526   15.8917 C   0  0  0  0  0  0  0  0  0  0  0  0
   11.3635   -1.9330   15.1700 C   0  0  0  0  0  0  0  0  0  0  0  0
   12.1173   -0.7586   15.2286 C   0  0  0  0  0  0  0  0  0  0  0  0
   11.6010    0.6231   14.3425 Cl  0  0  0  0  0  0  0  0  0  0  0  0
   13.2836   -0.6977   15.9931 C   0  0  0  0  0  0  0  0  0  0  0  0
   13.6888   -1.8216   16.7146 C   0  0  0  0  0  0  0  0  0  0  0  0
   16.4666   -1.4064   19.8382 C   0  0  0  0  0  0  0  0  0  0  0  0
   15.8958   -0.0531   20.2235 C   0  0  0  0  0  0  0  0  0  0  0  0
   17.0130    0.9093   19.8684 C   0  0  0  0  0  0  0  0  0  0  0  0
   17.7681    0.2700   18.6978 C   0  0  0  0  0  0  0  0  0  0  0  0
   19.6072   -1.1667   16.0805 C   0  0  0  0  0  0  0  0  0  0  0  0
  1  2  1  0
  2  3  2  0
  3  4  1  0
  4  5  2  0
  5  6  1  0
  5  7  1  0
  7  8  1  0
  8  9  2  0
  8 10  2  0
  8 11  1  0
 11 12  1  0
 12 13  2  0
 12 14  1  0
 14 15  1  0
 15 16  1  0
 16 17  1  0
 17 18  2  0
 18 19  1  0
 19 20  2  0
 20 21  1  0
 20 22  1  0
 22 23  2  0
 11 24  1  0
 24 25  1  0
 25 26  1  0
 26 27  1  0
  7 28  2  0
 28  2  1  0
 27 11  1  0
 23 14  1  0
 23 17  1  0
M  END
>  <ref_mols>  (1248) 
B1396a

>  <gnina_score>  (1248) 
5.397

>  <smina_score_min>  (1248) 
-4.202

>  <ref_pdb>  (1248) 
B1396a

>  <inspiration_score>  (1248) 
None

>  <inchikey>  (1248) 
AJVQWADIVPDJCS-UHFFFAOYSA-N

>  <tags>  (1248) 
BulkDock Fragalysis export,openbind_d68ev3c_c2_elabs_scored,openbind_d68ev3c_c2_elabs_scored_4.5plus,openbind_d68ev3c_c2_elabs,openbind_d68ev3c_c2_elabs_scored_5plus,syndirella_product,openbind_d68ev3c_c2_elabs_scored_top80percent,syndirella_placed

>  <smiles>  (1248) 
Cc1ccc(C)c(S(=O)(=O)C2(C(=O)N3CCc4ccc(Cl)cc43)CCCC2)c1

>  <subsites>  (1248) 
None

>  <rmsd(smina/fragmenstein)>  (1248) 
1.571

>  <alias>  (1248) 
None

>  <energy_score>  (1248) 
-2.045494

>  <HIPPO Pose ID>  (1248) 
95784

>  <distance_score>  (1248) 
0.351194

>  <HIPPO Compound ID>  (1248) 
129732

>  <gnina_score_min>  (1248) 
5.284

>  <name>  (1248) 
P95784

>  <exports>  (1248) 
['/opt/xchem-fragalysis-2/maxwin/BulkDock/OUTPUTS/openbind_d68ev3c_c2_elabs_1LOTQJ3.sdf', '/opt/xchem-fragalysis-2/maxwin/BulkDock/OUTPUTS/openbind_d68ev3c_c2_elabs_1LSYI5W.sdf']

$$$$
P95785
     RDKit          3D

 28 31  0  0  0  0  0  0  0  0999 V2000
   14.3743   -4.9778   18.1443 C   0  0  0  0  0  0  0  0  0  0  0  0
   13.8367   -4.0856   17.5484 C   0  0  0  0  0  0  0  0  0  0  0  0
   13.3285   -2.9594   16.8200 C   0  0  0  0  0  0  0  0  0  0  0  0
   12.1607   -3.1035   16.0628 C   0  0  0  0  0  0  0  0  0  0  0  0
   11.6783   -2.0383   15.3027 C   0  0  0  0  0  0  0  0  0  0  0  0
   12.3681   -0.8280   15.2955 C   0  0  0  0  0  0  0  0  0  0  0  0
   13.5397   -0.6778   16.0450 C   0  0  0  0  0  0  0  0  0  0  0  0
   14.0249   -1.7371   16.8141 C   0  0  0  0  0  0  0  0  0  0  0  0
   15.1784   -1.5931   17.5939 N   0  0  0  0  0  0  0  0  0  0  0  0
   16.2722   -0.4870   17.5854 C   0  0  0  0  0  0  0  0  0  0  0  0
   16.3357    0.5144   16.9773 O   0  0  0  0  0  0  0  0  0  0  0  0
   17.3516   -0.8325   18.6681 C   0  0  0  0  0  0  0  0  0  0  0  0
   18.3040   -2.2723   18.1176 S   0  0  0  0  0  0  0  0  0  0  0  0
   17.4100   -3.4185   18.2169 O   0  0  0  0  0  0  0  0  0  0  0  0
   19.5766   -2.3179   18.8164 O   0  0  0  0  0  0  0  0  0  0  0  0
   18.7265   -2.1225   16.3934 C   0  0  0  0  0  0  0  0  0  0  0  0
   18.4131   -3.1569   15.5098 C   0  0  0  0  0  0  0  0  0  0  0  0
   18.7716   -3.0411   14.1657 C   0  0  0  0  0  0  0  0  0  0  0  0
   19.4296   -1.8943   13.6936 C   0  0  0  0  0  0  0  0  0  0  0  0
   19.7804   -1.7624   12.3410 C   0  0  0  0  0  0  0  0  0  0  0  0
   20.4401   -0.6207   11.8842 C   0  0  0  0  0  0  0  0  0  0  0  0
   20.7595    0.4013   12.7730 C   0  0  0  0  0  0  0  0  0  0  0  0
   20.4182    0.2858   14.1215 C   0  0  0  0  0  0  0  0  0  0  0  0
   19.7514   -0.8545   14.5977 C   0  0  0  0  0  0  0  0  0  0  0  0
   19.4007   -0.9823   15.9505 C   0  0  0  0  0  0  0  0  0  0  0  0
   16.8197   -0.9726   20.1346 C   0  0  0  0  0  0  0  0  0  0  0  0
   18.0468   -0.1955   20.6279 C   0  0  0  0  0  0  0  0  0  0  0  0
   18.2196    0.3531   19.2038 C   0  0  0  0  0  0  0  0  0  0  0  0
  1  2  3  0
  2  3  1  0
  3  4  2  0
  4  5  1  0
  5  6  2  0
  6  7  1  0
  7  8  2  0
  8  9  1  0
  9 10  1  0
 10 11  2  0
 10 12  1  0
 12 13  1  0
 13 14  2  0
 13 15  2  0
 13 16  1  0
 16 17  2  0
 17 18  1  0
 18 19  2  0
 19 20  1  0
 20 21  2  0
 21 22  1  0
 22 23  2  0
 23 24  1  0
 24 25  2  0
 12 26  1  0
 26 27  1  0
 27 28  1  0
  8  3  1  0
 28 12  1  0
 25 16  1  0
 24 19  1  0
M  END
>  <ref_mols>  (1249) 
B1396a

>  <gnina_score>  (1249) 
5.155

>  <smina_score_min>  (1249) 
-3.769

>  <ref_pdb>  (1249) 
B1396a

>  <inspiration_score>  (1249) 
None

>  <inchikey>  (1249) 
HLJXQZXNUXABSB-UHFFFAOYSA-N

>  <tags>  (1249) 
BulkDock Fragalysis export,openbind_d68ev3c_c2_elabs_scored,openbind_d68ev3c_c2_elabs_scored_4.5plus,openbind_d68ev3c_c2_elabs,openbind_d68ev3c_c2_elabs_scored_5plus,syndirella_product,openbind_d68ev3c_c2_elabs_scored_top80percent,syndirella_placed

>  <smiles>  (1249) 
C#Cc1ccccc1NC(=O)C1(S(=O)(=O)c2ccc3ccccc3c2)CCC1

>  <subsites>  (1249) 
None

>  <rmsd(smina/fragmenstein)>  (1249) 
1.562

>  <alias>  (1249) 
None

>  <energy_score>  (1249) 
-37.172702

>  <HIPPO Pose ID>  (1249) 
95785

>  <distance_score>  (1249) 
0.399954

>  <HIPPO Compound ID>  (1249) 
129733

>  <gnina_score_min>  (1249) 
5.102

>  <name>  (1249) 
P95785

>  <exports>  (1249) 
['/opt/xchem-fragalysis-2/maxwin/BulkDock/OUTPUTS/openbind_d68ev3c_c2_elabs_1LOTQJ3.sdf', '/opt/xchem-fragalysis-2/maxwin/BulkDock/OUTPUTS/openbind_d68ev3c_c2_elabs_1LSYI5W.sdf']

$$$$
P95788
     RDKit          3D

 28 31  0  0  0  0  0  0  0  0999 V2000
   14.0995   -5.0264   18.2251 N   0  0  0  0  0  0  0  0  0  0  0  0
   13.7027   -4.1422   17.5901 C   0  0  0  0  0  0  0  0  0  0  0  0
   13.2870   -3.0115   16.8160 C   0  0  0  0  0  0  0  0  0  0  0  0
   12.1123   -3.1029   16.0555 C   0  0  0  0  0  0  0  0  0  0  0  0
   11.6853   -2.0257   15.2820 C   0  0  0  0  0  0  0  0  0  0  0  0
   12.4368   -0.8548   15.2640 C   0  0  0  0  0  0  0  0  0  0  0  0
   13.6196   -0.7620   16.0061 C   0  0  0  0  0  0  0  0  0  0  0  0
   14.0571   -1.8366   16.7858 C   0  0  0  0  0  0  0  0  0  0  0  0
   15.2534   -1.7521   17.5134 N   0  0  0  0  0  0  0  0  0  0  0  0
   16.2709   -0.5814   17.6547 C   0  0  0  0  0  0  0  0  0  0  0  0
   16.3049    0.4648   17.1232 O   0  0  0  0  0  0  0  0  0  0  0  0
   17.3252   -0.9405   18.7557 C   0  0  0  0  0  0  0  0  0  0  0  0
   18.3413   -2.3252   18.1768 S   0  0  0  0  0  0  0  0  0  0  0  0
   17.4797   -3.4977   18.2148 O   0  0  0  0  0  0  0  0  0  0  0  0
   19.6010   -2.3485   18.8988 O   0  0  0  0  0  0  0  0  0  0  0  0
   18.7984   -2.1212   16.4673 C   0  0  0  0  0  0  0  0  0  0  0  0
   19.2061   -0.8762   15.9953 C   0  0  0  0  0  0  0  0  0  0  0  0
   19.5455   -0.7341   14.6482 C   0  0  0  0  0  0  0  0  0  0  0  0
   19.4966   -1.8296   13.7709 C   0  0  0  0  0  0  0  0  0  0  0  0
   19.8319   -1.6937   12.4143 C   0  0  0  0  0  0  0  0  0  0  0  0
   19.7965   -2.7948   11.5579 C   0  0  0  0  0  0  0  0  0  0  0  0
   19.4431   -4.0469   12.0504 C   0  0  0  0  0  0  0  0  0  0  0  0
   19.1151   -4.1998   13.3980 C   0  0  0  0  0  0  0  0  0  0  0  0
   19.1125   -3.0976   14.2658 C   0  0  0  0  0  0  0  0  0  0  0  0
   18.7511   -3.2302   15.6149 C   0  0  0  0  0  0  0  0  0  0  0  0
   16.7540   -1.1555   20.1971 C   0  0  0  0  0  0  0  0  0  0  0  0
   17.9448   -0.3682   20.7598 C   0  0  0  0  0  0  0  0  0  0  0  0
   18.1435    0.2453   19.3657 C   0  0  0  0  0  0  0  0  0  0  0  0
  1  2  3  0
  2  3  1  0
  3  4  2  0
  4  5  1  0
  5  6  2  0
  6  7  1  0
  7  8  2  0
  8  9  1  0
  9 10  1  0
 10 11  2  0
 10 12  1  0
 12 13  1  0
 13 14  2  0
 13 15  2  0
 13 16  1  0
 16 17  2  0
 17 18  1  0
 18 19  2  0
 19 20  1  0
 20 21  2  0
 21 22  1  0
 22 23  2  0
 23 24  1  0
 24 25  2  0
 12 26  1  0
 26 27  1  0
 27 28  1  0
  8  3  1  0
 28 12  1  0
 25 16  1  0
 24 19  1  0
M  END
>  <ref_mols>  (1250) 
B1396a

>  <gnina_score>  (1250) 
5.285

>  <smina_score_min>  (1250) 
-3.701

>  <ref_pdb>  (1250) 
B1396a

>  <inspiration_score>  (1250) 
None

>  <inchikey>  (1250) 
ACNXJCGKTMYPKJ-UHFFFAOYSA-N

>  <tags>  (1250) 
BulkDock Fragalysis export,openbind_d68ev3c_c2_elabs_scored,openbind_d68ev3c_c2_elabs_scored_4.5plus,openbind_d68ev3c_c2_elabs,openbind_d68ev3c_c2_elabs_scored_5plus,syndirella_product,openbind_d68ev3c_c2_elabs_scored_top80percent,syndirella_placed

>  <smiles>  (1250) 
N#Cc1ccccc1NC(=O)C1(S(=O)(=O)c2ccc3ccccc3c2)CCC1

>  <subsites>  (1250) 
None

>  <rmsd(smina/fragmenstein)>  (1250) 
2.156

>  <alias>  (1250) 
None

>  <energy_score>  (1250) 
-35.641254

>  <HIPPO Pose ID>  (1250) 
95788

>  <distance_score>  (1250) 
0.463076

>  <HIPPO Compound ID>  (1250) 
129736

>  <gnina_score_min>  (1250) 
5.152

>  <name>  (1250) 
P95788

>  <exports>  (1250) 
['/opt/xchem-fragalysis-2/maxwin/BulkDock/OUTPUTS/openbind_d68ev3c_c2_elabs_1LOTQJ3.sdf', '/opt/xchem-fragalysis-2/maxwin/BulkDock/OUTPUTS/openbind_d68ev3c_c2_elabs_1LSYI5W.sdf']

$$$$
P95789
     RDKit          3D

 28 31  0  0  0  0  0  0  0  0999 V2000
   13.7308   -4.0606   17.5975 C   0  0  0  0  0  0  0  0  0  0  0  0
   13.2151   -2.8897   16.7952 C   0  0  0  0  0  0  0  0  0  0  0  0
   12.0905   -3.1021   15.9786 C   0  0  0  0  0  0  0  0  0  0  0  0
   11.5701   -2.0813   15.1955 C   0  0  0  0  0  0  0  0  0  0  0  0
   12.1474   -0.8197   15.2496 C   0  0  0  0  0  0  0  0  0  0  0  0
   13.2644   -0.5738   16.0682 C   0  0  0  0  0  0  0  0  0  0  0  0
   13.7244    1.4770   16.2622 I   0  0  0  0  0  0  0  0  0  0  0  0
   13.8416   -1.6178   16.8187 C   0  0  0  0  0  0  0  0  0  0  0  0
   14.9892   -1.5061   17.6233 N   0  0  0  0  0  0  0  0  0  0  0  0
   16.2834   -0.6590   17.4290 C   0  0  0  0  0  0  0  0  0  0  0  0
   16.5571    0.1336   16.6078 O   0  0  0  0  0  0  0  0  0  0  0  0
   17.2727   -0.9401   18.5998 C   0  0  0  0  0  0  0  0  0  0  0  0
   18.2619   -2.3835   18.1330 S   0  0  0  0  0  0  0  0  0  0  0  0
   19.4964   -2.4024   18.8994 O   0  0  0  0  0  0  0  0  0  0  0  0
   17.3730   -3.5348   18.2123 O   0  0  0  0  0  0  0  0  0  0  0  0
   18.7731   -2.2632   16.4278 C   0  0  0  0  0  0  0  0  0  0  0  0
   18.4305   -3.2706   15.5247 C   0  0  0  0  0  0  0  0  0  0  0  0
   18.8403   -3.1646   14.1942 C   0  0  0  0  0  0  0  0  0  0  0  0
   19.5805   -2.0550   13.7549 C   0  0  0  0  0  0  0  0  0  0  0  0
   19.9829   -1.9328   12.4157 C   0  0  0  0  0  0  0  0  0  0  0  0
   20.7238   -0.8288   11.9920 C   0  0  0  0  0  0  0  0  0  0  0  0
   21.0738    0.1651   12.9010 C   0  0  0  0  0  0  0  0  0  0  0  0
   20.6822    0.0587   14.2365 C   0  0  0  0  0  0  0  0  0  0  0  0
   19.9340   -1.0440   14.6791 C   0  0  0  0  0  0  0  0  0  0  0  0
   19.5326   -1.1635   16.0186 C   0  0  0  0  0  0  0  0  0  0  0  0
   16.6858   -1.0244   20.0471 C   0  0  0  0  0  0  0  0  0  0  0  0
   17.8852   -0.2140   20.5545 C   0  0  0  0  0  0  0  0  0  0  0  0
   18.1025    0.2800   19.1170 C   0  0  0  0  0  0  0  0  0  0  0  0
  1  2  1  0
  2  3  2  0
  3  4  1  0
  4  5  2  0
  5  6  1  0
  6  7  1  0
  6  8  2  0
  8  9  1  0
  9 10  1  0
 10 11  2  0
 10 12  1  0
 12 13  1  0
 13 14  2  0
 13 15  2  0
 13 16  1  0
 16 17  2  0
 17 18  1  0
 18 19  2  0
 19 20  1  0
 20 21  2  0
 21 22  1  0
 22 23  2  0
 23 24  1  0
 24 25  2  0
 12 26  1  0
 26 27  1  0
 27 28  1  0
  8  2  1  0
 28 12  1  0
 25 16  1  0
 24 19  1  0
M  END
>  <ref_mols>  (1251) 
B1396a

>  <gnina_score>  (1251) 
5.355

>  <smina_score_min>  (1251) 
-3.714

>  <ref_pdb>  (1251) 
B1396a

>  <inspiration_score>  (1251) 
None

>  <inchikey>  (1251) 
UHQVCWQAKAZENI-UHFFFAOYSA-N

>  <tags>  (1251) 
BulkDock Fragalysis export,openbind_d68ev3c_c2_elabs_scored,openbind_d68ev3c_c2_elabs_scored_4.5plus,openbind_d68ev3c_c2_elabs,openbind_d68ev3c_c2_elabs_scored_5plus,syndirella_product,openbind_d68ev3c_c2_elabs_scored_top80percent,syndirella_placed

>  <smiles>  (1251) 
Cc1cccc(I)c1NC(=O)C1(S(=O)(=O)c2ccc3ccccc3c2)CCC1

>  <subsites>  (1251) 
None

>  <rmsd(smina/fragmenstein)>  (1251) 
2.696

>  <alias>  (1251) 
None

>  <energy_score>  (1251) 
-30.409273

>  <HIPPO Pose ID>  (1251) 
95789

>  <distance_score>  (1251) 
0.292454

>  <HIPPO Compound ID>  (1251) 
129737

>  <gnina_score_min>  (1251) 
5.144

>  <name>  (1251) 
P95789

>  <exports>  (1251) 
['/opt/xchem-fragalysis-2/maxwin/BulkDock/OUTPUTS/openbind_d68ev3c_c2_elabs_1LOTQJ3.sdf', '/opt/xchem-fragalysis-2/maxwin/BulkDock/OUTPUTS/openbind_d68ev3c_c2_elabs_1LSYI5W.sdf']

$$$$
P95790
     RDKit          3D

 28 31  0  0  0  0  0  0  0  0999 V2000
   13.6905   -4.0552   17.4773 C   0  0  0  0  0  0  0  0  0  0  0  0
   13.3968   -2.7216   16.8428 C   0  0  0  0  0  0  0  0  0  0  0  0
   12.1483   -2.5186   16.2241 C   0  0  0  0  0  0  0  0  0  0  0  0
   11.7965   -1.2524   15.7520 C   0  0  0  0  0  0  0  0  0  0  0  0
    9.8490   -0.7730   15.2471 I   0  0  0  0  0  0  0  0  0  0  0  0
   12.7196   -0.2175   15.7591 C   0  0  0  0  0  0  0  0  0  0  0  0
   13.9687   -0.4180   16.3334 C   0  0  0  0  0  0  0  0  0  0  0  0
   14.2947   -1.6416   16.9225 C   0  0  0  0  0  0  0  0  0  0  0  0
   15.4814   -1.7494   17.6440 N   0  0  0  0  0  0  0  0  0  0  0  0
   16.6284   -0.7165   17.8669 C   0  0  0  0  0  0  0  0  0  0  0  0
   16.7855    0.3556   17.4135 O   0  0  0  0  0  0  0  0  0  0  0  0
   17.6351   -1.2709   18.9122 C   0  0  0  0  0  0  0  0  0  0  0  0
   18.5054   -2.6644   18.1680 S   0  0  0  0  0  0  0  0  0  0  0  0
   17.5574   -3.7714   18.1614 O   0  0  0  0  0  0  0  0  0  0  0  0
   19.7930   -2.8369   18.8152 O   0  0  0  0  0  0  0  0  0  0  0  0
   18.8813   -2.3358   16.4565 C   0  0  0  0  0  0  0  0  0  0  0  0
   18.5254   -3.2697   15.4811 C   0  0  0  0  0  0  0  0  0  0  0  0
   18.8214   -3.0097   14.1424 C   0  0  0  0  0  0  0  0  0  0  0  0
   19.4616   -1.8178   13.7682 C   0  0  0  0  0  0  0  0  0  0  0  0
   19.7530   -1.5409   12.4235 C   0  0  0  0  0  0  0  0  0  0  0  0
   20.3937   -0.3548   12.0629 C   0  0  0  0  0  0  0  0  0  0  0  0
   20.7524    0.5679   13.0409 C   0  0  0  0  0  0  0  0  0  0  0  0
   20.4705    0.3080   14.3831 C   0  0  0  0  0  0  0  0  0  0  0  0
   19.8250   -0.8792   14.7638 C   0  0  0  0  0  0  0  0  0  0  0  0
   19.5349   -1.1513   16.1100 C   0  0  0  0  0  0  0  0  0  0  0  0
   18.5615   -0.2323   19.6262 C   0  0  0  0  0  0  0  0  0  0  0  0
   18.3254   -0.9750   20.9502 C   0  0  0  0  0  0  0  0  0  0  0  0
   17.0570   -1.5795   20.3323 C   0  0  0  0  0  0  0  0  0  0  0  0
  1  2  1  0
  2  3  2  0
  3  4  1  0
  4  5  1  0
  4  6  2  0
  6  7  1  0
  7  8  2  0
  8  9  1  0
  9 10  1  0
 10 11  2  0
 10 12  1  0
 12 13  1  0
 13 14  2  0
 13 15  2  0
 13 16  1  0
 16 17  2  0
 17 18  1  0
 18 19  2  0
 19 20  1  0
 20 21  2  0
 21 22  1  0
 22 23  2  0
 23 24  1  0
 24 25  2  0
 12 26  1  0
 26 27  1  0
 27 28  1  0
  8  2  1  0
 28 12  1  0
 25 16  1  0
 24 19  1  0
M  END
>  <ref_mols>  (1252) 
B1396a

>  <gnina_score>  (1252) 
5.534

>  <smina_score_min>  (1252) 
-3.766

>  <ref_pdb>  (1252) 
B1396a

>  <inspiration_score>  (1252) 
None

>  <inchikey>  (1252) 
MZWAEOTZUDHTKN-UHFFFAOYSA-N

>  <tags>  (1252) 
BulkDock Fragalysis export,openbind_d68ev3c_c2_elabs_scored,openbind_d68ev3c_c2_elabs_scored_4.5plus,openbind_d68ev3c_c2_elabs,openbind_d68ev3c_c2_elabs_scored_5plus,syndirella_product,openbind_d68ev3c_c2_elabs_scored_top80percent,syndirella_placed

>  <smiles>  (1252) 
Cc1cc(I)ccc1NC(=O)C1(S(=O)(=O)c2ccc3ccccc3c2)CCC1

>  <subsites>  (1252) 
None

>  <rmsd(smina/fragmenstein)>  (1252) 
2.496

>  <alias>  (1252) 
None

>  <energy_score>  (1252) 
-30.742075

>  <HIPPO Pose ID>  (1252) 
95790

>  <distance_score>  (1252) 
0.657135

>  <HIPPO Compound ID>  (1252) 
129738

>  <gnina_score_min>  (1252) 
5.355

>  <name>  (1252) 
P95790

>  <exports>  (1252) 
['/opt/xchem-fragalysis-2/maxwin/BulkDock/OUTPUTS/openbind_d68ev3c_c2_elabs_1LOTQJ3.sdf', '/opt/xchem-fragalysis-2/maxwin/BulkDock/OUTPUTS/openbind_d68ev3c_c2_elabs_1LSYI5W.sdf']

$$$$
P95791
     RDKit          3D

 28 31  0  0  0  0  0  0  0  0999 V2000
   13.8528   -4.2870   17.6919 C   0  0  0  0  0  0  0  0  0  0  0  0
   13.3845   -3.0919   16.9086 C   0  0  0  0  0  0  0  0  0  0  0  0
   12.1802   -3.1829   16.1966 C   0  0  0  0  0  0  0  0  0  0  0  0
   11.7036   -2.0966   15.4762 C   0  0  0  0  0  0  0  0  0  0  0  0
   10.5278   -2.1955   14.8474 F   0  0  0  0  0  0  0  0  0  0  0  0
   12.4123   -0.9074   15.4310 C   0  0  0  0  0  0  0  0  0  0  0  0
   13.6175   -0.8017   16.1281 C   0  0  0  0  0  0  0  0  0  0  0  0
   14.1028   -1.8826   16.8744 C   0  0  0  0  0  0  0  0  0  0  0  0
   15.2898   -1.7731   17.5968 N   0  0  0  0  0  0  0  0  0  0  0  0
   16.3241   -0.6119   17.6723 C   0  0  0  0  0  0  0  0  0  0  0  0
   16.3763    0.3996   17.0790 O   0  0  0  0  0  0  0  0  0  0  0  0
   17.3868   -0.9445   18.7701 C   0  0  0  0  0  0  0  0  0  0  0  0
   18.3810   -2.3494   18.2047 S   0  0  0  0  0  0  0  0  0  0  0  0
   19.6400   -2.3851   18.9272 O   0  0  0  0  0  0  0  0  0  0  0  0
   17.5023   -3.5111   18.2606 O   0  0  0  0  0  0  0  0  0  0  0  0
   18.8374   -2.1662   16.4921 C   0  0  0  0  0  0  0  0  0  0  0  0
   19.2506   -0.9278   16.0066 C   0  0  0  0  0  0  0  0  0  0  0  0
   19.5849   -0.7986   14.6570 C   0  0  0  0  0  0  0  0  0  0  0  0
   19.5266   -1.9012   13.7900 C   0  0  0  0  0  0  0  0  0  0  0  0
   19.8572   -1.7789   12.4310 C   0  0  0  0  0  0  0  0  0  0  0  0
   19.8115   -2.8868   11.5842 C   0  0  0  0  0  0  0  0  0  0  0  0
   19.4519   -4.1323   12.0888 C   0  0  0  0  0  0  0  0  0  0  0  0
   19.1280   -4.2717   13.4389 C   0  0  0  0  0  0  0  0  0  0  0  0
   19.1362   -3.1624   14.2976 C   0  0  0  0  0  0  0  0  0  0  0  0
   18.7788   -3.2815   15.6493 C   0  0  0  0  0  0  0  0  0  0  0  0
   16.8319   -1.1249   20.2219 C   0  0  0  0  0  0  0  0  0  0  0  0
   18.0318   -0.3293   20.7524 C   0  0  0  0  0  0  0  0  0  0  0  0
   18.2185    0.2490   19.3417 C   0  0  0  0  0  0  0  0  0  0  0  0
  1  2  1  0
  2  3  2  0
  3  4  1  0
  4  5  1  0
  4  6  2  0
  6  7  1  0
  7  8  2  0
  8  9  1  0
  9 10  1  0
 10 11  2  0
 10 12  1  0
 12 13  1  0
 13 14  2  0
 13 15  2  0
 13 16  1  0
 16 17  2  0
 17 18  1  0
 18 19  2  0
 19 20  1  0
 20 21  2  0
 21 22  1  0
 22 23  2  0
 23 24  1  0
 24 25  2  0
 12 26  1  0
 26 27  1  0
 27 28  1  0
  8  2  1  0
 28 12  1  0
 25 16  1  0
 24 19  1  0
M  END
>  <ref_mols>  (1253) 
B1396a

>  <gnina_score>  (1253) 
5.274

>  <smina_score_min>  (1253) 
-3.922

>  <ref_pdb>  (1253) 
B1396a

>  <inspiration_score>  (1253) 
None

>  <inchikey>  (1253) 
YXSNQQBNDVTDGU-UHFFFAOYSA-N

>  <tags>  (1253) 
BulkDock Fragalysis export,openbind_d68ev3c_c2_elabs_scored,openbind_d68ev3c_c2_elabs_scored_4.5plus,openbind_d68ev3c_c2_elabs,openbind_d68ev3c_c2_elabs_scored_5plus,syndirella_product,openbind_d68ev3c_c2_elabs_scored_top80percent,syndirella_placed

>  <smiles>  (1253) 
Cc1cc(F)ccc1NC(=O)C1(S(=O)(=O)c2ccc3ccccc3c2)CCC1

>  <subsites>  (1253) 
None

>  <rmsd(smina/fragmenstein)>  (1253) 
2.535

>  <alias>  (1253) 
None

>  <energy_score>  (1253) 
-40.240077

>  <HIPPO Pose ID>  (1253) 
95791

>  <distance_score>  (1253) 
0.450937

>  <HIPPO Compound ID>  (1253) 
129739

>  <gnina_score_min>  (1253) 
5.172

>  <name>  (1253) 
P95791

>  <exports>  (1253) 
['/opt/xchem-fragalysis-2/maxwin/BulkDock/OUTPUTS/openbind_d68ev3c_c2_elabs_1LOTQJ3.sdf', '/opt/xchem-fragalysis-2/maxwin/BulkDock/OUTPUTS/openbind_d68ev3c_c2_elabs_1LSYI5W.sdf']

$$$$
P95792
     RDKit          3D

 28 31  0  0  0  0  0  0  0  0999 V2000
   13.7455   -3.6044   17.2650 C   0  0  0  0  0  0  0  0  0  0  0  0
   13.4942   -2.2026   16.7623 C   0  0  0  0  0  0  0  0  0  0  0  0
   12.4883   -1.8887   15.8282 C   0  0  0  0  0  0  0  0  0  0  0  0
   11.4772   -3.2586   14.6955 I   0  0  0  0  0  0  0  0  0  0  0  0
   12.1903   -0.5690   15.4722 C   0  0  0  0  0  0  0  0  0  0  0  0
   12.9522    0.4663   15.9722 C   0  0  0  0  0  0  0  0  0  0  0  0
   14.0349    0.1752   16.7911 C   0  0  0  0  0  0  0  0  0  0  0  0
   14.3233   -1.1405   17.1751 C   0  0  0  0  0  0  0  0  0  0  0  0
   15.4902   -1.3839   17.9019 N   0  0  0  0  0  0  0  0  0  0  0  0
   16.6686   -0.4330   18.2732 C   0  0  0  0  0  0  0  0  0  0  0  0
   16.8761    0.6802   17.9595 O   0  0  0  0  0  0  0  0  0  0  0  0
   17.6844   -1.1661   19.2016 C   0  0  0  0  0  0  0  0  0  0  0  0
   18.4000   -2.5696   18.3227 S   0  0  0  0  0  0  0  0  0  0  0  0
   19.6576   -2.9336   18.9497 O   0  0  0  0  0  0  0  0  0  0  0  0
   17.3380   -3.5648   18.2356 O   0  0  0  0  0  0  0  0  0  0  0  0
   18.8305   -2.1980   16.6351 C   0  0  0  0  0  0  0  0  0  0  0  0
   19.2476   -0.9243   16.2619 C   0  0  0  0  0  0  0  0  0  0  0  0
   19.5614   -0.6751   14.9226 C   0  0  0  0  0  0  0  0  0  0  0  0
   19.4828   -1.6922   13.9559 C   0  0  0  0  0  0  0  0  0  0  0  0
   19.7947   -1.4466   12.6090 C   0  0  0  0  0  0  0  0  0  0  0  0
   19.7333   -2.4722   11.6646 C   0  0  0  0  0  0  0  0  0  0  0  0
   19.3772   -3.7582   12.0578 C   0  0  0  0  0  0  0  0  0  0  0  0
   19.0716   -4.0195   13.3940 C   0  0  0  0  0  0  0  0  0  0  0  0
   19.0938   -2.9925   14.3500 C   0  0  0  0  0  0  0  0  0  0  0  0
   18.7540   -3.2306   15.6904 C   0  0  0  0  0  0  0  0  0  0  0  0
   18.7381   -0.2725   19.9462 C   0  0  0  0  0  0  0  0  0  0  0  0
   17.7643   -0.2209   21.1368 C   0  0  0  0  0  0  0  0  0  0  0  0
   17.1694   -1.5463   20.6305 C   0  0  0  0  0  0  0  0  0  0  0  0
  1  2  1  0
  2  3  2  0
  3  4  1  0
  3  5  1  0
  5  6  2  0
  6  7  1  0
  7  8  2  0
  8  9  1  0
  9 10  1  0
 10 11  2  0
 10 12  1  0
 12 13  1  0
 13 14  2  0
 13 15  2  0
 13 16  1  0
 16 17  2  0
 17 18  1  0
 18 19  2  0
 19 20  1  0
 20 21  2  0
 21 22  1  0
 22 23  2  0
 23 24  1  0
 24 25  2  0
 12 26  1  0
 26 27  1  0
 27 28  1  0
  8  2  1  0
 28 12  1  0
 25 16  1  0
 24 19  1  0
M  END
>  <ref_mols>  (1254) 
B1396a

>  <gnina_score>  (1254) 
5.445

>  <smina_score_min>  (1254) 
-3.092

>  <ref_pdb>  (1254) 
B1396a

>  <inspiration_score>  (1254) 
None

>  <inchikey>  (1254) 
IKJMLZVPZQJKKO-UHFFFAOYSA-N

>  <tags>  (1254) 
BulkDock Fragalysis export,openbind_d68ev3c_c2_elabs_scored,openbind_d68ev3c_c2_elabs_scored_4.5plus,openbind_d68ev3c_c2_elabs,openbind_d68ev3c_c2_elabs_scored_5plus,syndirella_product,openbind_d68ev3c_c2_elabs_scored_top80percent,syndirella_placed

>  <smiles>  (1254) 
Cc1c(I)cccc1NC(=O)C1(S(=O)(=O)c2ccc3ccccc3c2)CCC1

>  <subsites>  (1254) 
None

>  <rmsd(smina/fragmenstein)>  (1254) 
1.112

>  <alias>  (1254) 
None

>  <energy_score>  (1254) 
-34.679093

>  <HIPPO Pose ID>  (1254) 
95792

>  <distance_score>  (1254) 
1.060187

>  <HIPPO Compound ID>  (1254) 
129740

>  <gnina_score_min>  (1254) 
5.285

>  <name>  (1254) 
P95792

>  <exports>  (1254) 
['/opt/xchem-fragalysis-2/maxwin/BulkDock/OUTPUTS/openbind_d68ev3c_c2_elabs_1LOTQJ3.sdf', '/opt/xchem-fragalysis-2/maxwin/BulkDock/OUTPUTS/openbind_d68ev3c_c2_elabs_1LSYI5W.sdf']

$$$$
P95794
     RDKit          3D

 28 32  0  0  0  0  0  0  0  0999 V2000
   16.7923   -0.1263   16.3390 O   0  0  0  0  0  0  0  0  0  0  0  0
   16.2728   -0.6865   17.2421 C   0  0  0  0  0  0  0  0  0  0  0  0
   14.8190   -1.0187   17.4787 N   0  0  0  0  0  0  0  0  0  0  0  0
   14.4314   -2.4744   16.8600 C   0  0  0  0  0  0  0  0  0  0  0  0
   13.2507   -1.8646   16.2793 C   0  0  0  0  0  0  0  0  0  0  0  0
   12.1370   -1.9186   15.4878 C   0  0  0  0  0  0  0  0  0  0  0  0
   11.5789   -3.4713   14.6389 Br  0  0  0  0  0  0  0  0  0  0  0  0
   11.4509   -0.7340   15.2039 C   0  0  0  0  0  0  0  0  0  0  0  0
   11.9403    0.4921   15.6763 C   0  0  0  0  0  0  0  0  0  0  0  0
   13.0949    0.5318   16.4544 C   0  0  0  0  0  0  0  0  0  0  0  0
   13.6718   -0.6779   16.7473 C   0  0  0  0  0  0  0  0  0  0  0  0
   17.1228   -1.1030   18.4876 C   0  0  0  0  0  0  0  0  0  0  0  0
   18.1547   -2.5223   18.0436 S   0  0  0  0  0  0  0  0  0  0  0  0
   19.2952   -2.5897   18.9432 O   0  0  0  0  0  0  0  0  0  0  0  0
   17.2678   -3.6734   17.9530 O   0  0  0  0  0  0  0  0  0  0  0  0
   18.8739   -2.3355   16.4227 C   0  0  0  0  0  0  0  0  0  0  0  0
   19.5494   -1.1601   16.0988 C   0  0  0  0  0  0  0  0  0  0  0  0
   20.0527   -0.9940   14.8077 C   0  0  0  0  0  0  0  0  0  0  0  0
   19.9228   -2.0105   13.8478 C   0  0  0  0  0  0  0  0  0  0  0  0
   20.4290   -1.8520   12.5478 C   0  0  0  0  0  0  0  0  0  0  0  0
   20.3252   -2.8816   11.6117 C   0  0  0  0  0  0  0  0  0  0  0  0
   19.7308   -4.0872   11.9690 C   0  0  0  0  0  0  0  0  0  0  0  0
   19.2270   -4.2616   13.2585 C   0  0  0  0  0  0  0  0  0  0  0  0
   19.2894   -3.2248   14.2025 C   0  0  0  0  0  0  0  0  0  0  0  0
   18.7536   -3.3724   15.4913 C   0  0  0  0  0  0  0  0  0  0  0  0
   16.4388   -1.2866   19.8865 C   0  0  0  0  0  0  0  0  0  0  0  0
   16.7477    0.1943   20.1660 C   0  0  0  0  0  0  0  0  0  0  0  0
   17.9115    0.0746   19.1655 C   0  0  0  0  0  0  0  0  0  0  0  0
  1  2  2  0
  2  3  1  0
  3  4  1  0
  4  5  1  0
  5  6  2  0
  6  7  1  0
  6  8  1  0
  8  9  2  0
  9 10  1  0
 10 11  2  0
  2 12  1  0
 12 13  1  0
 13 14  2  0
 13 15  2  0
 13 16  1  0
 16 17  2  0
 17 18  1  0
 18 19  2  0
 19 20  1  0
 20 21  2  0
 21 22  1  0
 22 23  2  0
 23 24  1  0
 24 25  2  0
 12 26  1  0
 26 27  1  0
 27 28  1  0
 11  3  1  0
 28 12  1  0
 11  5  1  0
 25 16  1  0
 24 19  1  0
M  END
>  <ref_mols>  (1255) 
B1396a

>  <gnina_score>  (1255) 
5.26

>  <smina_score_min>  (1255) 
-3.128

>  <ref_pdb>  (1255) 
B1396a

>  <inspiration_score>  (1255) 
None

>  <inchikey>  (1255) 
IIYCSNQITSNCSA-UHFFFAOYSA-N

>  <tags>  (1255) 
BulkDock Fragalysis export,openbind_d68ev3c_c2_elabs_scored,openbind_d68ev3c_c2_elabs_scored_4.5plus,openbind_d68ev3c_c2_elabs,openbind_d68ev3c_c2_elabs_scored_5plus,syndirella_product,openbind_d68ev3c_c2_elabs_scored_top80percent,syndirella_placed

>  <smiles>  (1255) 
O=C(N1Cc2c(Br)cccc21)C1(S(=O)(=O)c2ccc3ccccc3c2)CCC1

>  <subsites>  (1255) 
None

>  <rmsd(smina/fragmenstein)>  (1255) 
0.6

>  <alias>  (1255) 
None

>  <energy_score>  (1255) 
-17.22444

>  <HIPPO Pose ID>  (1255) 
95794

>  <distance_score>  (1255) 
0.9755

>  <HIPPO Compound ID>  (1255) 
129742

>  <gnina_score_min>  (1255) 
5.237

>  <name>  (1255) 
P95794

>  <exports>  (1255) 
['/opt/xchem-fragalysis-2/maxwin/BulkDock/OUTPUTS/openbind_d68ev3c_c2_elabs_1LOTQJ3.sdf', '/opt/xchem-fragalysis-2/maxwin/BulkDock/OUTPUTS/openbind_d68ev3c_c2_elabs_1LSYI5W.sdf']

$$$$
P95795
     RDKit          3D

 28 31  0  0  0  0  0  0  0  0999 V2000
   13.6869   -4.2042   17.6297 C   0  0  0  0  0  0  0  0  0  0  0  0
   13.2840   -3.0036   16.8164 C   0  0  0  0  0  0  0  0  0  0  0  0
   12.1308   -3.0833   16.0138 C   0  0  0  0  0  0  0  0  0  0  0  0
   11.7176   -1.9971   15.2464 C   0  0  0  0  0  0  0  0  0  0  0  0
   12.4612   -0.8276   15.2783 C   0  0  0  0  0  0  0  0  0  0  0  0
   12.0637    0.2240   14.5502 F   0  0  0  0  0  0  0  0  0  0  0  0
   13.6102   -0.7249   16.0567 C   0  0  0  0  0  0  0  0  0  0  0  0
   14.0265   -1.8080   16.8334 C   0  0  0  0  0  0  0  0  0  0  0  0
   15.1646   -1.7096   17.6366 N   0  0  0  0  0  0  0  0  0  0  0  0
   16.2214   -0.5717   17.7588 C   0  0  0  0  0  0  0  0  0  0  0  0
   16.2559    0.4909   17.2603 O   0  0  0  0  0  0  0  0  0  0  0  0
   17.3128   -0.9758   18.8118 C   0  0  0  0  0  0  0  0  0  0  0  0
   18.2554   -2.3877   18.1968 S   0  0  0  0  0  0  0  0  0  0  0  0
   17.3416   -3.5226   18.2087 O   0  0  0  0  0  0  0  0  0  0  0  0
   19.5067   -2.4914   18.9271 O   0  0  0  0  0  0  0  0  0  0  0  0
   18.7359   -2.1622   16.4981 C   0  0  0  0  0  0  0  0  0  0  0  0
   19.1489   -0.9118   16.0452 C   0  0  0  0  0  0  0  0  0  0  0  0
   19.5122   -0.7558   14.7058 C   0  0  0  0  0  0  0  0  0  0  0  0
   19.4835   -1.8431   13.8177 C   0  0  0  0  0  0  0  0  0  0  0  0
   19.8440   -1.6930   12.4691 C   0  0  0  0  0  0  0  0  0  0  0  0
   19.8292   -2.7860   11.6018 C   0  0  0  0  0  0  0  0  0  0  0  0
   19.4709   -4.0438   12.0756 C   0  0  0  0  0  0  0  0  0  0  0  0
   19.1174   -4.2107   13.4151 C   0  0  0  0  0  0  0  0  0  0  0  0
   19.0941   -3.1168   14.2934 C   0  0  0  0  0  0  0  0  0  0  0  0
   18.7071   -3.2629   15.6342 C   0  0  0  0  0  0  0  0  0  0  0  0
   16.8179   -1.1789   20.2852 C   0  0  0  0  0  0  0  0  0  0  0  0
   17.1951    0.2872   20.5557 C   0  0  0  0  0  0  0  0  0  0  0  0
   18.1979    0.1820   19.3937 C   0  0  0  0  0  0  0  0  0  0  0  0
  1  2  1  0
  2  3  2  0
  3  4  1  0
  4  5  2  0
  5  6  1  0
  5  7  1  0
  7  8  2  0
  8  9  1  0
  9 10  1  0
 10 11  2  0
 10 12  1  0
 12 13  1  0
 13 14  2  0
 13 15  2  0
 13 16  1  0
 16 17  2  0
 17 18  1  0
 18 19  2  0
 19 20  1  0
 20 21  2  0
 21 22  1  0
 22 23  2  0
 23 24  1  0
 24 25  2  0
 12 26  1  0
 26 27  1  0
 27 28  1  0
  8  2  1  0
 28 12  1  0
 25 16  1  0
 24 19  1  0
M  END
>  <ref_mols>  (1256) 
B1396a

>  <gnina_score>  (1256) 
5.258

>  <smina_score_min>  (1256) 
-4.052

>  <ref_pdb>  (1256) 
B1396a

>  <inspiration_score>  (1256) 
None

>  <inchikey>  (1256) 
DGMLTBOXJOOUAF-UHFFFAOYSA-N

>  <tags>  (1256) 
BulkDock Fragalysis export,openbind_d68ev3c_c2_elabs_scored,openbind_d68ev3c_c2_elabs_scored_4.5plus,openbind_d68ev3c_c2_elabs,openbind_d68ev3c_c2_elabs_scored_5plus,syndirella_product,openbind_d68ev3c_c2_elabs_scored_top80percent,syndirella_placed

>  <smiles>  (1256) 
Cc1ccc(F)cc1NC(=O)C1(S(=O)(=O)c2ccc3ccccc3c2)CCC1

>  <subsites>  (1256) 
None

>  <rmsd(smina/fragmenstein)>  (1256) 
2.077

>  <alias>  (1256) 
None

>  <energy_score>  (1256) 
-22.018879

>  <HIPPO Pose ID>  (1256) 
95795

>  <distance_score>  (1256) 
0.481694

>  <HIPPO Compound ID>  (1256) 
129743

>  <gnina_score_min>  (1256) 
5.107

>  <name>  (1256) 
P95795

>  <exports>  (1256) 
['/opt/xchem-fragalysis-2/maxwin/BulkDock/OUTPUTS/openbind_d68ev3c_c2_elabs_1LOTQJ3.sdf', '/opt/xchem-fragalysis-2/maxwin/BulkDock/OUTPUTS/openbind_d68ev3c_c2_elabs_1LSYI5W.sdf']

$$$$
P95796
     RDKit          3D

 28 30  0  0  0  0  0  0  0  0999 V2000
   12.3889    1.9795   15.1741 C   0  0  0  0  0  0  0  0  0  0  0  0
   11.6811    0.5233   14.3550 S   0  0  0  0  0  0  0  0  0  0  0  0
   12.3687   -0.8257   15.3092 C   0  0  0  0  0  0  0  0  0  0  0  0
   11.6575   -2.0266   15.3214 C   0  0  0  0  0  0  0  0  0  0  0  0
   12.1225   -3.1146   16.0613 C   0  0  0  0  0  0  0  0  0  0  0  0
   13.3118   -3.0331   16.7998 C   0  0  0  0  0  0  0  0  0  0  0  0
   13.7454   -4.2209   17.6143 C   0  0  0  0  0  0  0  0  0  0  0  0
   14.0485   -1.8400   16.7620 C   0  0  0  0  0  0  0  0  0  0  0  0
   15.2444   -1.7413   17.4775 N   0  0  0  0  0  0  0  0  0  0  0  0
   16.2735   -0.5679   17.5777 C   0  0  0  0  0  0  0  0  0  0  0  0
   16.3101    0.4600   17.0145 O   0  0  0  0  0  0  0  0  0  0  0  0
   17.3109   -0.9001   18.6757 C   0  0  0  0  0  0  0  0  0  0  0  0
   18.2297   -2.3597   18.2013 S   0  0  0  0  0  0  0  0  0  0  0  0
   19.4806   -2.3969   18.9354 O   0  0  0  0  0  0  0  0  0  0  0  0
   17.2811   -3.4534   18.3542 O   0  0  0  0  0  0  0  0  0  0  0  0
   18.6773   -2.2543   16.4698 C   0  0  0  0  0  0  0  0  0  0  0  0
   19.2944   -1.0735   16.0281 C   0  0  0  0  0  0  0  0  0  0  0  0
   19.6389   -0.8979   14.6823 C   0  0  0  0  0  0  0  0  0  0  0  0
   20.3106    0.3641   14.2266 C   0  0  0  0  0  0  0  0  0  0  0  0
   19.4044   -1.9371   13.7835 C   0  0  0  0  0  0  0  0  0  0  0  0
   18.8433   -3.1360   14.2239 C   0  0  0  0  0  0  0  0  0  0  0  0
   18.4881   -3.3250   15.5719 C   0  0  0  0  0  0  0  0  0  0  0  0
   17.9693   -4.6796   15.9684 C   0  0  0  0  0  0  0  0  0  0  0  0
   16.6352   -1.1115   20.0481 C   0  0  0  0  0  0  0  0  0  0  0  0
   16.3217    0.2932   20.5383 C   0  0  0  0  0  0  0  0  0  0  0  0
   17.4711    1.1520   20.0339 C   0  0  0  0  0  0  0  0  0  0  0  0
   18.2142    0.3147   18.9880 C   0  0  0  0  0  0  0  0  0  0  0  0
   13.5749   -0.7517   16.0162 C   0  0  0  0  0  0  0  0  0  0  0  0
  1  2  1  0
  2  3  1  0
  3  4  2  0
  4  5  1  0
  5  6  2  0
  6  7  1  0
  6  8  1  0
  8  9  1  0
  9 10  1  0
 10 11  2  0
 10 12  1  0
 12 13  1  0
 13 14  2  0
 13 15  2  0
 13 16  1  0
 16 17  2  0
 17 18  1  0
 18 19  1  0
 18 20  2  0
 20 21  1  0
 21 22  2  0
 22 23  1  0
 12 24  1  0
 24 25  1  0
 25 26  1  0
 26 27  1  0
  8 28  2  0
 28  3  1  0
 27 12  1  0
 22 16  1  0
M  END
>  <ref_mols>  (1257) 
B1396a

>  <gnina_score>  (1257) 
5.284

>  <smina_score_min>  (1257) 
-4.096

>  <ref_pdb>  (1257) 
B1396a

>  <inspiration_score>  (1257) 
None

>  <inchikey>  (1257) 
DBWKMUPRPDAFRN-UHFFFAOYSA-N

>  <tags>  (1257) 
BulkDock Fragalysis export,openbind_d68ev3c_c2_elabs_scored,openbind_d68ev3c_c2_elabs_scored_4.5plus,openbind_d68ev3c_c2_elabs,openbind_d68ev3c_c2_elabs_scored_5plus,syndirella_product,openbind_d68ev3c_c2_elabs_scored_top80percent,syndirella_placed

>  <smiles>  (1257) 
CSc1ccc(C)c(NC(=O)C2(S(=O)(=O)c3cc(C)ccc3C)CCCC2)c1

>  <subsites>  (1257) 
None

>  <rmsd(smina/fragmenstein)>  (1257) 
1.338

>  <alias>  (1257) 
None

>  <energy_score>  (1257) 
-71.496577

>  <HIPPO Pose ID>  (1257) 
95796

>  <distance_score>  (1257) 
0.396461

>  <HIPPO Compound ID>  (1257) 
129744

>  <gnina_score_min>  (1257) 
5.374

>  <name>  (1257) 
P95796

>  <exports>  (1257) 
['/opt/xchem-fragalysis-2/maxwin/BulkDock/OUTPUTS/openbind_d68ev3c_c2_elabs_1LOTQJ3.sdf', '/opt/xchem-fragalysis-2/maxwin/BulkDock/OUTPUTS/openbind_d68ev3c_c2_elabs_1LSYI5W.sdf']

$$$$
P95797
     RDKit          3D

 28 30  0  0  0  0  0  0  0  0999 V2000
   14.0713   -5.0724   20.5373 C   0  0  0  0  0  0  0  0  0  0  0  0
   14.1753   -3.5203   19.6284 S   0  0  0  0  0  0  0  0  0  0  0  0
   13.8826   -4.1342   17.9328 C   0  0  0  0  0  0  0  0  0  0  0  0
   13.4397   -3.0411   16.9768 C   0  0  0  0  0  0  0  0  0  0  0  0
   12.2410   -3.2248   16.2593 C   0  0  0  0  0  0  0  0  0  0  0  0
   11.7768   -2.2648   15.3598 C   0  0  0  0  0  0  0  0  0  0  0  0
   12.5118   -1.1040   15.1563 C   0  0  0  0  0  0  0  0  0  0  0  0
   13.7174   -0.9132   15.8348 C   0  0  0  0  0  0  0  0  0  0  0  0
   14.1912   -1.8741   16.7338 C   0  0  0  0  0  0  0  0  0  0  0  0
   15.3927   -1.6772   17.4144 N   0  0  0  0  0  0  0  0  0  0  0  0
   16.4471   -0.5294   17.3000 C   0  0  0  0  0  0  0  0  0  0  0  0
   16.5017    0.3802   16.5631 O   0  0  0  0  0  0  0  0  0  0  0  0
   17.5009   -0.7211   18.4169 C   0  0  0  0  0  0  0  0  0  0  0  0
   18.4095   -2.2402   18.0769 S   0  0  0  0  0  0  0  0  0  0  0  0
   17.4707   -3.3260   18.3138 O   0  0  0  0  0  0  0  0  0  0  0  0
   19.6622   -2.2228   18.8096 O   0  0  0  0  0  0  0  0  0  0  0  0
   18.8484   -2.2614   16.3364 C   0  0  0  0  0  0  0  0  0  0  0  0
   19.5178   -1.1374   15.8252 C   0  0  0  0  0  0  0  0  0  0  0  0
   19.8586   -1.0519   14.4706 C   0  0  0  0  0  0  0  0  0  0  0  0
   20.5211    0.1802   13.9282 C   0  0  0  0  0  0  0  0  0  0  0  0
   19.5246   -2.1065   13.6234 C   0  0  0  0  0  0  0  0  0  0  0  0
   18.9114   -3.2514   14.1328 C   0  0  0  0  0  0  0  0  0  0  0  0
   18.5803   -3.3606   15.4958 C   0  0  0  0  0  0  0  0  0  0  0  0
   17.9890   -4.6613   15.9629 C   0  0  0  0  0  0  0  0  0  0  0  0
   16.8213   -0.7828   19.8160 C   0  0  0  0  0  0  0  0  0  0  0  0
   17.5422    0.2293   20.6958 C   0  0  0  0  0  0  0  0  0  0  0  0
   17.9403    1.3117   19.7190 C   0  0  0  0  0  0  0  0  0  0  0  0
   18.4444    0.5111   18.5271 C   0  0  0  0  0  0  0  0  0  0  0  0
  1  2  1  0
  2  3  1  0
  3  4  1  0
  4  5  2  0
  5  6  1  0
  6  7  2  0
  7  8  1  0
  8  9  2  0
  9 10  1  0
 10 11  1  0
 11 12  2  0
 11 13  1  0
 13 14  1  0
 14 15  2  0
 14 16  2  0
 14 17  1  0
 17 18  2  0
 18 19  1  0
 19 20  1  0
 19 21  2  0
 21 22  1  0
 22 23  2  0
 23 24  1  0
 13 25  1  0
 25 26  1  0
 26 27  1  0
 27 28  1  0
  9  4  1  0
 28 13  1  0
 23 17  1  0
M  END
>  <ref_mols>  (1258) 
B1396a

>  <gnina_score>  (1258) 
5.172

>  <smina_score_min>  (1258) 
-3.133

>  <ref_pdb>  (1258) 
B1396a

>  <inspiration_score>  (1258) 
None

>  <inchikey>  (1258) 
MQCBSNXRFMPIHG-UHFFFAOYSA-N

>  <tags>  (1258) 
BulkDock Fragalysis export,openbind_d68ev3c_c2_elabs_scored,openbind_d68ev3c_c2_elabs_scored_4.5plus,openbind_d68ev3c_c2_elabs,openbind_d68ev3c_c2_elabs_scored_5plus,syndirella_product,openbind_d68ev3c_c2_elabs_scored_top80percent,syndirella_placed

>  <smiles>  (1258) 
CSCc1ccccc1NC(=O)C1(S(=O)(=O)c2cc(C)ccc2C)CCCC1

>  <subsites>  (1258) 
None

>  <rmsd(smina/fragmenstein)>  (1258) 
1.734

>  <alias>  (1258) 
None

>  <energy_score>  (1258) 
-60.596251

>  <HIPPO Pose ID>  (1258) 
95797

>  <distance_score>  (1258) 
0.44439

>  <HIPPO Compound ID>  (1258) 
129745

>  <gnina_score_min>  (1258) 
5.11

>  <name>  (1258) 
P95797

>  <exports>  (1258) 
['/opt/xchem-fragalysis-2/maxwin/BulkDock/OUTPUTS/openbind_d68ev3c_c2_elabs_1LOTQJ3.sdf', '/opt/xchem-fragalysis-2/maxwin/BulkDock/OUTPUTS/openbind_d68ev3c_c2_elabs_1LSYI5W.sdf']

$$$$
P95798
     RDKit          3D

 28 31  0  0  0  0  0  0  0  0999 V2000
   20.5458    0.2299   14.2946 C   0  0  0  0  0  0  0  0  0  0  0  0
   19.8717   -1.0296   14.7520 C   0  0  0  0  0  0  0  0  0  0  0  0
   19.6133   -2.0626   13.8528 C   0  0  0  0  0  0  0  0  0  0  0  0
   19.0435   -3.2567   14.2968 C   0  0  0  0  0  0  0  0  0  0  0  0
   18.6987   -3.4489   15.6489 C   0  0  0  0  0  0  0  0  0  0  0  0
   18.2084   -4.8152   16.0408 C   0  0  0  0  0  0  0  0  0  0  0  0
   18.8996   -2.3782   16.5459 C   0  0  0  0  0  0  0  0  0  0  0  0
   18.4547   -2.4371   18.2922 S   0  0  0  0  0  0  0  0  0  0  0  0
   17.8516   -3.7338   18.5453 O   0  0  0  0  0  0  0  0  0  0  0  0
   19.6745   -2.0999   19.0076 O   0  0  0  0  0  0  0  0  0  0  0  0
   17.1900   -1.1766   18.6551 C   0  0  0  0  0  0  0  0  0  0  0  0
   16.3145   -0.9891   17.4076 C   0  0  0  0  0  0  0  0  0  0  0  0
   16.7467   -0.4196   16.4701 O   0  0  0  0  0  0  0  0  0  0  0  0
   14.9494   -1.6228   17.6306 N   0  0  0  0  0  0  0  0  0  0  0  0
   14.9379   -3.1391   17.1758 C   0  0  0  0  0  0  0  0  0  0  0  0
   13.6021   -3.8307   17.3512 C   0  0  0  0  0  0  0  0  0  0  0  0
   12.9567   -2.7479   16.6343 C   0  0  0  0  0  0  0  0  0  0  0  0
   11.8561   -2.7482   15.8062 C   0  0  0  0  0  0  0  0  0  0  0  0
   11.2022   -3.8810   15.5589 F   0  0  0  0  0  0  0  0  0  0  0  0
   11.4601   -1.5799   15.1719 C   0  0  0  0  0  0  0  0  0  0  0  0
   12.2093   -0.4169   15.3514 C   0  0  0  0  0  0  0  0  0  0  0  0
   13.3577   -0.4402   16.1506 C   0  0  0  0  0  0  0  0  0  0  0  0
   13.7426   -1.6236   16.7849 C   0  0  0  0  0  0  0  0  0  0  0  0
   16.4255   -1.5195   19.9527 C   0  0  0  0  0  0  0  0  0  0  0  0
   17.3252   -1.0277   21.0730 C   0  0  0  0  0  0  0  0  0  0  0  0
   17.8479    0.2964   20.5514 C   0  0  0  0  0  0  0  0  0  0  0  0
   17.8439    0.1843   19.0238 C   0  0  0  0  0  0  0  0  0  0  0  0
   19.5377   -1.2059   16.0999 C   0  0  0  0  0  0  0  0  0  0  0  0
  1  2  1  0
  2  3  2  0
  3  4  1  0
  4  5  2  0
  5  6  1  0
  5  7  1  0
  7  8  1  0
  8  9  2  0
  8 10  2  0
  8 11  1  0
 11 12  1  0
 12 13  2  0
 12 14  1  0
 14 15  1  0
 15 16  1  0
 16 17  1  0
 17 18  2  0
 18 19  1  0
 18 20  1  0
 20 21  2  0
 21 22  1  0
 22 23  2  0
 11 24  1  0
 24 25  1  0
 25 26  1  0
 26 27  1  0
  7 28  2  0
 28  2  1  0
 27 11  1  0
 23 14  1  0
 23 17  1  0
M  END
>  <ref_mols>  (1259) 
B1396a

>  <gnina_score>  (1259) 
5.294

>  <smina_score_min>  (1259) 
-4.746

>  <ref_pdb>  (1259) 
B1396a

>  <inspiration_score>  (1259) 
None

>  <inchikey>  (1259) 
JARQVSJSVBBCJP-UHFFFAOYSA-N

>  <tags>  (1259) 
BulkDock Fragalysis export,openbind_d68ev3c_c2_elabs_scored,openbind_d68ev3c_c2_elabs_scored_4.5plus,openbind_d68ev3c_c2_elabs,openbind_d68ev3c_c2_elabs_scored_5plus,syndirella_product,openbind_d68ev3c_c2_elabs_scored_top80percent,syndirella_placed

>  <smiles>  (1259) 
Cc1ccc(C)c(S(=O)(=O)C2(C(=O)N3CCc4c(F)cccc43)CCCC2)c1

>  <subsites>  (1259) 
None

>  <rmsd(smina/fragmenstein)>  (1259) 
2.774

>  <alias>  (1259) 
None

>  <energy_score>  (1259) 
-0.015277

>  <HIPPO Pose ID>  (1259) 
95798

>  <distance_score>  (1259) 
0.42052

>  <HIPPO Compound ID>  (1259) 
129746

>  <gnina_score_min>  (1259) 
5.108

>  <name>  (1259) 
P95798

>  <exports>  (1259) 
['/opt/xchem-fragalysis-2/maxwin/BulkDock/OUTPUTS/openbind_d68ev3c_c2_elabs_1LOTQJ3.sdf', '/opt/xchem-fragalysis-2/maxwin/BulkDock/OUTPUTS/openbind_d68ev3c_c2_elabs_1LSYI5W.sdf']

$$$$
P95799
     RDKit          3D

 28 31  0  0  0  0  0  0  0  0999 V2000
   13.7387   -4.1259   17.5463 C   0  0  0  0  0  0  0  0  0  0  0  0
   13.2263   -2.9310   16.7798 C   0  0  0  0  0  0  0  0  0  0  0  0
   12.0722   -3.0979   15.9933 C   0  0  0  0  0  0  0  0  0  0  0  0
   11.5425   -2.0432   15.2607 C   0  0  0  0  0  0  0  0  0  0  0  0
   12.1416   -0.7935   15.3396 C   0  0  0  0  0  0  0  0  0  0  0  0
   13.2905   -0.5974   16.1212 C   0  0  0  0  0  0  0  0  0  0  0  0
   13.7591    1.0542   16.3153 Cl  0  0  0  0  0  0  0  0  0  0  0  0
   13.8784   -1.6745   16.8136 C   0  0  0  0  0  0  0  0  0  0  0  0
   15.0754   -1.6114   17.5513 N   0  0  0  0  0  0  0  0  0  0  0  0
   16.2727   -0.6173   17.4556 C   0  0  0  0  0  0  0  0  0  0  0  0
   16.4790    0.2535   16.6961 O   0  0  0  0  0  0  0  0  0  0  0  0
   17.2876   -0.9034   18.6092 C   0  0  0  0  0  0  0  0  0  0  0  0
   18.2401   -2.3676   18.1523 S   0  0  0  0  0  0  0  0  0  0  0  0
   17.3221   -3.4970   18.2206 O   0  0  0  0  0  0  0  0  0  0  0  0
   19.4653   -2.4203   18.9316 O   0  0  0  0  0  0  0  0  0  0  0  0
   18.7661   -2.2446   16.4543 C   0  0  0  0  0  0  0  0  0  0  0  0
   18.4331   -3.2501   15.5458 C   0  0  0  0  0  0  0  0  0  0  0  0
   18.8477   -3.1354   14.2177 C   0  0  0  0  0  0  0  0  0  0  0  0
   19.5836   -2.0191   13.7877 C   0  0  0  0  0  0  0  0  0  0  0  0
   19.9921   -1.8884   12.4512 C   0  0  0  0  0  0  0  0  0  0  0  0
   20.7276   -0.7774   12.0361 C   0  0  0  0  0  0  0  0  0  0  0  0
   21.0658    0.2151   12.9512 C   0  0  0  0  0  0  0  0  0  0  0  0
   20.6681    0.1005   14.2842 C   0  0  0  0  0  0  0  0  0  0  0  0
   19.9256   -1.0092   14.7182 C   0  0  0  0  0  0  0  0  0  0  0  0
   19.5178   -1.1362   16.0549 C   0  0  0  0  0  0  0  0  0  0  0  0
   16.7439   -0.9512   20.0753 C   0  0  0  0  0  0  0  0  0  0  0  0
   17.1124    0.5373   20.1987 C   0  0  0  0  0  0  0  0  0  0  0  0
   18.1584    0.3064   19.0946 C   0  0  0  0  0  0  0  0  0  0  0  0
  1  2  1  0
  2  3  2  0
  3  4  1  0
  4  5  2  0
  5  6  1  0
  6  7  1  0
  6  8  2  0
  8  9  1  0
  9 10  1  0
 10 11  2  0
 10 12  1  0
 12 13  1  0
 13 14  2  0
 13 15  2  0
 13 16  1  0
 16 17  2  0
 17 18  1  0
 18 19  2  0
 19 20  1  0
 20 21  2  0
 21 22  1  0
 22 23  2  0
 23 24  1  0
 24 25  2  0
 12 26  1  0
 26 27  1  0
 27 28  1  0
  8  2  1  0
 28 12  1  0
 25 16  1  0
 24 19  1  0
M  END
>  <ref_mols>  (1260) 
B1396a

>  <gnina_score>  (1260) 
5.37

>  <smina_score_min>  (1260) 
-3.955

>  <ref_pdb>  (1260) 
B1396a

>  <inspiration_score>  (1260) 
None

>  <inchikey>  (1260) 
AIEOQCXPLDWNCB-UHFFFAOYSA-N

>  <tags>  (1260) 
BulkDock Fragalysis export,openbind_d68ev3c_c2_elabs_scored,openbind_d68ev3c_c2_elabs_scored_4.5plus,openbind_d68ev3c_c2_elabs,openbind_d68ev3c_c2_elabs_scored_5plus,syndirella_product,openbind_d68ev3c_c2_elabs_scored_top80percent,syndirella_placed

>  <smiles>  (1260) 
Cc1cccc(Cl)c1NC(=O)C1(S(=O)(=O)c2ccc3ccccc3c2)CCC1

>  <subsites>  (1260) 
None

>  <rmsd(smina/fragmenstein)>  (1260) 
2.886

>  <alias>  (1260) 
None

>  <energy_score>  (1260) 
-36.715938

>  <HIPPO Pose ID>  (1260) 
95799

>  <distance_score>  (1260) 
0.302819

>  <HIPPO Compound ID>  (1260) 
129747

>  <gnina_score_min>  (1260) 
5.175

>  <name>  (1260) 
P95799

>  <exports>  (1260) 
['/opt/xchem-fragalysis-2/maxwin/BulkDock/OUTPUTS/openbind_d68ev3c_c2_elabs_1LOTQJ3.sdf', '/opt/xchem-fragalysis-2/maxwin/BulkDock/OUTPUTS/openbind_d68ev3c_c2_elabs_1LSYI5W.sdf']

$$$$
P95800
     RDKit          3D

 28 31  0  0  0  0  0  0  0  0999 V2000
   13.6119   -3.7300   17.2885 C   0  0  0  0  0  0  0  0  0  0  0  0
   13.3722   -2.3644   16.6928 C   0  0  0  0  0  0  0  0  0  0  0  0
   12.3751   -2.1205   15.7274 C   0  0  0  0  0  0  0  0  0  0  0  0
   11.3982   -3.4648   14.8599 Br  0  0  0  0  0  0  0  0  0  0  0  0
   12.0949   -0.8361   15.2550 C   0  0  0  0  0  0  0  0  0  0  0  0
   12.8523    0.2338   15.6874 C   0  0  0  0  0  0  0  0  0  0  0  0
   13.9094    0.0091   16.5616 C   0  0  0  0  0  0  0  0  0  0  0  0
   14.1856   -1.2727   17.0561 C   0  0  0  0  0  0  0  0  0  0  0  0
   15.3016   -1.4425   17.8810 N   0  0  0  0  0  0  0  0  0  0  0  0
   16.5045   -0.4914   18.1660 C   0  0  0  0  0  0  0  0  0  0  0  0
   16.7033    0.6113   17.8120 O   0  0  0  0  0  0  0  0  0  0  0  0
   17.5153   -1.1779   19.1293 C   0  0  0  0  0  0  0  0  0  0  0  0
   18.3048   -2.5663   18.2810 S   0  0  0  0  0  0  0  0  0  0  0  0
   19.5653   -2.8734   18.9329 O   0  0  0  0  0  0  0  0  0  0  0  0
   17.2846   -3.6026   18.1827 O   0  0  0  0  0  0  0  0  0  0  0  0
   18.7555   -2.1944   16.5981 C   0  0  0  0  0  0  0  0  0  0  0  0
   19.1678   -0.9176   16.2299 C   0  0  0  0  0  0  0  0  0  0  0  0
   19.5077   -0.6687   14.8971 C   0  0  0  0  0  0  0  0  0  0  0  0
   19.4586   -1.6887   13.9318 C   0  0  0  0  0  0  0  0  0  0  0  0
   19.7963   -1.4432   12.5912 C   0  0  0  0  0  0  0  0  0  0  0  0
   19.7633   -2.4711   11.6480 C   0  0  0  0  0  0  0  0  0  0  0  0
   19.4099   -3.7592   12.0365 C   0  0  0  0  0  0  0  0  0  0  0  0
   19.0790   -4.0206   13.3667 C   0  0  0  0  0  0  0  0  0  0  0  0
   19.0733   -2.9917   14.3210 C   0  0  0  0  0  0  0  0  0  0  0  0
   18.7090   -3.2301   15.6549 C   0  0  0  0  0  0  0  0  0  0  0  0
   18.5167   -0.2396   19.8836 C   0  0  0  0  0  0  0  0  0  0  0  0
   18.2686   -1.0483   21.1658 C   0  0  0  0  0  0  0  0  0  0  0  0
   16.9596   -1.5533   20.5433 C   0  0  0  0  0  0  0  0  0  0  0  0
  1  2  1  0
  2  3  2  0
  3  4  1  0
  3  5  1  0
  5  6  2  0
  6  7  1  0
  7  8  2  0
  8  9  1  0
  9 10  1  0
 10 11  2  0
 10 12  1  0
 12 13  1  0
 13 14  2  0
 13 15  2  0
 13 16  1  0
 16 17  2  0
 17 18  1  0
 18 19  2  0
 19 20  1  0
 20 21  2  0
 21 22  1  0
 22 23  2  0
 23 24  1  0
 24 25  2  0
 12 26  1  0
 26 27  1  0
 27 28  1  0
  8  2  1  0
 28 12  1  0
 25 16  1  0
 24 19  1  0
M  END
>  <ref_mols>  (1261) 
B1396a

>  <gnina_score>  (1261) 
5.348

>  <smina_score_min>  (1261) 
-3.506

>  <ref_pdb>  (1261) 
B1396a

>  <inspiration_score>  (1261) 
None

>  <inchikey>  (1261) 
DKWYDWGNYYIJTG-UHFFFAOYSA-N

>  <tags>  (1261) 
BulkDock Fragalysis export,openbind_d68ev3c_c2_elabs_scored,openbind_d68ev3c_c2_elabs_scored_4.5plus,openbind_d68ev3c_c2_elabs,openbind_d68ev3c_c2_elabs_scored_5plus,syndirella_product,openbind_d68ev3c_c2_elabs_scored_top80percent,syndirella_placed

>  <smiles>  (1261) 
Cc1c(Br)cccc1NC(=O)C1(S(=O)(=O)c2ccc3ccccc3c2)CCC1

>  <subsites>  (1261) 
None

>  <rmsd(smina/fragmenstein)>  (1261) 
1.44

>  <alias>  (1261) 
None

>  <energy_score>  (1261) 
-36.533621

>  <HIPPO Pose ID>  (1261) 
95800

>  <distance_score>  (1261) 
0.909991

>  <HIPPO Compound ID>  (1261) 
129748

>  <gnina_score_min>  (1261) 
5.225

>  <name>  (1261) 
P95800

>  <exports>  (1261) 
['/opt/xchem-fragalysis-2/maxwin/BulkDock/OUTPUTS/openbind_d68ev3c_c2_elabs_1LOTQJ3.sdf', '/opt/xchem-fragalysis-2/maxwin/BulkDock/OUTPUTS/openbind_d68ev3c_c2_elabs_1LSYI5W.sdf']

$$$$
P95801
     RDKit          3D

 28 31  0  0  0  0  0  0  0  0999 V2000
   13.5619   -3.8181   17.2845 C   0  0  0  0  0  0  0  0  0  0  0  0
   13.3073   -2.4827   16.6298 C   0  0  0  0  0  0  0  0  0  0  0  0
   12.2743   -2.2884   15.6920 C   0  0  0  0  0  0  0  0  0  0  0  0
   11.3607   -3.5672   15.0218 Cl  0  0  0  0  0  0  0  0  0  0  0  0
   11.9765   -1.0289   15.1689 C   0  0  0  0  0  0  0  0  0  0  0  0
   12.7497    0.0611   15.5221 C   0  0  0  0  0  0  0  0  0  0  0  0
   13.8397   -0.1204   16.3677 C   0  0  0  0  0  0  0  0  0  0  0  0
   14.1326   -1.3767   16.9131 C   0  0  0  0  0  0  0  0  0  0  0  0
   15.2811   -1.5266   17.6943 N   0  0  0  0  0  0  0  0  0  0  0  0
   16.4430   -0.5290   17.9882 C   0  0  0  0  0  0  0  0  0  0  0  0
   16.6522    0.5435   17.5573 O   0  0  0  0  0  0  0  0  0  0  0  0
   17.4170   -1.1452   19.0320 C   0  0  0  0  0  0  0  0  0  0  0  0
   18.2781   -2.5432   18.2689 S   0  0  0  0  0  0  0  0  0  0  0  0
   19.5523   -2.7532   18.9330 O   0  0  0  0  0  0  0  0  0  0  0  0
   17.3116   -3.6337   18.2294 O   0  0  0  0  0  0  0  0  0  0  0  0
   18.6981   -2.2127   16.5674 C   0  0  0  0  0  0  0  0  0  0  0  0
   18.3829   -3.1567   15.5865 C   0  0  0  0  0  0  0  0  0  0  0  0
   18.7372   -2.9136   14.2585 C   0  0  0  0  0  0  0  0  0  0  0  0
   19.3977   -1.7287   13.8992 C   0  0  0  0  0  0  0  0  0  0  0  0
   19.7495   -1.4682   12.5656 C   0  0  0  0  0  0  0  0  0  0  0  0
   20.4094   -0.2881   12.2205 C   0  0  0  0  0  0  0  0  0  0  0  0
   20.7273    0.6448   13.2030 C   0  0  0  0  0  0  0  0  0  0  0  0
   20.3853    0.4010   14.5343 C   0  0  0  0  0  0  0  0  0  0  0  0
   19.7197   -0.7798   14.8996 C   0  0  0  0  0  0  0  0  0  0  0  0
   19.3695   -1.0345   16.2357 C   0  0  0  0  0  0  0  0  0  0  0  0
   18.3556   -0.1510   19.7932 C   0  0  0  0  0  0  0  0  0  0  0  0
   18.0765   -0.9260   21.0901 C   0  0  0  0  0  0  0  0  0  0  0  0
   16.8051   -1.4801   20.4321 C   0  0  0  0  0  0  0  0  0  0  0  0
  1  2  1  0
  2  3  2  0
  3  4  1  0
  3  5  1  0
  5  6  2  0
  6  7  1  0
  7  8  2  0
  8  9  1  0
  9 10  1  0
 10 11  2  0
 10 12  1  0
 12 13  1  0
 13 14  2  0
 13 15  2  0
 13 16  1  0
 16 17  2  0
 17 18  1  0
 18 19  2  0
 19 20  1  0
 20 21  2  0
 21 22  1  0
 22 23  2  0
 23 24  1  0
 24 25  2  0
 12 26  1  0
 26 27  1  0
 27 28  1  0
  8  2  1  0
 28 12  1  0
 25 16  1  0
 24 19  1  0
M  END
>  <ref_mols>  (1262) 
B1396a

>  <gnina_score>  (1262) 
5.324

>  <smina_score_min>  (1262) 
-4.265

>  <ref_pdb>  (1262) 
B1396a

>  <inspiration_score>  (1262) 
None

>  <inchikey>  (1262) 
YXWYCRCCYHLLBW-UHFFFAOYSA-N

>  <tags>  (1262) 
BulkDock Fragalysis export,openbind_d68ev3c_c2_elabs_scored,openbind_d68ev3c_c2_elabs_scored_4.5plus,openbind_d68ev3c_c2_elabs,openbind_d68ev3c_c2_elabs_scored_5plus,syndirella_product,openbind_d68ev3c_c2_elabs_scored_top80percent,syndirella_placed

>  <smiles>  (1262) 
Cc1c(Cl)cccc1NC(=O)C1(S(=O)(=O)c2ccc3ccccc3c2)CCC1

>  <subsites>  (1262) 
None

>  <rmsd(smina/fragmenstein)>  (1262) 
3.357

>  <alias>  (1262) 
None

>  <energy_score>  (1262) 
-53.543389

>  <HIPPO Pose ID>  (1262) 
95801

>  <distance_score>  (1262) 
0.75792

>  <HIPPO Compound ID>  (1262) 
129749

>  <gnina_score_min>  (1262) 
5.128

>  <name>  (1262) 
P95801

>  <exports>  (1262) 
['/opt/xchem-fragalysis-2/maxwin/BulkDock/OUTPUTS/openbind_d68ev3c_c2_elabs_1LOTQJ3.sdf', '/opt/xchem-fragalysis-2/maxwin/BulkDock/OUTPUTS/openbind_d68ev3c_c2_elabs_1LSYI5W.sdf']

$$$$
P95804
     RDKit          3D

 28 31  0  0  0  0  0  0  0  0999 V2000
   13.6731   -4.1000   17.4593 C   0  0  0  0  0  0  0  0  0  0  0  0
   13.3183   -2.7980   16.7916 C   0  0  0  0  0  0  0  0  0  0  0  0
   12.0625   -2.6724   16.1650 C   0  0  0  0  0  0  0  0  0  0  0  0
   11.6322   -1.4398   15.6629 C   0  0  0  0  0  0  0  0  0  0  0  0
    9.9416   -1.1517   15.2014 S   0  0  0  0  0  0  0  0  0  0  0  0
   12.5056   -0.3586   15.6644 C   0  0  0  0  0  0  0  0  0  0  0  0
   13.7681   -0.4808   16.2414 C   0  0  0  0  0  0  0  0  0  0  0  0
   14.1624   -1.6758   16.8471 C   0  0  0  0  0  0  0  0  0  0  0  0
   15.3588   -1.7227   17.5616 N   0  0  0  0  0  0  0  0  0  0  0  0
   16.4698   -0.6453   17.7474 C   0  0  0  0  0  0  0  0  0  0  0  0
   16.5857    0.4192   17.2645 O   0  0  0  0  0  0  0  0  0  0  0  0
   17.5041   -1.1305   18.8147 C   0  0  0  0  0  0  0  0  0  0  0  0
   18.4088   -2.5379   18.1498 S   0  0  0  0  0  0  0  0  0  0  0  0
   19.6558   -2.7017   18.8748 O   0  0  0  0  0  0  0  0  0  0  0  0
   17.4588   -3.6428   18.1155 O   0  0  0  0  0  0  0  0  0  0  0  0
   18.8889   -2.2577   16.4585 C   0  0  0  0  0  0  0  0  0  0  0  0
   19.3353   -1.0017   16.0552 C   0  0  0  0  0  0  0  0  0  0  0  0
   19.6713   -0.7938   14.7160 C   0  0  0  0  0  0  0  0  0  0  0  0
   19.5843   -1.8362   13.7790 C   0  0  0  0  0  0  0  0  0  0  0  0
   19.9178   -1.6337   12.4303 C   0  0  0  0  0  0  0  0  0  0  0  0
   19.8463   -2.6829   11.5132 C   0  0  0  0  0  0  0  0  0  0  0  0
   19.4580   -3.9499   11.9362 C   0  0  0  0  0  0  0  0  0  0  0  0
   19.1310   -4.1689   13.2750 C   0  0  0  0  0  0  0  0  0  0  0  0
   19.1642   -3.1181   14.2042 C   0  0  0  0  0  0  0  0  0  0  0  0
   18.8034   -3.3150   15.5458 C   0  0  0  0  0  0  0  0  0  0  0  0
   18.4081   -0.0341   19.4783 C   0  0  0  0  0  0  0  0  0  0  0  0
   17.3709    0.0514   20.6116 C   0  0  0  0  0  0  0  0  0  0  0  0
   16.9565   -1.3874   20.2594 C   0  0  0  0  0  0  0  0  0  0  0  0
  1  2  1  0
  2  3  2  0
  3  4  1  0
  4  5  1  0
  4  6  2  0
  6  7  1  0
  7  8  2  0
  8  9  1  0
  9 10  1  0
 10 11  2  0
 10 12  1  0
 12 13  1  0
 13 14  2  0
 13 15  2  0
 13 16  1  0
 16 17  2  0
 17 18  1  0
 18 19  2  0
 19 20  1  0
 20 21  2  0
 21 22  1  0
 22 23  2  0
 23 24  1  0
 24 25  2  0
 12 26  1  0
 26 27  1  0
 27 28  1  0
  8  2  1  0
 28 12  1  0
 25 16  1  0
 24 19  1  0
M  END
>  <ref_mols>  (1263) 
B1396a

>  <gnina_score>  (1263) 
5.53

>  <smina_score_min>  (1263) 
-3.962

>  <ref_pdb>  (1263) 
B1396a

>  <inspiration_score>  (1263) 
None

>  <inchikey>  (1263) 
WHLQBUDCYYHCIB-UHFFFAOYSA-N

>  <tags>  (1263) 
BulkDock Fragalysis export,openbind_d68ev3c_c2_elabs_scored,openbind_d68ev3c_c2_elabs_scored_4.5plus,openbind_d68ev3c_c2_elabs,openbind_d68ev3c_c2_elabs_scored_5plus,syndirella_product,openbind_d68ev3c_c2_elabs_scored_top80percent,syndirella_placed

>  <smiles>  (1263) 
Cc1cc(S)ccc1NC(=O)C1(S(=O)(=O)c2ccc3ccccc3c2)CCC1

>  <subsites>  (1263) 
None

>  <rmsd(smina/fragmenstein)>  (1263) 
2.587

>  <alias>  (1263) 
None

>  <energy_score>  (1263) 
-36.810742

>  <HIPPO Pose ID>  (1263) 
95804

>  <distance_score>  (1263) 
0.574475

>  <HIPPO Compound ID>  (1263) 
129752

>  <gnina_score_min>  (1263) 
5.102

>  <name>  (1263) 
P95804

>  <exports>  (1263) 
['/opt/xchem-fragalysis-2/maxwin/BulkDock/OUTPUTS/openbind_d68ev3c_c2_elabs_1LOTQJ3.sdf', '/opt/xchem-fragalysis-2/maxwin/BulkDock/OUTPUTS/openbind_d68ev3c_c2_elabs_1LSYI5W.sdf']

$$$$
P95805
     RDKit          3D

 28 31  0  0  0  0  0  0  0  0999 V2000
   11.9955    0.2507   14.2877 C   0  0  0  0  0  0  0  0  0  0  0  0
   12.4138   -0.8745   15.1881 C   0  0  0  0  0  0  0  0  0  0  0  0
   11.6861   -2.0644   15.2086 C   0  0  0  0  0  0  0  0  0  0  0  0
   12.1040   -3.1228   16.0134 C   0  0  0  0  0  0  0  0  0  0  0  0
   13.2561   -3.0203   16.8091 C   0  0  0  0  0  0  0  0  0  0  0  0
   13.6627   -4.1969   17.6535 C   0  0  0  0  0  0  0  0  0  0  0  0
   13.9935   -1.8258   16.7856 C   0  0  0  0  0  0  0  0  0  0  0  0
   15.1263   -1.7027   17.5924 N   0  0  0  0  0  0  0  0  0  0  0  0
   16.1942   -0.5716   17.6707 C   0  0  0  0  0  0  0  0  0  0  0  0
   16.2441    0.4663   17.1246 O   0  0  0  0  0  0  0  0  0  0  0  0
   17.2643   -0.9495   18.7487 C   0  0  0  0  0  0  0  0  0  0  0  0
   18.2445   -2.3474   18.1456 S   0  0  0  0  0  0  0  0  0  0  0  0
   17.3759   -3.5163   18.1847 O   0  0  0  0  0  0  0  0  0  0  0  0
   19.5112   -2.4013   18.8561 O   0  0  0  0  0  0  0  0  0  0  0  0
   18.6803   -2.0992   16.4352 C   0  0  0  0  0  0  0  0  0  0  0  0
   18.2199   -2.9842   15.4593 C   0  0  0  0  0  0  0  0  0  0  0  0
   18.6050   -2.7960   14.1303 C   0  0  0  0  0  0  0  0  0  0  0  0
   19.4426   -1.7293   13.7672 C   0  0  0  0  0  0  0  0  0  0  0  0
   19.8268   -1.5275   12.4323 C   0  0  0  0  0  0  0  0  0  0  0  0
   20.6661   -0.4683   12.0843 C   0  0  0  0  0  0  0  0  0  0  0  0
   21.1334    0.4008   13.0657 C   0  0  0  0  0  0  0  0  0  0  0  0
   20.7610    0.2143   14.3979 C   0  0  0  0  0  0  0  0  0  0  0  0
   19.9144   -0.8442   14.7648 C   0  0  0  0  0  0  0  0  0  0  0  0
   19.5320   -1.0432   16.1001 C   0  0  0  0  0  0  0  0  0  0  0  0
   18.1112    0.2258   19.3396 C   0  0  0  0  0  0  0  0  0  0  0  0
   17.9363   -0.3846   20.7382 C   0  0  0  0  0  0  0  0  0  0  0  0
   16.7237   -1.1574   20.2029 C   0  0  0  0  0  0  0  0  0  0  0  0
   13.5764   -0.7700   15.9676 C   0  0  0  0  0  0  0  0  0  0  0  0
  1  2  1  0
  2  3  2  0
  3  4  1  0
  4  5  2  0
  5  6  1  0
  5  7  1  0
  7  8  1  0
  8  9  1  0
  9 10  2  0
  9 11  1  0
 11 12  1  0
 12 13  2  0
 12 14  2  0
 12 15  1  0
 15 16  2  0
 16 17  1  0
 17 18  2  0
 18 19  1  0
 19 20  2  0
 20 21  1  0
 21 22  2  0
 22 23  1  0
 23 24  2  0
 11 25  1  0
 25 26  1  0
 26 27  1  0
  7 28  2  0
 28  2  1  0
 27 11  1  0
 24 15  1  0
 23 18  1  0
M  END
>  <ref_mols>  (1264) 
B1396a

>  <gnina_score>  (1264) 
5.221

>  <smina_score_min>  (1264) 
-3.959

>  <ref_pdb>  (1264) 
B1396a

>  <inspiration_score>  (1264) 
None

>  <inchikey>  (1264) 
UHYOWDOFCAEUOT-UHFFFAOYSA-N

>  <tags>  (1264) 
BulkDock Fragalysis export,openbind_d68ev3c_c2_elabs_scored,openbind_d68ev3c_c2_elabs_scored_4.5plus,openbind_d68ev3c_c2_elabs,openbind_d68ev3c_c2_elabs_scored_5plus,syndirella_product,openbind_d68ev3c_c2_elabs_scored_top80percent,syndirella_placed

>  <smiles>  (1264) 
Cc1ccc(C)c(NC(=O)C2(S(=O)(=O)c3ccc4ccccc4c3)CCC2)c1

>  <subsites>  (1264) 
None

>  <rmsd(smina/fragmenstein)>  (1264) 
2.063

>  <alias>  (1264) 
None

>  <energy_score>  (1264) 
-54.408282

>  <HIPPO Pose ID>  (1264) 
95805

>  <distance_score>  (1264) 
0.393904

>  <HIPPO Compound ID>  (1264) 
129753

>  <gnina_score_min>  (1264) 
5.154

>  <name>  (1264) 
P95805

>  <exports>  (1264) 
['/opt/xchem-fragalysis-2/maxwin/BulkDock/OUTPUTS/openbind_d68ev3c_c2_elabs_1LOTQJ3.sdf', '/opt/xchem-fragalysis-2/maxwin/BulkDock/OUTPUTS/openbind_d68ev3c_c2_elabs_1LSYI5W.sdf']

$$$$
P95806
     RDKit          3D

 28 31  0  0  0  0  0  0  0  0999 V2000
   14.7744   -5.1051   17.6316 C   0  0  0  0  0  0  0  0  0  0  0  0
   13.7332   -4.0970   18.0830 C   0  0  0  0  0  0  0  0  0  0  0  0
   13.3699   -3.0705   17.0325 C   0  0  0  0  0  0  0  0  0  0  0  0
   12.2140   -3.2744   16.2592 C   0  0  0  0  0  0  0  0  0  0  0  0
   11.7922   -2.3283   15.3255 C   0  0  0  0  0  0  0  0  0  0  0  0
   12.5304   -1.1649   15.1461 C   0  0  0  0  0  0  0  0  0  0  0  0
   13.7011   -0.9601   15.8804 C   0  0  0  0  0  0  0  0  0  0  0  0
   14.1322   -1.9079   16.8136 C   0  0  0  0  0  0  0  0  0  0  0  0
   15.3146   -1.7170   17.5294 N   0  0  0  0  0  0  0  0  0  0  0  0
   16.3592   -0.5655   17.4668 C   0  0  0  0  0  0  0  0  0  0  0  0
   16.4272    0.3609   16.7500 O   0  0  0  0  0  0  0  0  0  0  0  0
   17.4126   -0.7797   18.6022 C   0  0  0  0  0  0  0  0  0  0  0  0
   18.4317   -2.2140   18.1647 S   0  0  0  0  0  0  0  0  0  0  0  0
   17.5902   -3.3891   18.3463 O   0  0  0  0  0  0  0  0  0  0  0  0
   19.7012   -2.1528   18.8677 O   0  0  0  0  0  0  0  0  0  0  0  0
   18.8484   -2.1560   16.4324 C   0  0  0  0  0  0  0  0  0  0  0  0
   18.5003   -3.2154   15.5934 C   0  0  0  0  0  0  0  0  0  0  0  0
   18.8423   -3.1568   14.2411 C   0  0  0  0  0  0  0  0  0  0  0  0
   19.5173   -2.0427   13.7169 C   0  0  0  0  0  0  0  0  0  0  0  0
   19.8499   -1.9683   12.3554 C   0  0  0  0  0  0  0  0  0  0  0  0
   20.5261   -0.8586   11.8467 C   0  0  0  0  0  0  0  0  0  0  0  0
   20.8805    0.1885   12.6921 C   0  0  0  0  0  0  0  0  0  0  0  0
   20.5577    0.1301   14.0488 C   0  0  0  0  0  0  0  0  0  0  0  0
   19.8745   -0.9772   14.5766 C   0  0  0  0  0  0  0  0  0  0  0  0
   19.5418   -1.0482   15.9379 C   0  0  0  0  0  0  0  0  0  0  0  0
   16.8530   -0.8385   20.0616 C   0  0  0  0  0  0  0  0  0  0  0  0
   18.0397    0.0181   20.5225 C   0  0  0  0  0  0  0  0  0  0  0  0
   18.2192    0.4751   19.0669 C   0  0  0  0  0  0  0  0  0  0  0  0
  1  2  1  0
  2  3  1  0
  3  4  2  0
  4  5  1  0
  5  6  2  0
  6  7  1  0
  7  8  2  0
  8  9  1  0
  9 10  1  0
 10 11  2  0
 10 12  1  0
 12 13  1  0
 13 14  2  0
 13 15  2  0
 13 16  1  0
 16 17  2  0
 17 18  1  0
 18 19  2  0
 19 20  1  0
 20 21  2  0
 21 22  1  0
 22 23  2  0
 23 24  1  0
 24 25  2  0
 12 26  1  0
 26 27  1  0
 27 28  1  0
  8  3  1  0
 28 12  1  0
 25 16  1  0
 24 19  1  0
M  END
>  <ref_mols>  (1265) 
B1396a

>  <gnina_score>  (1265) 
5.171

>  <smina_score_min>  (1265) 
-3.408

>  <ref_pdb>  (1265) 
B1396a

>  <inspiration_score>  (1265) 
None

>  <inchikey>  (1265) 
KPFQUCIPJLRLDZ-UHFFFAOYSA-N

>  <tags>  (1265) 
BulkDock Fragalysis export,openbind_d68ev3c_c2_elabs_scored,openbind_d68ev3c_c2_elabs_scored_4.5plus,openbind_d68ev3c_c2_elabs,openbind_d68ev3c_c2_elabs_scored_5plus,syndirella_product,openbind_d68ev3c_c2_elabs_scored_top80percent,syndirella_placed

>  <smiles>  (1265) 
CCc1ccccc1NC(=O)C1(S(=O)(=O)c2ccc3ccccc3c2)CCC1

>  <subsites>  (1265) 
None

>  <rmsd(smina/fragmenstein)>  (1265) 
2.043

>  <alias>  (1265) 
None

>  <energy_score>  (1265) 
-53.67649

>  <HIPPO Pose ID>  (1265) 
95806

>  <distance_score>  (1265) 
0.430376

>  <HIPPO Compound ID>  (1265) 
129754

>  <gnina_score_min>  (1265) 
5.164

>  <name>  (1265) 
P95806

>  <exports>  (1265) 
['/opt/xchem-fragalysis-2/maxwin/BulkDock/OUTPUTS/openbind_d68ev3c_c2_elabs_1LOTQJ3.sdf', '/opt/xchem-fragalysis-2/maxwin/BulkDock/OUTPUTS/openbind_d68ev3c_c2_elabs_1LSYI5W.sdf']

$$$$
P95807
     RDKit          3D

 28 31  0  0  0  0  0  0  0  0999 V2000
   13.7083   -4.2108   17.6509 C   0  0  0  0  0  0  0  0  0  0  0  0
   13.2990   -3.0164   16.8329 C   0  0  0  0  0  0  0  0  0  0  0  0
   12.1368   -3.0984   16.0455 C   0  0  0  0  0  0  0  0  0  0  0  0
   11.7148   -2.0179   15.2737 C   0  0  0  0  0  0  0  0  0  0  0  0
   12.4605   -0.8500   15.2804 C   0  0  0  0  0  0  0  0  0  0  0  0
   12.0228    0.1888   14.5128 O   0  0  0  0  0  0  0  0  0  0  0  0
   13.6193   -0.7437   16.0460 C   0  0  0  0  0  0  0  0  0  0  0  0
   14.0407   -1.8218   16.8309 C   0  0  0  0  0  0  0  0  0  0  0  0
   15.1855   -1.7131   17.6233 N   0  0  0  0  0  0  0  0  0  0  0  0
   16.2396   -0.5703   17.7272 C   0  0  0  0  0  0  0  0  0  0  0  0
   16.2660    0.4885   17.2199 O   0  0  0  0  0  0  0  0  0  0  0  0
   17.3412   -0.9636   18.7739 C   0  0  0  0  0  0  0  0  0  0  0  0
   18.2639   -2.3927   18.1708 S   0  0  0  0  0  0  0  0  0  0  0  0
   17.3482   -3.5248   18.2164 O   0  0  0  0  0  0  0  0  0  0  0  0
   19.5284   -2.4913   18.8791 O   0  0  0  0  0  0  0  0  0  0  0  0
   18.7038   -2.1671   16.4606 C   0  0  0  0  0  0  0  0  0  0  0  0
   18.3610   -3.1391   15.5195 C   0  0  0  0  0  0  0  0  0  0  0  0
   18.7320   -2.9602   14.1857 C   0  0  0  0  0  0  0  0  0  0  0  0
   19.4337   -1.8129   13.7826 C   0  0  0  0  0  0  0  0  0  0  0  0
   19.7991   -1.6180   12.4416 C   0  0  0  0  0  0  0  0  0  0  0  0
   20.5026   -0.4770   12.0532 C   0  0  0  0  0  0  0  0  0  0  0  0
   20.8517    0.4815   12.9999 C   0  0  0  0  0  0  0  0  0  0  0  0
   20.4964    0.3031   14.3379 C   0  0  0  0  0  0  0  0  0  0  0  0
   19.7856   -0.8371   14.7454 C   0  0  0  0  0  0  0  0  0  0  0  0
   19.4206   -1.0276   16.0870 C   0  0  0  0  0  0  0  0  0  0  0  0
   18.2443    0.1981   19.3178 C   0  0  0  0  0  0  0  0  0  0  0  0
   17.2580    0.3369   20.4907 C   0  0  0  0  0  0  0  0  0  0  0  0
   16.8654   -1.1319   20.2567 C   0  0  0  0  0  0  0  0  0  0  0  0
  1  2  1  0
  2  3  2  0
  3  4  1  0
  4  5  2  0
  5  6  1  0
  5  7  1  0
  7  8  2  0
  8  9  1  0
  9 10  1  0
 10 11  2  0
 10 12  1  0
 12 13  1  0
 13 14  2  0
 13 15  2  0
 13 16  1  0
 16 17  2  0
 17 18  1  0
 18 19  2  0
 19 20  1  0
 20 21  2  0
 21 22  1  0
 22 23  2  0
 23 24  1  0
 24 25  2  0
 12 26  1  0
 26 27  1  0
 27 28  1  0
  8  2  1  0
 28 12  1  0
 25 16  1  0
 24 19  1  0
M  END
>  <ref_mols>  (1266) 
B1396a

>  <gnina_score>  (1266) 
5.121

>  <smina_score_min>  (1266) 
-4.108

>  <ref_pdb>  (1266) 
B1396a

>  <inspiration_score>  (1266) 
None

>  <inchikey>  (1266) 
MWLNYQMLZVNGAI-UHFFFAOYSA-N

>  <tags>  (1266) 
BulkDock Fragalysis export,openbind_d68ev3c_c2_elabs_scored,openbind_d68ev3c_c2_elabs_scored_4.5plus,openbind_d68ev3c_c2_elabs,openbind_d68ev3c_c2_elabs_scored_5plus,syndirella_product,openbind_d68ev3c_c2_elabs_scored_top80percent,syndirella_placed

>  <smiles>  (1266) 
Cc1ccc(O)cc1NC(=O)C1(S(=O)(=O)c2ccc3ccccc3c2)CCC1

>  <subsites>  (1266) 
None

>  <rmsd(smina/fragmenstein)>  (1266) 
1.666

>  <alias>  (1266) 
None

>  <energy_score>  (1266) 
-47.743247

>  <HIPPO Pose ID>  (1266) 
95807

>  <distance_score>  (1266) 
0.416805

>  <HIPPO Compound ID>  (1266) 
129755

>  <gnina_score_min>  (1266) 
5.225

>  <name>  (1266) 
P95807

>  <exports>  (1266) 
['/opt/xchem-fragalysis-2/maxwin/BulkDock/OUTPUTS/openbind_d68ev3c_c2_elabs_1LOTQJ3.sdf', '/opt/xchem-fragalysis-2/maxwin/BulkDock/OUTPUTS/openbind_d68ev3c_c2_elabs_1LSYI5W.sdf']

$$$$
P95808
     RDKit          3D

 28 31  0  0  0  0  0  0  0  0999 V2000
   14.7729   -4.9199   17.6711 C   0  0  0  0  0  0  0  0  0  0  0  0
   13.6597   -4.1902   17.8066 C   0  0  0  0  0  0  0  0  0  0  0  0
   13.3175   -3.0610   16.9300 C   0  0  0  0  0  0  0  0  0  0  0  0
   12.1703   -3.1892   16.1317 C   0  0  0  0  0  0  0  0  0  0  0  0
   11.7651   -2.1587   15.2839 C   0  0  0  0  0  0  0  0  0  0  0  0
   12.5069   -0.9841   15.2283 C   0  0  0  0  0  0  0  0  0  0  0  0
   13.6546   -0.8413   16.0134 C   0  0  0  0  0  0  0  0  0  0  0  0
   14.0662   -1.8704   16.8666 C   0  0  0  0  0  0  0  0  0  0  0  0
   15.1943   -1.7117   17.6771 N   0  0  0  0  0  0  0  0  0  0  0  0
   16.3034   -0.6206   17.6631 C   0  0  0  0  0  0  0  0  0  0  0  0
   16.4006    0.3565   17.0201 O   0  0  0  0  0  0  0  0  0  0  0  0
   17.3550   -0.9392   18.7734 C   0  0  0  0  0  0  0  0  0  0  0  0
   18.4029   -2.3048   18.2090 S   0  0  0  0  0  0  0  0  0  0  0  0
   17.5882   -3.5083   18.2900 O   0  0  0  0  0  0  0  0  0  0  0  0
   19.6722   -2.2740   18.9150 O   0  0  0  0  0  0  0  0  0  0  0  0
   18.8349   -2.1266   16.4897 C   0  0  0  0  0  0  0  0  0  0  0  0
   19.2493   -0.8904   16.0003 C   0  0  0  0  0  0  0  0  0  0  0  0
   19.5765   -0.7642   14.6488 C   0  0  0  0  0  0  0  0  0  0  0  0
   19.5127   -1.8686   13.7842 C   0  0  0  0  0  0  0  0  0  0  0  0
   19.8372   -1.7496   12.4235 C   0  0  0  0  0  0  0  0  0  0  0  0
   19.7880   -2.8596   11.5795 C   0  0  0  0  0  0  0  0  0  0  0  0
   19.4315   -4.1040   12.0889 C   0  0  0  0  0  0  0  0  0  0  0  0
   19.1136   -4.2401   13.4408 C   0  0  0  0  0  0  0  0  0  0  0  0
   19.1242   -3.1284   14.2964 C   0  0  0  0  0  0  0  0  0  0  0  0
   18.7723   -3.2441   15.6498 C   0  0  0  0  0  0  0  0  0  0  0  0
   16.7978   -1.1433   20.2218 C   0  0  0  0  0  0  0  0  0  0  0  0
   17.9737   -0.3197   20.7634 C   0  0  0  0  0  0  0  0  0  0  0  0
   18.1449    0.2780   19.3590 C   0  0  0  0  0  0  0  0  0  0  0  0
  1  2  2  0
  2  3  1  0
  3  4  2  0
  4  5  1  0
  5  6  2  0
  6  7  1  0
  7  8  2  0
  8  9  1  0
  9 10  1  0
 10 11  2  0
 10 12  1  0
 12 13  1  0
 13 14  2  0
 13 15  2  0
 13 16  1  0
 16 17  2  0
 17 18  1  0
 18 19  2  0
 19 20  1  0
 20 21  2  0
 21 22  1  0
 22 23  2  0
 23 24  1  0
 24 25  2  0
 12 26  1  0
 26 27  1  0
 27 28  1  0
  8  3  1  0
 28 12  1  0
 25 16  1  0
 24 19  1  0
M  END
>  <ref_mols>  (1267) 
B1396a

>  <gnina_score>  (1267) 
5.129

>  <smina_score_min>  (1267) 
-3.393

>  <ref_pdb>  (1267) 
B1396a

>  <inspiration_score>  (1267) 
None

>  <inchikey>  (1267) 
LCDZQMDJSPNLIC-UHFFFAOYSA-N

>  <tags>  (1267) 
BulkDock Fragalysis export,openbind_d68ev3c_c2_elabs_scored,openbind_d68ev3c_c2_elabs_scored_4.5plus,openbind_d68ev3c_c2_elabs,openbind_d68ev3c_c2_elabs_scored_5plus,syndirella_product,openbind_d68ev3c_c2_elabs_scored_top80percent,syndirella_placed

>  <smiles>  (1267) 
C=Cc1ccccc1NC(=O)C1(S(=O)(=O)c2ccc3ccccc3c2)CCC1

>  <subsites>  (1267) 
None

>  <rmsd(smina/fragmenstein)>  (1267) 
1.958

>  <alias>  (1267) 
None

>  <energy_score>  (1267) 
-41.73245

>  <HIPPO Pose ID>  (1267) 
95808

>  <distance_score>  (1267) 
0.453633

>  <HIPPO Compound ID>  (1267) 
129756

>  <gnina_score_min>  (1267) 
5.098

>  <name>  (1267) 
P95808

>  <exports>  (1267) 
['/opt/xchem-fragalysis-2/maxwin/BulkDock/OUTPUTS/openbind_d68ev3c_c2_elabs_1LOTQJ3.sdf', '/opt/xchem-fragalysis-2/maxwin/BulkDock/OUTPUTS/openbind_d68ev3c_c2_elabs_1LSYI5W.sdf']

$$$$
P95809
     RDKit          3D

 28 31  0  0  0  0  0  0  0  0999 V2000
   13.6790   -4.1904   17.6360 C   0  0  0  0  0  0  0  0  0  0  0  0
   13.2603   -3.0054   16.8081 C   0  0  0  0  0  0  0  0  0  0  0  0
   12.1061   -3.1085   16.0131 C   0  0  0  0  0  0  0  0  0  0  0  0
   11.6735   -2.0393   15.2313 C   0  0  0  0  0  0  0  0  0  0  0  0
   12.4007   -0.8551   15.2373 C   0  0  0  0  0  0  0  0  0  0  0  0
   11.8127    0.6004   14.1827 Br  0  0  0  0  0  0  0  0  0  0  0  0
   13.5542   -0.7317   16.0139 C   0  0  0  0  0  0  0  0  0  0  0  0
   13.9860   -1.8010   16.8048 C   0  0  0  0  0  0  0  0  0  0  0  0
   15.1209   -1.6754   17.6095 N   0  0  0  0  0  0  0  0  0  0  0  0
   16.2287   -0.5806   17.6322 C   0  0  0  0  0  0  0  0  0  0  0  0
   16.3173    0.4239   17.0315 O   0  0  0  0  0  0  0  0  0  0  0  0
   17.2843   -0.9433   18.7273 C   0  0  0  0  0  0  0  0  0  0  0  0
   18.2476   -2.3650   18.1542 S   0  0  0  0  0  0  0  0  0  0  0  0
   17.3505   -3.5123   18.2128 O   0  0  0  0  0  0  0  0  0  0  0  0
   19.5100   -2.4269   18.8699 O   0  0  0  0  0  0  0  0  0  0  0  0
   18.6945   -2.1755   16.4394 C   0  0  0  0  0  0  0  0  0  0  0  0
   18.4028   -3.1949   15.5310 C   0  0  0  0  0  0  0  0  0  0  0  0
   18.7748   -3.0482   14.1935 C   0  0  0  0  0  0  0  0  0  0  0  0
   19.4266   -1.8857   13.7526 C   0  0  0  0  0  0  0  0  0  0  0  0
   19.7912   -1.7225   12.4072 C   0  0  0  0  0  0  0  0  0  0  0  0
   20.4437   -0.5648   11.9811 C   0  0  0  0  0  0  0  0  0  0  0  0
   20.7418    0.4422   12.8941 C   0  0  0  0  0  0  0  0  0  0  0  0
   20.3867    0.2956   14.2360 C   0  0  0  0  0  0  0  0  0  0  0  0
   19.7271   -0.8612   14.6813 C   0  0  0  0  0  0  0  0  0  0  0  0
   19.3616   -1.0196   16.0273 C   0  0  0  0  0  0  0  0  0  0  0  0
   16.7292   -1.1189   20.1806 C   0  0  0  0  0  0  0  0  0  0  0  0
   17.9467   -0.3513   20.7116 C   0  0  0  0  0  0  0  0  0  0  0  0
   18.1398    0.2316   19.3038 C   0  0  0  0  0  0  0  0  0  0  0  0
  1  2  1  0
  2  3  2  0
  3  4  1  0
  4  5  2  0
  5  6  1  0
  5  7  1  0
  7  8  2  0
  8  9  1  0
  9 10  1  0
 10 11  2  0
 10 12  1  0
 12 13  1  0
 13 14  2  0
 13 15  2  0
 13 16  1  0
 16 17  2  0
 17 18  1  0
 18 19  2  0
 19 20  1  0
 20 21  2  0
 21 22  1  0
 22 23  2  0
 23 24  1  0
 24 25  2  0
 12 26  1  0
 26 27  1  0
 27 28  1  0
  8  2  1  0
 28 12  1  0
 25 16  1  0
 24 19  1  0
M  END
>  <ref_mols>  (1268) 
B1396a

>  <gnina_score>  (1268) 
5.312

>  <smina_score_min>  (1268) 
-3.908

>  <ref_pdb>  (1268) 
B1396a

>  <inspiration_score>  (1268) 
None

>  <inchikey>  (1268) 
YOOYPNDDSLVFPD-UHFFFAOYSA-N

>  <tags>  (1268) 
BulkDock Fragalysis export,openbind_d68ev3c_c2_elabs_scored,openbind_d68ev3c_c2_elabs_scored_4.5plus,openbind_d68ev3c_c2_elabs,openbind_d68ev3c_c2_elabs_scored_5plus,syndirella_product,openbind_d68ev3c_c2_elabs_scored_top80percent,syndirella_placed

>  <smiles>  (1268) 
Cc1ccc(Br)cc1NC(=O)C1(S(=O)(=O)c2ccc3ccccc3c2)CCC1

>  <subsites>  (1268) 
None

>  <rmsd(smina/fragmenstein)>  (1268) 
1.676

>  <alias>  (1268) 
None

>  <energy_score>  (1268) 
-52.373676

>  <HIPPO Pose ID>  (1268) 
95809

>  <distance_score>  (1268) 
0.377171

>  <HIPPO Compound ID>  (1268) 
129758

>  <gnina_score_min>  (1268) 
5.308

>  <name>  (1268) 
P95809

>  <exports>  (1268) 
['/opt/xchem-fragalysis-2/maxwin/BulkDock/OUTPUTS/openbind_d68ev3c_c2_elabs_1LOTQJ3.sdf', '/opt/xchem-fragalysis-2/maxwin/BulkDock/OUTPUTS/openbind_d68ev3c_c2_elabs_1LSYI5W.sdf']

$$$$
P95810
     RDKit          3D

 28 31  0  0  0  0  0  0  0  0999 V2000
   13.6607   -4.2016   17.5787 C   0  0  0  0  0  0  0  0  0  0  0  0
   13.2510   -2.9985   16.7729 C   0  0  0  0  0  0  0  0  0  0  0  0
   12.0844   -3.0689   15.9929 C   0  0  0  0  0  0  0  0  0  0  0  0
   11.6566   -1.9784   15.2369 C   0  0  0  0  0  0  0  0  0  0  0  0
   12.4002   -0.8037   15.2564 C   0  0  0  0  0  0  0  0  0  0  0  0
   11.7669    0.8325   14.1394 I   0  0  0  0  0  0  0  0  0  0  0  0
   13.5694   -0.7157   16.0154 C   0  0  0  0  0  0  0  0  0  0  0  0
   13.9995   -1.8086   16.7740 C   0  0  0  0  0  0  0  0  0  0  0  0
   15.1699   -1.7341   17.5314 N   0  0  0  0  0  0  0  0  0  0  0  0
   16.2367   -0.6046   17.6360 C   0  0  0  0  0  0  0  0  0  0  0  0
   16.3368    0.4041   17.0438 O   0  0  0  0  0  0  0  0  0  0  0  0
   17.2613   -0.9662   18.7596 C   0  0  0  0  0  0  0  0  0  0  0  0
   18.2665   -2.3666   18.2004 S   0  0  0  0  0  0  0  0  0  0  0  0
   17.3854   -3.5273   18.2227 O   0  0  0  0  0  0  0  0  0  0  0  0
   19.5085   -2.4132   18.9519 O   0  0  0  0  0  0  0  0  0  0  0  0
   18.7670   -2.1693   16.5016 C   0  0  0  0  0  0  0  0  0  0  0  0
   19.1992   -0.9291   16.0379 C   0  0  0  0  0  0  0  0  0  0  0  0
   19.5705   -0.7904   14.6988 C   0  0  0  0  0  0  0  0  0  0  0  0
   19.5311   -1.8856   13.8212 C   0  0  0  0  0  0  0  0  0  0  0  0
   19.8991   -1.7535   12.4728 C   0  0  0  0  0  0  0  0  0  0  0  0
   19.8724   -2.8544   11.6158 C   0  0  0  0  0  0  0  0  0  0  0  0
   19.4943   -4.1024   12.1000 C   0  0  0  0  0  0  0  0  0  0  0  0
   19.1330   -4.2515   13.4396 C   0  0  0  0  0  0  0  0  0  0  0  0
   19.1222   -3.1492   14.3075 C   0  0  0  0  0  0  0  0  0  0  0  0
   18.7279   -3.2776   15.6481 C   0  0  0  0  0  0  0  0  0  0  0  0
   16.6635   -1.1669   20.1917 C   0  0  0  0  0  0  0  0  0  0  0  0
   17.8533   -0.3896   20.7700 C   0  0  0  0  0  0  0  0  0  0  0  0
   18.0830    0.2127   19.3757 C   0  0  0  0  0  0  0  0  0  0  0  0
  1  2  1  0
  2  3  2  0
  3  4  1  0
  4  5  2  0
  5  6  1  0
  5  7  1  0
  7  8  2  0
  8  9  1  0
  9 10  1  0
 10 11  2  0
 10 12  1  0
 12 13  1  0
 13 14  2  0
 13 15  2  0
 13 16  1  0
 16 17  2  0
 17 18  1  0
 18 19  2  0
 19 20  1  0
 20 21  2  0
 21 22  1  0
 22 23  2  0
 23 24  1  0
 24 25  2  0
 12 26  1  0
 26 27  1  0
 27 28  1  0
  8  2  1  0
 28 12  1  0
 25 16  1  0
 24 19  1  0
M  END
>  <ref_mols>  (1269) 
B1396a

>  <gnina_score>  (1269) 
5.381

>  <smina_score_min>  (1269) 
-3.891

>  <ref_pdb>  (1269) 
B1396a

>  <inspiration_score>  (1269) 
None

>  <inchikey>  (1269) 
WYQWUGTXKWUMNX-UHFFFAOYSA-N

>  <tags>  (1269) 
BulkDock Fragalysis export,openbind_d68ev3c_c2_elabs_scored,openbind_d68ev3c_c2_elabs_scored_4.5plus,openbind_d68ev3c_c2_elabs,openbind_d68ev3c_c2_elabs_scored_5plus,syndirella_product,openbind_d68ev3c_c2_elabs_scored_top80percent,syndirella_placed

>  <smiles>  (1269) 
Cc1ccc(I)cc1NC(=O)C1(S(=O)(=O)c2ccc3ccccc3c2)CCC1

>  <subsites>  (1269) 
None

>  <rmsd(smina/fragmenstein)>  (1269) 
1.831

>  <alias>  (1269) 
None

>  <energy_score>  (1269) 
-30.990732

>  <HIPPO Pose ID>  (1269) 
95810

>  <distance_score>  (1269) 
0.437338

>  <HIPPO Compound ID>  (1269) 
129759

>  <gnina_score_min>  (1269) 
5.243

>  <name>  (1269) 
P95810

>  <exports>  (1269) 
['/opt/xchem-fragalysis-2/maxwin/BulkDock/OUTPUTS/openbind_d68ev3c_c2_elabs_1LOTQJ3.sdf', '/opt/xchem-fragalysis-2/maxwin/BulkDock/OUTPUTS/openbind_d68ev3c_c2_elabs_1LSYI5W.sdf']

$$$$
P95811
     RDKit          3D

 28 31  0  0  0  0  0  0  0  0999 V2000
   13.6966   -4.1937   17.5960 C   0  0  0  0  0  0  0  0  0  0  0  0
   13.2639   -3.0074   16.7766 C   0  0  0  0  0  0  0  0  0  0  0  0
   12.0846   -3.1006   16.0187 C   0  0  0  0  0  0  0  0  0  0  0  0
   11.6360   -2.0258   15.2533 C   0  0  0  0  0  0  0  0  0  0  0  0
   12.3702   -0.8461   15.2394 C   0  0  0  0  0  0  0  0  0  0  0  0
   11.8128    0.4863   14.3032 Cl  0  0  0  0  0  0  0  0  0  0  0  0
   13.5507   -0.7355   15.9751 C   0  0  0  0  0  0  0  0  0  0  0  0
   14.0026   -1.8114   16.7451 C   0  0  0  0  0  0  0  0  0  0  0  0
   15.1851   -1.7142   17.4803 N   0  0  0  0  0  0  0  0  0  0  0  0
   16.2417   -0.5722   17.5500 C   0  0  0  0  0  0  0  0  0  0  0  0
   16.3204    0.4287   16.9421 O   0  0  0  0  0  0  0  0  0  0  0  0
   17.2967   -0.9055   18.6619 C   0  0  0  0  0  0  0  0  0  0  0  0
   18.2521   -2.3487   18.1453 S   0  0  0  0  0  0  0  0  0  0  0  0
   17.3402   -3.4843   18.2011 O   0  0  0  0  0  0  0  0  0  0  0  0
   19.4935   -2.4142   18.8967 O   0  0  0  0  0  0  0  0  0  0  0  0
   18.7396   -2.1788   16.4412 C   0  0  0  0  0  0  0  0  0  0  0  0
   18.4120   -3.1752   15.5203 C   0  0  0  0  0  0  0  0  0  0  0  0
   18.8031   -3.0301   14.1884 C   0  0  0  0  0  0  0  0  0  0  0  0
   19.5110   -1.8928   13.7673 C   0  0  0  0  0  0  0  0  0  0  0  0
   19.8962   -1.7314   12.4274 C   0  0  0  0  0  0  0  0  0  0  0  0
   20.6045   -0.5998   12.0209 C   0  0  0  0  0  0  0  0  0  0  0  0
   20.9386    0.3828   12.9480 C   0  0  0  0  0  0  0  0  0  0  0  0
   20.5636    0.2379   14.2847 C   0  0  0  0  0  0  0  0  0  0  0  0
   19.8480   -0.8926   14.7103 C   0  0  0  0  0  0  0  0  0  0  0  0
   19.4623   -1.0490   16.0504 C   0  0  0  0  0  0  0  0  0  0  0  0
   18.1658    0.2852   19.1934 C   0  0  0  0  0  0  0  0  0  0  0  0
   17.1308    0.4599   20.3187 C   0  0  0  0  0  0  0  0  0  0  0  0
   16.7623   -1.0216   20.1282 C   0  0  0  0  0  0  0  0  0  0  0  0
  1  2  1  0
  2  3  2  0
  3  4  1  0
  4  5  2  0
  5  6  1  0
  5  7  1  0
  7  8  2  0
  8  9  1  0
  9 10  1  0
 10 11  2  0
 10 12  1  0
 12 13  1  0
 13 14  2  0
 13 15  2  0
 13 16  1  0
 16 17  2  0
 17 18  1  0
 18 19  2  0
 19 20  1  0
 20 21  2  0
 21 22  1  0
 22 23  2  0
 23 24  1  0
 24 25  2  0
 12 26  1  0
 26 27  1  0
 27 28  1  0
  8  2  1  0
 28 12  1  0
 25 16  1  0
 24 19  1  0
M  END
>  <ref_mols>  (1270) 
B1396a

>  <gnina_score>  (1270) 
5.34

>  <smina_score_min>  (1270) 
-3.934

>  <ref_pdb>  (1270) 
B1396a

>  <inspiration_score>  (1270) 
None

>  <inchikey>  (1270) 
DZQIFIBQURELEK-UHFFFAOYSA-N

>  <tags>  (1270) 
BulkDock Fragalysis export,openbind_d68ev3c_c2_elabs_scored,openbind_d68ev3c_c2_elabs_scored_4.5plus,openbind_d68ev3c_c2_elabs,openbind_d68ev3c_c2_elabs_scored_5plus,syndirella_product,openbind_d68ev3c_c2_elabs_scored_top80percent,syndirella_placed

>  <smiles>  (1270) 
Cc1ccc(Cl)cc1NC(=O)C1(S(=O)(=O)c2ccc3ccccc3c2)CCC1

>  <subsites>  (1270) 
None

>  <rmsd(smina/fragmenstein)>  (1270) 
2.465

>  <alias>  (1270) 
None

>  <energy_score>  (1270) 
-38.659717

>  <HIPPO Pose ID>  (1270) 
95811

>  <distance_score>  (1270) 
0.363229

>  <HIPPO Compound ID>  (1270) 
129760

>  <gnina_score_min>  (1270) 
5.233

>  <name>  (1270) 
P95811

>  <exports>  (1270) 
['/opt/xchem-fragalysis-2/maxwin/BulkDock/OUTPUTS/openbind_d68ev3c_c2_elabs_1LOTQJ3.sdf', '/opt/xchem-fragalysis-2/maxwin/BulkDock/OUTPUTS/openbind_d68ev3c_c2_elabs_1LSYI5W.sdf']

$$$$
P95812
     RDKit          3D

 28 31  0  0  0  0  0  0  0  0999 V2000
   10.8218   -2.0643   14.6101 C   0  0  0  0  0  0  0  0  0  0  0  0
   11.9723   -1.9700   15.5522 C   0  0  0  0  0  0  0  0  0  0  0  0
   12.7105   -0.7905   15.6227 C   0  0  0  0  0  0  0  0  0  0  0  0
   13.8502   -0.7270   16.4193 C   0  0  0  0  0  0  0  0  0  0  0  0
   14.2675   -1.8411   17.1507 C   0  0  0  0  0  0  0  0  0  0  0  0
   15.4232   -1.7744   17.9257 N   0  0  0  0  0  0  0  0  0  0  0  0
   16.4779   -0.6380   18.0733 C   0  0  0  0  0  0  0  0  0  0  0  0
   16.4949    0.4470   17.6245 O   0  0  0  0  0  0  0  0  0  0  0  0
   17.5983   -1.0952   19.0566 C   0  0  0  0  0  0  0  0  0  0  0  0
   18.5019   -2.4761   18.3124 S   0  0  0  0  0  0  0  0  0  0  0  0
   17.5999   -3.6198   18.3534 O   0  0  0  0  0  0  0  0  0  0  0  0
   19.8079   -2.5897   18.9365 O   0  0  0  0  0  0  0  0  0  0  0  0
   18.8491   -2.1930   16.5876 C   0  0  0  0  0  0  0  0  0  0  0  0
   19.2023   -0.9236   16.1370 C   0  0  0  0  0  0  0  0  0  0  0  0
   19.4744   -0.7306   14.7803 C   0  0  0  0  0  0  0  0  0  0  0  0
   19.4133   -1.7989   13.8707 C   0  0  0  0  0  0  0  0  0  0  0  0
   19.6838   -1.6125   12.5055 C   0  0  0  0  0  0  0  0  0  0  0  0
   19.6374   -2.6872   11.6167 C   0  0  0  0  0  0  0  0  0  0  0  0
   19.3379   -3.9626   12.0843 C   0  0  0  0  0  0  0  0  0  0  0  0
   19.0747   -4.1653   13.4396 C   0  0  0  0  0  0  0  0  0  0  0  0
   19.0830   -3.0907   14.3413 C   0  0  0  0  0  0  0  0  0  0  0  0
   18.7863   -3.2741   15.7006 C   0  0  0  0  0  0  0  0  0  0  0  0
   17.1407   -1.3762   20.5262 C   0  0  0  0  0  0  0  0  0  0  0  0
   18.4043   -0.6660   21.0300 C   0  0  0  0  0  0  0  0  0  0  0  0
   18.5136    0.0207   19.6604 C   0  0  0  0  0  0  0  0  0  0  0  0
   13.5308   -3.0364   17.0899 C   0  0  0  0  0  0  0  0  0  0  0  0
   13.9399   -4.2744   17.8378 C   0  0  0  0  0  0  0  0  0  0  0  0
   12.3845   -3.0860   16.2837 C   0  0  0  0  0  0  0  0  0  0  0  0
  1  2  1  0
  2  3  2  0
  3  4  1  0
  4  5  2  0
  5  6  1  0
  6  7  1  0
  7  8  2  0
  7  9  1  0
  9 10  1  0
 10 11  2  0
 10 12  2  0
 10 13  1  0
 13 14  2  0
 14 15  1  0
 15 16  2  0
 16 17  1  0
 17 18  2  0
 18 19  1  0
 19 20  2  0
 20 21  1  0
 21 22  2  0
  9 23  1  0
 23 24  1  0
 24 25  1  0
  5 26  1  0
 26 27  1  0
 26 28  2  0
 28  2  1  0
 25  9  1  0
 22 13  1  0
 21 16  1  0
M  END
>  <ref_mols>  (1271) 
B1396a

>  <gnina_score>  (1271) 
5.299

>  <smina_score_min>  (1271) 
-3.718

>  <ref_pdb>  (1271) 
B1396a

>  <inspiration_score>  (1271) 
None

>  <inchikey>  (1271) 
JJFUTOKHIDCYAP-UHFFFAOYSA-N

>  <tags>  (1271) 
BulkDock Fragalysis export,openbind_d68ev3c_c2_elabs_scored,openbind_d68ev3c_c2_elabs_scored_4.5plus,openbind_d68ev3c_c2_elabs,openbind_d68ev3c_c2_elabs_scored_5plus,syndirella_product,openbind_d68ev3c_c2_elabs_scored_top80percent,syndirella_placed

>  <smiles>  (1271) 
Cc1ccc(NC(=O)C2(S(=O)(=O)c3ccc4ccccc4c3)CCC2)c(C)c1

>  <subsites>  (1271) 
None

>  <rmsd(smina/fragmenstein)>  (1271) 
2.812

>  <alias>  (1271) 
None

>  <energy_score>  (1271) 
-37.19448

>  <HIPPO Pose ID>  (1271) 
95812

>  <distance_score>  (1271) 
0.64708

>  <HIPPO Compound ID>  (1271) 
129761

>  <gnina_score_min>  (1271) 
5.219

>  <name>  (1271) 
P95812

>  <exports>  (1271) 
['/opt/xchem-fragalysis-2/maxwin/BulkDock/OUTPUTS/openbind_d68ev3c_c2_elabs_1LOTQJ3.sdf', '/opt/xchem-fragalysis-2/maxwin/BulkDock/OUTPUTS/openbind_d68ev3c_c2_elabs_1LSYI5W.sdf']

$$$$
P95813
     RDKit          3D

 28 31  0  0  0  0  0  0  0  0999 V2000
   13.7025   -4.1782   17.6186 C   0  0  0  0  0  0  0  0  0  0  0  0
   13.2600   -2.9811   16.8187 C   0  0  0  0  0  0  0  0  0  0  0  0
   12.1120   -3.0988   16.0117 C   0  0  0  0  0  0  0  0  0  0  0  0
   11.6509   -2.0283   15.2486 C   0  0  0  0  0  0  0  0  0  0  0  0
   12.3323   -0.8194   15.2914 C   0  0  0  0  0  0  0  0  0  0  0  0
   13.4731   -0.6888   16.0836 C   0  0  0  0  0  0  0  0  0  0  0  0
   14.0444    0.5203   16.1287 F   0  0  0  0  0  0  0  0  0  0  0  0
   13.9604   -1.7583   16.8474 C   0  0  0  0  0  0  0  0  0  0  0  0
   15.1012   -1.6522   17.6573 N   0  0  0  0  0  0  0  0  0  0  0  0
   16.2482   -0.5959   17.6573 C   0  0  0  0  0  0  0  0  0  0  0  0
   16.3744    0.3894   17.0321 O   0  0  0  0  0  0  0  0  0  0  0  0
   17.2928   -0.9698   18.7550 C   0  0  0  0  0  0  0  0  0  0  0  0
   18.2455   -2.3936   18.1727 S   0  0  0  0  0  0  0  0  0  0  0  0
   19.5082   -2.4673   18.8872 O   0  0  0  0  0  0  0  0  0  0  0  0
   17.3407   -3.5351   18.2272 O   0  0  0  0  0  0  0  0  0  0  0  0
   18.6943   -2.2042   16.4579 C   0  0  0  0  0  0  0  0  0  0  0  0
   18.4246   -3.2352   15.5554 C   0  0  0  0  0  0  0  0  0  0  0  0
   18.7972   -3.0909   14.2178 C   0  0  0  0  0  0  0  0  0  0  0  0
   19.4276   -1.9191   13.7705 C   0  0  0  0  0  0  0  0  0  0  0  0
   19.7934   -1.7585   12.4250 C   0  0  0  0  0  0  0  0  0  0  0  0
   20.4236   -0.5910   11.9923 C   0  0  0  0  0  0  0  0  0  0  0  0
   20.6976    0.4289   12.8986 C   0  0  0  0  0  0  0  0  0  0  0  0
   20.3410    0.2849   14.2405 C   0  0  0  0  0  0  0  0  0  0  0  0
   19.7044   -0.8820   14.6926 C   0  0  0  0  0  0  0  0  0  0  0  0
   19.3386   -1.0380   16.0390 C   0  0  0  0  0  0  0  0  0  0  0  0
   18.1563    0.1962   19.3375 C   0  0  0  0  0  0  0  0  0  0  0  0
   17.9591   -0.3928   20.7421 C   0  0  0  0  0  0  0  0  0  0  0  0
   16.7359   -1.1482   20.2068 C   0  0  0  0  0  0  0  0  0  0  0  0
  1  2  1  0
  2  3  2  0
  3  4  1  0
  4  5  2  0
  5  6  1  0
  6  7  1  0
  6  8  2  0
  8  9  1  0
  9 10  1  0
 10 11  2  0
 10 12  1  0
 12 13  1  0
 13 14  2  0
 13 15  2  0
 13 16  1  0
 16 17  2  0
 17 18  1  0
 18 19  2  0
 19 20  1  0
 20 21  2  0
 21 22  1  0
 22 23  2  0
 23 24  1  0
 24 25  2  0
 12 26  1  0
 26 27  1  0
 27 28  1  0
  8  2  1  0
 28 12  1  0
 25 16  1  0
 24 19  1  0
M  END
>  <ref_mols>  (1272) 
B1396a

>  <gnina_score>  (1272) 
5.237

>  <smina_score_min>  (1272) 
-4.015

>  <ref_pdb>  (1272) 
B1396a

>  <inspiration_score>  (1272) 
None

>  <inchikey>  (1272) 
XFQHQMSBFFHTTK-UHFFFAOYSA-N

>  <tags>  (1272) 
BulkDock Fragalysis export,openbind_d68ev3c_c2_elabs_scored,openbind_d68ev3c_c2_elabs_scored_4.5plus,openbind_d68ev3c_c2_elabs,openbind_d68ev3c_c2_elabs_scored_5plus,syndirella_product,openbind_d68ev3c_c2_elabs_scored_top80percent,syndirella_placed

>  <smiles>  (1272) 
Cc1cccc(F)c1NC(=O)C1(S(=O)(=O)c2ccc3ccccc3c2)CCC1

>  <subsites>  (1272) 
None

>  <rmsd(smina/fragmenstein)>  (1272) 
3.32

>  <alias>  (1272) 
None

>  <energy_score>  (1272) 
-31.448771

>  <HIPPO Pose ID>  (1272) 
95813

>  <distance_score>  (1272) 
0.370825

>  <HIPPO Compound ID>  (1272) 
129762

>  <gnina_score_min>  (1272) 
5.124

>  <name>  (1272) 
P95813

>  <exports>  (1272) 
['/opt/xchem-fragalysis-2/maxwin/BulkDock/OUTPUTS/openbind_d68ev3c_c2_elabs_1LOTQJ3.sdf', '/opt/xchem-fragalysis-2/maxwin/BulkDock/OUTPUTS/openbind_d68ev3c_c2_elabs_1LSYI5W.sdf']

$$$$
P95814
     RDKit          3D

 28 31  0  0  0  0  0  0  0  0999 V2000
   13.7416   -4.1709   17.6301 C   0  0  0  0  0  0  0  0  0  0  0  0
   13.2864   -2.9796   16.8264 C   0  0  0  0  0  0  0  0  0  0  0  0
   12.1281   -3.1194   16.0386 C   0  0  0  0  0  0  0  0  0  0  0  0
   11.6460   -2.0638   15.2734 C   0  0  0  0  0  0  0  0  0  0  0  0
   12.3178   -0.8500   15.2926 C   0  0  0  0  0  0  0  0  0  0  0  0
   13.4761   -0.6913   16.0595 C   0  0  0  0  0  0  0  0  0  0  0  0
   14.0063    0.5660   15.9891 O   0  0  0  0  0  0  0  0  0  0  0  0
   13.9823   -1.7490   16.8360 C   0  0  0  0  0  0  0  0  0  0  0  0
   15.1260   -1.6557   17.6497 N   0  0  0  0  0  0  0  0  0  0  0  0
   16.2440   -0.5796   17.6987 C   0  0  0  0  0  0  0  0  0  0  0  0
   16.3461    0.4372   17.1220 O   0  0  0  0  0  0  0  0  0  0  0  0
   17.3070   -0.9736   18.7834 C   0  0  0  0  0  0  0  0  0  0  0  0
   18.2523   -2.3941   18.1929 S   0  0  0  0  0  0  0  0  0  0  0  0
   19.4880   -2.5050   18.9473 O   0  0  0  0  0  0  0  0  0  0  0  0
   17.3252   -3.5178   18.1886 O   0  0  0  0  0  0  0  0  0  0  0  0
   18.7638   -2.1762   16.5017 C   0  0  0  0  0  0  0  0  0  0  0  0
   19.2107   -0.9339   16.0584 C   0  0  0  0  0  0  0  0  0  0  0  0
   19.5867   -0.7795   14.7224 C   0  0  0  0  0  0  0  0  0  0  0  0
   19.5398   -1.8616   13.8288 C   0  0  0  0  0  0  0  0  0  0  0  0
   19.9139   -1.7134   12.4838 C   0  0  0  0  0  0  0  0  0  0  0  0
   19.8824   -2.8020   11.6114 C   0  0  0  0  0  0  0  0  0  0  0  0
   19.4939   -4.0540   12.0768 C   0  0  0  0  0  0  0  0  0  0  0  0
   19.1262   -4.2189   13.4127 C   0  0  0  0  0  0  0  0  0  0  0  0
   19.1189   -3.1286   14.2957 C   0  0  0  0  0  0  0  0  0  0  0  0
   18.7174   -3.2721   15.6326 C   0  0  0  0  0  0  0  0  0  0  0  0
   16.7869   -1.1602   20.2497 C   0  0  0  0  0  0  0  0  0  0  0  0
   17.1611    0.3087   20.5094 C   0  0  0  0  0  0  0  0  0  0  0  0
   18.1850    0.1873   19.3676 C   0  0  0  0  0  0  0  0  0  0  0  0
  1  2  1  0
  2  3  2  0
  3  4  1  0
  4  5  2  0
  5  6  1  0
  6  7  1  0
  6  8  2  0
  8  9  1  0
  9 10  1  0
 10 11  2  0
 10 12  1  0
 12 13  1  0
 13 14  2  0
 13 15  2  0
 13 16  1  0
 16 17  2  0
 17 18  1  0
 18 19  2  0
 19 20  1  0
 20 21  2  0
 21 22  1  0
 22 23  2  0
 23 24  1  0
 24 25  2  0
 12 26  1  0
 26 27  1  0
 27 28  1  0
  8  2  1  0
 28 12  1  0
 25 16  1  0
 24 19  1  0
M  END
>  <ref_mols>  (1273) 
B1396a

>  <gnina_score>  (1273) 
5.068

>  <smina_score_min>  (1273) 
-3.624

>  <ref_pdb>  (1273) 
B1396a

>  <inspiration_score>  (1273) 
None

>  <inchikey>  (1273) 
NXSOCRMNSCLSPO-UHFFFAOYSA-N

>  <tags>  (1273) 
BulkDock Fragalysis export,openbind_d68ev3c_c2_elabs_scored,openbind_d68ev3c_c2_elabs_scored_4.5plus,openbind_d68ev3c_c2_elabs,openbind_d68ev3c_c2_elabs_scored_5plus,syndirella_product,openbind_d68ev3c_c2_elabs_scored_top80percent,syndirella_placed

>  <smiles>  (1273) 
Cc1cccc(O)c1NC(=O)C1(S(=O)(=O)c2ccc3ccccc3c2)CCC1

>  <subsites>  (1273) 
None

>  <rmsd(smina/fragmenstein)>  (1273) 
1.697

>  <alias>  (1273) 
None

>  <energy_score>  (1273) 
-50.207059

>  <HIPPO Pose ID>  (1273) 
95814

>  <distance_score>  (1273) 
0.443841

>  <HIPPO Compound ID>  (1273) 
129763

>  <gnina_score_min>  (1273) 
5.116

>  <name>  (1273) 
P95814

>  <exports>  (1273) 
['/opt/xchem-fragalysis-2/maxwin/BulkDock/OUTPUTS/openbind_d68ev3c_c2_elabs_1LOTQJ3.sdf', '/opt/xchem-fragalysis-2/maxwin/BulkDock/OUTPUTS/openbind_d68ev3c_c2_elabs_1LSYI5W.sdf']

$$$$
P95815
     RDKit          3D

 28 30  0  0  0  0  0  0  0  0999 V2000
   19.9425    0.4353   14.0922 C   0  0  0  0  0  0  0  0  0  0  0  0
   19.4961   -0.9141   14.5746 C   0  0  0  0  0  0  0  0  0  0  0  0
   19.3046   -1.9584   13.6709 C   0  0  0  0  0  0  0  0  0  0  0  0
   18.8827   -3.2092   14.1202 C   0  0  0  0  0  0  0  0  0  0  0  0
   18.6191   -3.4436   15.4811 C   0  0  0  0  0  0  0  0  0  0  0  0
   18.2328   -4.8413   15.8840 C   0  0  0  0  0  0  0  0  0  0  0  0
   18.7505   -2.3688   16.3859 C   0  0  0  0  0  0  0  0  0  0  0  0
   18.3758   -2.5672   18.1264 S   0  0  0  0  0  0  0  0  0  0  0  0
   19.6476   -2.7649   18.7950 O   0  0  0  0  0  0  0  0  0  0  0  0
   17.3462   -3.5916   18.2326 O   0  0  0  0  0  0  0  0  0  0  0  0
   17.6131   -1.0804   18.7669 C   0  0  0  0  0  0  0  0  0  0  0  0
   16.5247   -0.5852   17.7904 C   0  0  0  0  0  0  0  0  0  0  0  0
   16.5604    0.5091   17.3697 O   0  0  0  0  0  0  0  0  0  0  0  0
   15.4445   -1.7050   17.6128 N   0  0  0  0  0  0  0  0  0  0  0  0
   14.2860   -1.7307   16.8347 C   0  0  0  0  0  0  0  0  0  0  0  0
   13.8928   -0.5795   16.1453 C   0  0  0  0  0  0  0  0  0  0  0  0
   12.6327   -0.4989   15.5536 C   0  0  0  0  0  0  0  0  0  0  0  0
   11.7623   -1.5821   15.6280 C   0  0  0  0  0  0  0  0  0  0  0  0
   10.3760   -1.3718   15.3377 C   0  0  0  0  0  0  0  0  0  0  0  0
    9.2384   -1.1425   15.3335 N   0  0  0  0  0  0  0  0  0  0  0  0
   12.1974   -2.7834   16.2012 C   0  0  0  0  0  0  0  0  0  0  0  0
   13.4552   -2.8657   16.8287 C   0  0  0  0  0  0  0  0  0  0  0  0
   13.8203   -4.1325   17.5559 C   0  0  0  0  0  0  0  0  0  0  0  0
   16.9576   -1.3582   20.1534 C   0  0  0  0  0  0  0  0  0  0  0  0
   17.9026   -0.7715   21.1897 C   0  0  0  0  0  0  0  0  0  0  0  0
   18.4026    0.4825   20.5102 C   0  0  0  0  0  0  0  0  0  0  0  0
   18.6681    0.0256   19.0811 C   0  0  0  0  0  0  0  0  0  0  0  0
   19.2089   -1.1239   15.9296 C   0  0  0  0  0  0  0  0  0  0  0  0
  1  2  1  0
  2  3  2  0
  3  4  1  0
  4  5  2  0
  5  6  1  0
  5  7  1  0
  7  8  1  0
  8  9  2  0
  8 10  2  0
  8 11  1  0
 11 12  1  0
 12 13  2  0
 12 14  1  0
 14 15  1  0
 15 16  2  0
 16 17  1  0
 17 18  2  0
 18 19  1  0
 19 20  3  0
 18 21  1  0
 21 22  2  0
 22 23  1  0
 11 24  1  0
 24 25  1  0
 25 26  1  0
 26 27  1  0
  7 28  2  0
 28  2  1  0
 27 11  1  0
 22 15  1  0
M  END
>  <ref_mols>  (1274) 
B1396a

>  <gnina_score>  (1274) 
5.388

>  <smina_score_min>  (1274) 
-3.594

>  <ref_pdb>  (1274) 
B1396a

>  <inspiration_score>  (1274) 
None

>  <inchikey>  (1274) 
JZSHYMMMKUCEJS-UHFFFAOYSA-N

>  <tags>  (1274) 
BulkDock Fragalysis export,openbind_d68ev3c_c2_elabs_scored,openbind_d68ev3c_c2_elabs_scored_4.5plus,openbind_d68ev3c_c2_elabs,openbind_d68ev3c_c2_elabs_scored_5plus,syndirella_product,openbind_d68ev3c_c2_elabs_scored_top80percent,syndirella_placed

>  <smiles>  (1274) 
Cc1ccc(C)c(S(=O)(=O)C2(C(=O)Nc3ccc(C#N)cc3C)CCCC2)c1

>  <subsites>  (1274) 
None

>  <rmsd(smina/fragmenstein)>  (1274) 
1.059

>  <alias>  (1274) 
None

>  <energy_score>  (1274) 
-51.315371

>  <HIPPO Pose ID>  (1274) 
95815

>  <distance_score>  (1274) 
0.585323

>  <HIPPO Compound ID>  (1274) 
129764

>  <gnina_score_min>  (1274) 
5.222

>  <name>  (1274) 
P95815

>  <exports>  (1274) 
['/opt/xchem-fragalysis-2/maxwin/BulkDock/OUTPUTS/openbind_d68ev3c_c2_elabs_1LOTQJ3.sdf', '/opt/xchem-fragalysis-2/maxwin/BulkDock/OUTPUTS/openbind_d68ev3c_c2_elabs_1LSYI5W.sdf']

$$$$
P95816
     RDKit          3D

 28 30  0  0  0  0  0  0  0  0999 V2000
   19.7632    0.2907   13.9105 C   0  0  0  0  0  0  0  0  0  0  0  0
   19.3792   -1.0347   14.5014 C   0  0  0  0  0  0  0  0  0  0  0  0
   19.2656   -2.1619   13.6904 C   0  0  0  0  0  0  0  0  0  0  0  0
   18.8905   -3.3868   14.2403 C   0  0  0  0  0  0  0  0  0  0  0  0
   18.6010   -3.5148   15.6111 C   0  0  0  0  0  0  0  0  0  0  0  0
   18.2599   -4.8886   16.1224 C   0  0  0  0  0  0  0  0  0  0  0  0
   18.6612   -2.3624   16.4231 C   0  0  0  0  0  0  0  0  0  0  0  0
   18.2657   -2.4388   18.1734 S   0  0  0  0  0  0  0  0  0  0  0  0
   17.2471   -3.4651   18.3423 O   0  0  0  0  0  0  0  0  0  0  0  0
   19.5335   -2.5682   18.8669 O   0  0  0  0  0  0  0  0  0  0  0  0
   17.4739   -0.9215   18.7078 C   0  0  0  0  0  0  0  0  0  0  0  0
   16.4075   -0.5463   17.6487 C   0  0  0  0  0  0  0  0  0  0  0  0
   16.5197    0.4326   17.0118 O   0  0  0  0  0  0  0  0  0  0  0  0
   15.2420   -1.5938   17.7034 N   0  0  0  0  0  0  0  0  0  0  0  0
   14.0583   -1.6913   16.9350 C   0  0  0  0  0  0  0  0  0  0  0  0
   13.4360   -2.9726   16.9220 C   0  0  0  0  0  0  0  0  0  0  0  0
   13.9807   -4.1595   17.6794 C   0  0  0  0  0  0  0  0  0  0  0  0
   12.2629   -3.1797   16.1798 C   0  0  0  0  0  0  0  0  0  0  0  0
   11.6955   -2.1438   15.4668 C   0  0  0  0  0  0  0  0  0  0  0  0
   10.5591   -2.3559   14.7954 F   0  0  0  0  0  0  0  0  0  0  0  0
   12.2551   -0.8808   15.4962 C   0  0  0  0  0  0  0  0  0  0  0  0
   13.4245   -0.6305   16.2400 C   0  0  0  0  0  0  0  0  0  0  0  0
   13.8067    1.1145   16.3472 S   0  0  0  0  0  0  0  0  0  0  0  0
   18.5183    0.2139   18.9402 C   0  0  0  0  0  0  0  0  0  0  0  0
   18.5862    0.4455   20.4448 C   0  0  0  0  0  0  0  0  0  0  0  0
   17.1801    0.1450   20.9048 C   0  0  0  0  0  0  0  0  0  0  0  0
   16.8318   -1.1079   20.1163 C   0  0  0  0  0  0  0  0  0  0  0  0
   19.0663   -1.1403   15.8634 C   0  0  0  0  0  0  0  0  0  0  0  0
  1  2  1  0
  2  3  2  0
  3  4  1  0
  4  5  2  0
  5  6  1  0
  5  7  1  0
  7  8  1  0
  8  9  2  0
  8 10  2  0
  8 11  1  0
 11 12  1  0
 12 13  2  0
 12 14  1  0
 14 15  1  0
 15 16  2  0
 16 17  1  0
 16 18  1  0
 18 19  2  0
 19 20  1  0
 19 21  1  0
 21 22  2  0
 22 23  1  0
 11 24  1  0
 24 25  1  0
 25 26  1  0
 26 27  1  0
  7 28  2  0
 28  2  1  0
 27 11  1  0
 22 15  1  0
M  END
>  <ref_mols>  (1275) 
B1396a

>  <gnina_score>  (1275) 
5.431

>  <smina_score_min>  (1275) 
-3.671

>  <ref_pdb>  (1275) 
B1396a

>  <inspiration_score>  (1275) 
None

>  <inchikey>  (1275) 
FEVQEJAMBJCNGJ-UHFFFAOYSA-N

>  <tags>  (1275) 
BulkDock Fragalysis export,openbind_d68ev3c_c2_elabs_scored,openbind_d68ev3c_c2_elabs_scored_4.5plus,openbind_d68ev3c_c2_elabs,openbind_d68ev3c_c2_elabs_scored_5plus,syndirella_product,openbind_d68ev3c_c2_elabs_scored_top80percent,syndirella_placed

>  <smiles>  (1275) 
Cc1ccc(C)c(S(=O)(=O)C2(C(=O)Nc3c(C)cc(F)cc3S)CCCC2)c1

>  <subsites>  (1275) 
None

>  <rmsd(smina/fragmenstein)>  (1275) 
0.987

>  <alias>  (1275) 
None

>  <energy_score>  (1275) 
-46.946964

>  <HIPPO Pose ID>  (1275) 
95816

>  <distance_score>  (1275) 
0.466726

>  <HIPPO Compound ID>  (1275) 
129765

>  <gnina_score_min>  (1275) 
5.56

>  <name>  (1275) 
P95816

>  <exports>  (1275) 
['/opt/xchem-fragalysis-2/maxwin/BulkDock/OUTPUTS/openbind_d68ev3c_c2_elabs_1LOTQJ3.sdf', '/opt/xchem-fragalysis-2/maxwin/BulkDock/OUTPUTS/openbind_d68ev3c_c2_elabs_1LSYI5W.sdf']

$$$$
P95817
     RDKit          3D

 28 30  0  0  0  0  0  0  0  0999 V2000
   20.1518    0.4276   14.3216 C   0  0  0  0  0  0  0  0  0  0  0  0
   19.5571   -0.8829   14.7470 C   0  0  0  0  0  0  0  0  0  0  0  0
   19.3249   -1.8899   13.8113 C   0  0  0  0  0  0  0  0  0  0  0  0
   18.8313   -3.1287   14.2192 C   0  0  0  0  0  0  0  0  0  0  0  0
   18.5478   -3.3921   15.5717 C   0  0  0  0  0  0  0  0  0  0  0  0
   18.0955   -4.7825   15.9270 C   0  0  0  0  0  0  0  0  0  0  0  0
   18.7418   -2.3582   16.5128 C   0  0  0  0  0  0  0  0  0  0  0  0
   18.3945   -2.5858   18.2577 S   0  0  0  0  0  0  0  0  0  0  0  0
   17.4171   -3.6580   18.3678 O   0  0  0  0  0  0  0  0  0  0  0  0
   19.6874   -2.7247   18.9008 O   0  0  0  0  0  0  0  0  0  0  0  0
   17.5674   -1.1566   18.9292 C   0  0  0  0  0  0  0  0  0  0  0  0
   16.5084   -0.6795   17.9165 C   0  0  0  0  0  0  0  0  0  0  0  0
   16.5948    0.3823   17.4259 O   0  0  0  0  0  0  0  0  0  0  0  0
   15.3813   -1.7586   17.8042 N   0  0  0  0  0  0  0  0  0  0  0  0
   14.2276   -1.7839   17.0218 C   0  0  0  0  0  0  0  0  0  0  0  0
   13.8359   -0.6234   16.3454 C   0  0  0  0  0  0  0  0  0  0  0  0
   12.6136   -0.5664   15.6831 C   0  0  0  0  0  0  0  0  0  0  0  0
   11.7902   -1.6809   15.6782 C   0  0  0  0  0  0  0  0  0  0  0  0
   10.2025   -1.5250   15.0613 Cl  0  0  0  0  0  0  0  0  0  0  0  0
   12.2018   -2.8736   16.2694 C   0  0  0  0  0  0  0  0  0  0  0  0
   13.4170   -2.9343   16.9736 C   0  0  0  0  0  0  0  0  0  0  0  0
   13.7611   -4.2031   17.7066 C   0  0  0  0  0  0  0  0  0  0  0  0
   13.6169   -3.9900   19.1008 O   0  0  0  0  0  0  0  0  0  0  0  0
   18.5367   -0.0163   19.3189 C   0  0  0  0  0  0  0  0  0  0  0  0
   17.8510    0.7631   20.4450 C   0  0  0  0  0  0  0  0  0  0  0  0
   16.7208   -0.1194   20.9529 C   0  0  0  0  0  0  0  0  0  0  0  0
   16.9553   -1.4777   20.3101 C   0  0  0  0  0  0  0  0  0  0  0  0
   19.2839   -1.1326   16.0982 C   0  0  0  0  0  0  0  0  0  0  0  0
  1  2  1  0
  2  3  2  0
  3  4  1  0
  4  5  2  0
  5  6  1  0
  5  7  1  0
  7  8  1  0
  8  9  2  0
  8 10  2  0
  8 11  1  0
 11 12  1  0
 12 13  2  0
 12 14  1  0
 14 15  1  0
 15 16  2  0
 16 17  1  0
 17 18  2  0
 18 19  1  0
 18 20  1  0
 20 21  2  0
 21 22  1  0
 22 23  1  0
 11 24  1  0
 24 25  1  0
 25 26  1  0
 26 27  1  0
  7 28  2  0
 28  2  1  0
 27 11  1  0
 21 15  1  0
M  END
>  <ref_mols>  (1276) 
B1396a

>  <gnina_score>  (1276) 
5.266

>  <smina_score_min>  (1276) 
-3.376

>  <ref_pdb>  (1276) 
B1396a

>  <inspiration_score>  (1276) 
None

>  <inchikey>  (1276) 
OVENQTLQBPFXNK-UHFFFAOYSA-N

>  <tags>  (1276) 
BulkDock Fragalysis export,openbind_d68ev3c_c2_elabs_scored,openbind_d68ev3c_c2_elabs_scored_4.5plus,openbind_d68ev3c_c2_elabs,openbind_d68ev3c_c2_elabs_scored_5plus,syndirella_product,openbind_d68ev3c_c2_elabs_scored_top80percent,syndirella_placed

>  <smiles>  (1276) 
Cc1ccc(C)c(S(=O)(=O)C2(C(=O)Nc3ccc(Cl)cc3CO)CCCC2)c1

>  <subsites>  (1276) 
None

>  <rmsd(smina/fragmenstein)>  (1276) 
0.893

>  <alias>  (1276) 
None

>  <energy_score>  (1276) 
-53.644579

>  <HIPPO Pose ID>  (1276) 
95817

>  <distance_score>  (1276) 
0.564411

>  <HIPPO Compound ID>  (1276) 
129766

>  <gnina_score_min>  (1276) 
5.278

>  <name>  (1276) 
P95817

>  <exports>  (1276) 
['/opt/xchem-fragalysis-2/maxwin/BulkDock/OUTPUTS/openbind_d68ev3c_c2_elabs_1LOTQJ3.sdf', '/opt/xchem-fragalysis-2/maxwin/BulkDock/OUTPUTS/openbind_d68ev3c_c2_elabs_1LSYI5W.sdf']

$$$$
P95818
     RDKit          3D

 28 31  0  0  0  0  0  0  0  0999 V2000
   19.2519   -4.5417   13.3443 C   0  0  0  0  0  0  0  0  0  0  0  0
   19.4877   -3.3753   14.2556 C   0  0  0  0  0  0  0  0  0  0  0  0
   20.2131   -2.2810   13.7925 C   0  0  0  0  0  0  0  0  0  0  0  0
   20.5296   -1.2337   14.6553 C   0  0  0  0  0  0  0  0  0  0  0  0
   20.1178   -1.2328   16.0028 C   0  0  0  0  0  0  0  0  0  0  0  0
   20.6235   -0.0820   16.8250 C   0  0  0  0  0  0  0  0  0  0  0  0
   19.2806   -2.2795   16.4370 C   0  0  0  0  0  0  0  0  0  0  0  0
   18.5467   -2.3642   18.0811 S   0  0  0  0  0  0  0  0  0  0  0  0
   17.9734   -3.6944   18.2405 O   0  0  0  0  0  0  0  0  0  0  0  0
   19.5712   -1.9528   19.0246 O   0  0  0  0  0  0  0  0  0  0  0  0
   17.1698   -1.2088   18.1637 C   0  0  0  0  0  0  0  0  0  0  0  0
   16.1570   -1.6860   17.0944 C   0  0  0  0  0  0  0  0  0  0  0  0
   16.5172   -1.9556   16.0082 O   0  0  0  0  0  0  0  0  0  0  0  0
   14.7641   -1.6220   17.6736 N   0  0  0  0  0  0  0  0  0  0  0  0
   14.3243   -3.0364   18.2899 C   0  0  0  0  0  0  0  0  0  0  0  0
   13.7461   -4.0361   17.3247 C   0  0  0  0  0  0  0  0  0  0  0  0
   12.9450   -3.0130   16.6740 C   0  0  0  0  0  0  0  0  0  0  0  0
   11.8678   -3.1443   15.8116 C   0  0  0  0  0  0  0  0  0  0  0  0
   11.2895   -1.9943   15.2776 C   0  0  0  0  0  0  0  0  0  0  0  0
   11.8091   -0.7430   15.6072 C   0  0  0  0  0  0  0  0  0  0  0  0
   11.0367    0.8165   14.8738 Br  0  0  0  0  0  0  0  0  0  0  0  0
   12.9023   -0.6309   16.4657 C   0  0  0  0  0  0  0  0  0  0  0  0
   13.4577   -1.7788   17.0333 C   0  0  0  0  0  0  0  0  0  0  0  0
   16.6866   -1.0871   19.6268 C   0  0  0  0  0  0  0  0  0  0  0  0
   16.0200    0.2849   19.7530 C   0  0  0  0  0  0  0  0  0  0  0  0
   16.4409    1.0731   18.5194 C   0  0  0  0  0  0  0  0  0  0  0  0
   17.5484    0.2469   17.8748 C   0  0  0  0  0  0  0  0  0  0  0  0
   19.0082   -3.3612   15.5706 C   0  0  0  0  0  0  0  0  0  0  0  0
  1  2  1  0
  2  3  2  0
  3  4  1  0
  4  5  2  0
  5  6  1  0
  5  7  1  0
  7  8  1  0
  8  9  2  0
  8 10  2  0
  8 11  1  0
 11 12  1  0
 12 13  2  0
 12 14  1  0
 14 15  1  0
 15 16  1  0
 16 17  1  0
 17 18  2  0
 18 19  1  0
 19 20  2  0
 20 21  1  0
 20 22  1  0
 22 23  2  0
 11 24  1  0
 24 25  1  0
 25 26  1  0
 26 27  1  0
  7 28  2  0
 28  2  1  0
 27 11  1  0
 23 14  1  0
 23 17  1  0
M  END
>  <ref_mols>  (1277) 
B1396a

>  <gnina_score>  (1277) 
5.323

>  <smina_score_min>  (1277) 
-3.771

>  <ref_pdb>  (1277) 
B1396a

>  <inspiration_score>  (1277) 
None

>  <inchikey>  (1277) 
OAMREWKRSJINMX-UHFFFAOYSA-N

>  <tags>  (1277) 
BulkDock Fragalysis export,openbind_d68ev3c_c2_elabs_scored,openbind_d68ev3c_c2_elabs_scored_4.5plus,openbind_d68ev3c_c2_elabs,openbind_d68ev3c_c2_elabs_scored_5plus,syndirella_product,openbind_d68ev3c_c2_elabs_scored_top80percent,syndirella_placed

>  <smiles>  (1277) 
Cc1ccc(C)c(S(=O)(=O)C2(C(=O)N3CCc4ccc(Br)cc43)CCCC2)c1

>  <subsites>  (1277) 
None

>  <rmsd(smina/fragmenstein)>  (1277) 
2.958

>  <alias>  (1277) 
None

>  <energy_score>  (1277) 
-3.937927

>  <HIPPO Pose ID>  (1277) 
95818

>  <distance_score>  (1277) 
0.622962

>  <HIPPO Compound ID>  (1277) 
129767

>  <gnina_score_min>  (1277) 
5.201

>  <name>  (1277) 
P95818

>  <exports>  (1277) 
['/opt/xchem-fragalysis-2/maxwin/BulkDock/OUTPUTS/openbind_d68ev3c_c2_elabs_1LOTQJ3.sdf', '/opt/xchem-fragalysis-2/maxwin/BulkDock/OUTPUTS/openbind_d68ev3c_c2_elabs_1LSYI5W.sdf']

$$$$
P95819
     RDKit          3D

 28 30  0  0  0  0  0  0  0  0999 V2000
   10.7852   -2.3670   14.6449 C   0  0  0  0  0  0  0  0  0  0  0  0
   11.9958   -2.1579   15.4845 C   0  0  0  0  0  0  0  0  0  0  0  0
   12.4341   -3.1358   16.3634 C   0  0  0  0  0  0  0  0  0  0  0  0
   13.6289   -2.9725   17.0799 C   0  0  0  0  0  0  0  0  0  0  0  0
   14.0186   -4.1038   18.0021 C   0  0  0  0  0  0  0  0  0  0  0  0
   14.4293   -1.8057   16.9037 C   0  0  0  0  0  0  0  0  0  0  0  0
   15.6120   -1.7897   17.6738 N   0  0  0  0  0  0  0  0  0  0  0  0
   16.6068   -0.6209   17.9850 C   0  0  0  0  0  0  0  0  0  0  0  0
   16.6325    0.4803   17.5852 O   0  0  0  0  0  0  0  0  0  0  0  0
   17.6659   -1.1186   18.9841 C   0  0  0  0  0  0  0  0  0  0  0  0
   18.4950   -2.5540   18.2947 S   0  0  0  0  0  0  0  0  0  0  0  0
   19.7858   -2.7137   18.9350 O   0  0  0  0  0  0  0  0  0  0  0  0
   17.5135   -3.6264   18.3875 O   0  0  0  0  0  0  0  0  0  0  0  0
   18.8277   -2.2966   16.5506 C   0  0  0  0  0  0  0  0  0  0  0  0
   19.3147   -1.0457   16.1443 C   0  0  0  0  0  0  0  0  0  0  0  0
   19.5569   -0.7731   14.7915 C   0  0  0  0  0  0  0  0  0  0  0  0
   20.0902    0.5658   14.3725 C   0  0  0  0  0  0  0  0  0  0  0  0
   19.3451   -1.7770   13.8465 C   0  0  0  0  0  0  0  0  0  0  0  0
   18.8932   -3.0346   14.2448 C   0  0  0  0  0  0  0  0  0  0  0  0
   18.6418   -3.3228   15.5981 C   0  0  0  0  0  0  0  0  0  0  0  0
   18.2173   -4.7258   15.9386 C   0  0  0  0  0  0  0  0  0  0  0  0
   16.9689   -1.4725   20.3302 C   0  0  0  0  0  0  0  0  0  0  0  0
   17.8033   -0.8185   21.4216 C   0  0  0  0  0  0  0  0  0  0  0  0
   18.2753    0.4608   20.7679 C   0  0  0  0  0  0  0  0  0  0  0  0
   18.6725    0.0053   19.3701 C   0  0  0  0  0  0  0  0  0  0  0  0
   13.9885   -0.8440   15.9743 C   0  0  0  0  0  0  0  0  0  0  0  0
   14.9800    0.6229   15.2873 Br  0  0  0  0  0  0  0  0  0  0  0  0
   12.7671   -1.0155   15.3030 C   0  0  0  0  0  0  0  0  0  0  0  0
  1  2  1  0
  2  3  2  0
  3  4  1  0
  4  5  1  0
  4  6  2  0
  6  7  1  0
  7  8  1  0
  8  9  2  0
  8 10  1  0
 10 11  1  0
 11 12  2  0
 11 13  2  0
 11 14  1  0
 14 15  2  0
 15 16  1  0
 16 17  1  0
 16 18  2  0
 18 19  1  0
 19 20  2  0
 20 21  1  0
 10 22  1  0
 22 23  1  0
 23 24  1  0
 24 25  1  0
  6 26  1  0
 26 27  1  0
 26 28  2  0
 28  2  1  0
 25 10  1  0
 20 14  1  0
M  END
>  <ref_mols>  (1278) 
B1396a

>  <gnina_score>  (1278) 
5.407

>  <smina_score_min>  (1278) 
-3.228

>  <ref_pdb>  (1278) 
B1396a

>  <inspiration_score>  (1278) 
None

>  <inchikey>  (1278) 
XDSUICORPAEKHO-UHFFFAOYSA-N

>  <tags>  (1278) 
BulkDock Fragalysis export,openbind_d68ev3c_c2_elabs_scored,openbind_d68ev3c_c2_elabs_scored_4.5plus,openbind_d68ev3c_c2_elabs,openbind_d68ev3c_c2_elabs_scored_5plus,syndirella_product,openbind_d68ev3c_c2_elabs_scored_top80percent,syndirella_placed

>  <smiles>  (1278) 
Cc1cc(C)c(NC(=O)C2(S(=O)(=O)c3cc(C)ccc3C)CCCC2)c(Br)c1

>  <subsites>  (1278) 
None

>  <rmsd(smina/fragmenstein)>  (1278) 
1.389

>  <alias>  (1278) 
None

>  <energy_score>  (1278) 
-40.773004

>  <HIPPO Pose ID>  (1278) 
95819

>  <distance_score>  (1278) 
0.660749

>  <HIPPO Compound ID>  (1278) 
129768

>  <gnina_score_min>  (1278) 
5.177

>  <name>  (1278) 
P95819

>  <exports>  (1278) 
['/opt/xchem-fragalysis-2/maxwin/BulkDock/OUTPUTS/openbind_d68ev3c_c2_elabs_1LOTQJ3.sdf', '/opt/xchem-fragalysis-2/maxwin/BulkDock/OUTPUTS/openbind_d68ev3c_c2_elabs_1LSYI5W.sdf']

$$$$
P95820
     RDKit          3D

 28 30  0  0  0  0  0  0  0  0999 V2000
   19.8874    0.2213   13.8888 C   0  0  0  0  0  0  0  0  0  0  0  0
   19.3872   -1.0605   14.4887 C   0  0  0  0  0  0  0  0  0  0  0  0
   19.2758   -2.2087   13.7078 C   0  0  0  0  0  0  0  0  0  0  0  0
   18.8485   -3.4069   14.2785 C   0  0  0  0  0  0  0  0  0  0  0  0
   18.5223   -3.4916   15.6445 C   0  0  0  0  0  0  0  0  0  0  0  0
   18.1085   -4.8372   16.1783 C   0  0  0  0  0  0  0  0  0  0  0  0
   18.6201   -2.3257   16.4334 C   0  0  0  0  0  0  0  0  0  0  0  0
   18.2226   -2.3531   18.1834 S   0  0  0  0  0  0  0  0  0  0  0  0
   17.1664   -3.3381   18.3750 O   0  0  0  0  0  0  0  0  0  0  0  0
   19.4831   -2.5092   18.8840 O   0  0  0  0  0  0  0  0  0  0  0  0
   17.4776   -0.8006   18.6822 C   0  0  0  0  0  0  0  0  0  0  0  0
   16.3879   -0.4451   17.6373 C   0  0  0  0  0  0  0  0  0  0  0  0
   16.4861    0.5170   16.9738 O   0  0  0  0  0  0  0  0  0  0  0  0
   15.2261   -1.4971   17.7367 N   0  0  0  0  0  0  0  0  0  0  0  0
   14.0277   -1.6193   16.9864 C   0  0  0  0  0  0  0  0  0  0  0  0
   13.3991   -0.5640   16.2921 C   0  0  0  0  0  0  0  0  0  0  0  0
   13.7743    1.1083   16.5137 Cl  0  0  0  0  0  0  0  0  0  0  0  0
   12.2739   -0.7946   15.4773 C   0  0  0  0  0  0  0  0  0  0  0  0
   11.7182   -2.0611   15.3658 C   0  0  0  0  0  0  0  0  0  0  0  0
   12.2658   -3.0982   16.1056 C   0  0  0  0  0  0  0  0  0  0  0  0
   13.3963   -2.8858   16.9185 C   0  0  0  0  0  0  0  0  0  0  0  0
   13.8670   -4.0640   17.6869 C   0  0  0  0  0  0  0  0  0  0  0  0
   13.6023   -5.2059   17.3334 O   0  0  0  0  0  0  0  0  0  0  0  0
   18.5445    0.3239   18.8552 C   0  0  0  0  0  0  0  0  0  0  0  0
   18.5526    0.7088   20.3311 C   0  0  0  0  0  0  0  0  0  0  0  0
   17.1476    0.4009   20.7905 C   0  0  0  0  0  0  0  0  0  0  0  0
   16.8632   -0.9265   20.1074 C   0  0  0  0  0  0  0  0  0  0  0  0
   19.0738   -1.1309   15.8526 C   0  0  0  0  0  0  0  0  0  0  0  0
  1  2  1  0
  2  3  2  0
  3  4  1  0
  4  5  2  0
  5  6  1  0
  5  7  1  0
  7  8  1  0
  8  9  2  0
  8 10  2  0
  8 11  1  0
 11 12  1  0
 12 13  2  0
 12 14  1  0
 14 15  1  0
 15 16  2  0
 16 17  1  0
 16 18  1  0
 18 19  2  0
 19 20  1  0
 20 21  2  0
 21 22  1  0
 22 23  2  0
 11 24  1  0
 24 25  1  0
 25 26  1  0
 26 27  1  0
  7 28  2  0
 28  2  1  0
 27 11  1  0
 21 15  1  0
M  END
>  <ref_mols>  (1279) 
B1396a

>  <gnina_score>  (1279) 
5.345

>  <smina_score_min>  (1279) 
-3.673

>  <ref_pdb>  (1279) 
B1396a

>  <inspiration_score>  (1279) 
None

>  <inchikey>  (1279) 
KBEOIYRULJZLOE-UHFFFAOYSA-N

>  <tags>  (1279) 
BulkDock Fragalysis export,openbind_d68ev3c_c2_elabs_scored,openbind_d68ev3c_c2_elabs_scored_4.5plus,openbind_d68ev3c_c2_elabs,openbind_d68ev3c_c2_elabs_scored_5plus,syndirella_product,openbind_d68ev3c_c2_elabs_scored_top80percent,syndirella_placed

>  <smiles>  (1279) 
Cc1ccc(C)c(S(=O)(=O)C2(C(=O)Nc3c(Cl)cccc3C=O)CCCC2)c1

>  <subsites>  (1279) 
None

>  <rmsd(smina/fragmenstein)>  (1279) 
1.888

>  <alias>  (1279) 
None

>  <energy_score>  (1279) 
-40.95694

>  <HIPPO Pose ID>  (1279) 
95820

>  <distance_score>  (1279) 
0.489423

>  <HIPPO Compound ID>  (1279) 
129770

>  <gnina_score_min>  (1279) 
5.123

>  <name>  (1279) 
P95820

>  <exports>  (1279) 
['/opt/xchem-fragalysis-2/maxwin/BulkDock/OUTPUTS/openbind_d68ev3c_c2_elabs_1LOTQJ3.sdf', '/opt/xchem-fragalysis-2/maxwin/BulkDock/OUTPUTS/openbind_d68ev3c_c2_elabs_1LSYI5W.sdf']

$$$$
P95823
     RDKit          3D

 28 30  0  0  0  0  0  0  0  0999 V2000
   20.0248    0.4808   14.1491 C   0  0  0  0  0  0  0  0  0  0  0  0
   19.4950   -0.8411   14.6237 C   0  0  0  0  0  0  0  0  0  0  0  0
   19.2884   -1.8829   13.7201 C   0  0  0  0  0  0  0  0  0  0  0  0
   18.8515   -3.1284   14.1696 C   0  0  0  0  0  0  0  0  0  0  0  0
   18.6074   -3.3658   15.5338 C   0  0  0  0  0  0  0  0  0  0  0  0
   18.2007   -4.7592   15.9345 C   0  0  0  0  0  0  0  0  0  0  0  0
   18.7865   -2.3016   16.4444 C   0  0  0  0  0  0  0  0  0  0  0  0
   18.4735   -2.5099   18.1960 S   0  0  0  0  0  0  0  0  0  0  0  0
   19.7675   -2.7020   18.8208 O   0  0  0  0  0  0  0  0  0  0  0  0
   17.4503   -3.5354   18.3266 O   0  0  0  0  0  0  0  0  0  0  0  0
   17.7190   -1.0353   18.8726 C   0  0  0  0  0  0  0  0  0  0  0  0
   16.5846   -0.5539   17.9419 C   0  0  0  0  0  0  0  0  0  0  0  0
   16.5777    0.5477   17.5392 O   0  0  0  0  0  0  0  0  0  0  0  0
   15.5277   -1.6989   17.7816 N   0  0  0  0  0  0  0  0  0  0  0  0
   14.3407   -1.7422   17.0405 C   0  0  0  0  0  0  0  0  0  0  0  0
   13.9002   -0.5871   16.3854 C   0  0  0  0  0  0  0  0  0  0  0  0
   12.6689   -0.5649   15.7329 C   0  0  0  0  0  0  0  0  0  0  0  0
   11.8786   -1.7055   15.7173 C   0  0  0  0  0  0  0  0  0  0  0  0
   10.3033   -1.6034   15.0622 Cl  0  0  0  0  0  0  0  0  0  0  0  0
   12.3245   -2.8871   16.3015 C   0  0  0  0  0  0  0  0  0  0  0  0
   13.5513   -2.9056   16.9804 C   0  0  0  0  0  0  0  0  0  0  0  0
   13.9628   -4.1257   17.6070 C   0  0  0  0  0  0  0  0  0  0  0  0
   14.3212   -5.1110   18.0996 N   0  0  0  0  0  0  0  0  0  0  0  0
   17.1217   -1.3263   20.2827 C   0  0  0  0  0  0  0  0  0  0  0  0
   18.0716   -0.6870   21.2837 C   0  0  0  0  0  0  0  0  0  0  0  0
   18.5167    0.5679   20.5683 C   0  0  0  0  0  0  0  0  0  0  0  0
   18.7680    0.0849   19.1457 C   0  0  0  0  0  0  0  0  0  0  0  0
   19.2585   -1.0627   15.9866 C   0  0  0  0  0  0  0  0  0  0  0  0
  1  2  1  0
  2  3  2  0
  3  4  1  0
  4  5  2  0
  5  6  1  0
  5  7  1  0
  7  8  1  0
  8  9  2  0
  8 10  2  0
  8 11  1  0
 11 12  1  0
 12 13  2  0
 12 14  1  0
 14 15  1  0
 15 16  2  0
 16 17  1  0
 17 18  2  0
 18 19  1  0
 18 20  1  0
 20 21  2  0
 21 22  1  0
 22 23  3  0
 11 24  1  0
 24 25  1  0
 25 26  1  0
 26 27  1  0
  7 28  2  0
 28  2  1  0
 27 11  1  0
 21 15  1  0
M  END
>  <ref_mols>  (1280) 
B1396a

>  <gnina_score>  (1280) 
5.673

>  <smina_score_min>  (1280) 
-2.955

>  <ref_pdb>  (1280) 
B1396a

>  <inspiration_score>  (1280) 
None

>  <inchikey>  (1280) 
QXJDYZZFXKAUKX-UHFFFAOYSA-N

>  <tags>  (1280) 
BulkDock Fragalysis export,openbind_d68ev3c_c2_elabs_scored,openbind_d68ev3c_c2_elabs_scored_4.5plus,openbind_d68ev3c_c2_elabs,openbind_d68ev3c_c2_elabs_scored_5plus,syndirella_product,openbind_d68ev3c_c2_elabs_scored_top80percent,syndirella_placed

>  <smiles>  (1280) 
Cc1ccc(C)c(S(=O)(=O)C2(C(=O)Nc3ccc(Cl)cc3C#N)CCCC2)c1

>  <subsites>  (1280) 
None

>  <rmsd(smina/fragmenstein)>  (1280) 
1.022

>  <alias>  (1280) 
None

>  <energy_score>  (1280) 
-71.302317

>  <HIPPO Pose ID>  (1280) 
95823

>  <distance_score>  (1280) 
0.637249

>  <HIPPO Compound ID>  (1280) 
129773

>  <gnina_score_min>  (1280) 
5.462

>  <name>  (1280) 
P95823

>  <exports>  (1280) 
['/opt/xchem-fragalysis-2/maxwin/BulkDock/OUTPUTS/openbind_d68ev3c_c2_elabs_1LOTQJ3.sdf', '/opt/xchem-fragalysis-2/maxwin/BulkDock/OUTPUTS/openbind_d68ev3c_c2_elabs_1LSYI5W.sdf']

$$$$
P95824
     RDKit          3D

 28 31  0  0  0  0  0  0  0  0999 V2000
   20.9568    0.2560   14.2655 C   0  0  0  0  0  0  0  0  0  0  0  0
   20.2732   -1.0108   14.6869 C   0  0  0  0  0  0  0  0  0  0  0  0
   19.9606   -1.9920   13.7460 C   0  0  0  0  0  0  0  0  0  0  0  0
   19.3302   -3.1730   14.1396 C   0  0  0  0  0  0  0  0  0  0  0  0
   18.9595   -3.3929   15.4783 C   0  0  0  0  0  0  0  0  0  0  0  0
   18.3627   -4.7297   15.8126 C   0  0  0  0  0  0  0  0  0  0  0  0
   19.1885   -2.3571   16.4097 C   0  0  0  0  0  0  0  0  0  0  0  0
   18.6182   -2.4147   18.1176 S   0  0  0  0  0  0  0  0  0  0  0  0
   18.0992   -3.7478   18.3578 O   0  0  0  0  0  0  0  0  0  0  0  0
   19.7375   -1.9626   18.9285 O   0  0  0  0  0  0  0  0  0  0  0  0
   17.2468   -1.2296   18.3249 C   0  0  0  0  0  0  0  0  0  0  0  0
   16.2750   -1.4802   17.1507 C   0  0  0  0  0  0  0  0  0  0  0  0
   16.6964   -1.2868   16.0662 O   0  0  0  0  0  0  0  0  0  0  0  0
   14.8727   -1.8496   17.6094 N   0  0  0  0  0  0  0  0  0  0  0  0
   13.6199   -1.9746   16.8502 C   0  0  0  0  0  0  0  0  0  0  0  0
   13.2672   -0.8086   16.1474 C   0  0  0  0  0  0  0  0  0  0  0  0
   12.1505   -0.7694   15.3071 C   0  0  0  0  0  0  0  0  0  0  0  0
   11.3802   -1.9123   15.1351 C   0  0  0  0  0  0  0  0  0  0  0  0
   11.7229   -3.0735   15.8152 C   0  0  0  0  0  0  0  0  0  0  0  0
   12.8136   -3.0645   16.6756 C   0  0  0  0  0  0  0  0  0  0  0  0
   13.3039   -4.1338   17.4939 C   0  0  0  0  0  0  0  0  0  0  0  0
   14.6709   -3.5042   17.6652 C   0  0  2  0  0  0  0  0  0  0  0  0
   15.1013   -4.0077   19.0610 C   0  0  0  0  0  0  0  0  0  0  0  0
   16.6965   -1.2649   19.7757 C   0  0  0  0  0  0  0  0  0  0  0  0
   16.9685    0.1025   20.3970 C   0  0  0  0  0  0  0  0  0  0  0  0
   16.9739    1.0366   19.2099 C   0  0  0  0  0  0  0  0  0  0  0  0
   17.7637    0.2376   18.1870 C   0  0  0  0  0  0  0  0  0  0  0  0
   19.8833   -1.1992   16.0174 C   0  0  0  0  0  0  0  0  0  0  0  0
  1  2  1  0
  2  3  2  0
  3  4  1  0
  4  5  2  0
  5  6  1  0
  5  7  1  0
  7  8  1  0
  8  9  2  0
  8 10  2  0
  8 11  1  0
 11 12  1  0
 12 13  2  0
 12 14  1  0
 14 15  1  0
 15 16  2  0
 16 17  1  0
 17 18  2  0
 18 19  1  0
 19 20  2  0
 20 21  1  0
 21 22  1  0
 22 23  1  1
 11 24  1  0
 24 25  1  0
 25 26  1  0
 26 27  1  0
  7 28  2  0
 28  2  1  0
 27 11  1  0
 22 14  1  0
 20 15  1  0
M  END
>  <ref_mols>  (1281) 
B1396a

>  <gnina_score>  (1281) 
5.165

>  <smina_score_min>  (1281) 
-4.095

>  <ref_pdb>  (1281) 
B1396a

>  <inspiration_score>  (1281) 
None

>  <inchikey>  (1281) 
QCZLEWDEXXOODC-SFHVURJKSA-N

>  <tags>  (1281) 
BulkDock Fragalysis export,openbind_d68ev3c_c2_elabs_scored,openbind_d68ev3c_c2_elabs_scored_4.5plus,openbind_d68ev3c_c2_elabs,openbind_d68ev3c_c2_elabs_scored_5plus,syndirella_product,openbind_d68ev3c_c2_elabs_scored_top80percent,syndirella_placed

>  <smiles>  (1281) 
Cc1ccc(C)c(S(=O)(=O)C2(C(=O)N3c4ccccc4C[C@@H]3C)CCCC2)c1

>  <subsites>  (1281) 
None

>  <rmsd(smina/fragmenstein)>  (1281) 
1.522

>  <alias>  (1281) 
None

>  <energy_score>  (1281) 
-3.390695

>  <HIPPO Pose ID>  (1281) 
95824

>  <distance_score>  (1281) 
0.487022

>  <HIPPO Compound ID>  (1281) 
129774

>  <gnina_score_min>  (1281) 
5.103

>  <name>  (1281) 
P95824

>  <exports>  (1281) 
['/opt/xchem-fragalysis-2/maxwin/BulkDock/OUTPUTS/openbind_d68ev3c_c2_elabs_1LOTQJ3.sdf', '/opt/xchem-fragalysis-2/maxwin/BulkDock/OUTPUTS/openbind_d68ev3c_c2_elabs_1LSYI5W.sdf']

$$$$
P95826
     RDKit          3D

 28 31  0  0  0  0  0  0  0  0999 V2000
   13.7460   -4.1182   17.5104 C   0  0  0  0  0  0  0  0  0  0  0  0
   13.3975   -2.8069   16.8582 C   0  0  0  0  0  0  0  0  0  0  0  0
   12.1490   -2.6709   16.2246 C   0  0  0  0  0  0  0  0  0  0  0  0
   11.7491   -1.4327   15.7212 C   0  0  0  0  0  0  0  0  0  0  0  0
    9.9696   -1.1255   15.1836 Br  0  0  0  0  0  0  0  0  0  0  0  0
   12.6179   -0.3523   15.7305 C   0  0  0  0  0  0  0  0  0  0  0  0
   13.8700   -0.4860   16.3208 C   0  0  0  0  0  0  0  0  0  0  0  0
   14.2487   -1.6886   16.9238 C   0  0  0  0  0  0  0  0  0  0  0  0
   15.4439   -1.7492   17.6370 N   0  0  0  0  0  0  0  0  0  0  0  0
   16.5644   -0.6819   17.8275 C   0  0  0  0  0  0  0  0  0  0  0  0
   16.6890    0.3837   17.3498 O   0  0  0  0  0  0  0  0  0  0  0  0
   17.5940   -1.1907   18.8778 C   0  0  0  0  0  0  0  0  0  0  0  0
   18.4787   -2.5953   18.1683 S   0  0  0  0  0  0  0  0  0  0  0  0
   19.7643   -2.7460   18.8250 O   0  0  0  0  0  0  0  0  0  0  0  0
   17.5383   -3.7088   18.1817 O   0  0  0  0  0  0  0  0  0  0  0  0
   18.8599   -2.3000   16.4522 C   0  0  0  0  0  0  0  0  0  0  0  0
   18.5192   -3.2588   15.4956 C   0  0  0  0  0  0  0  0  0  0  0  0
   18.8206   -3.0251   14.1531 C   0  0  0  0  0  0  0  0  0  0  0  0
   19.4503   -1.8351   13.7562 C   0  0  0  0  0  0  0  0  0  0  0  0
   19.7463   -1.5846   12.4073 C   0  0  0  0  0  0  0  0  0  0  0  0
   20.3767   -0.4001   12.0242 C   0  0  0  0  0  0  0  0  0  0  0  0
   20.7207    0.5474   12.9838 C   0  0  0  0  0  0  0  0  0  0  0  0
   20.4341    0.3139   14.3298 C   0  0  0  0  0  0  0  0  0  0  0  0
   19.7984   -0.8713   14.7329 C   0  0  0  0  0  0  0  0  0  0  0  0
   19.5032   -1.1167   16.0831 C   0  0  0  0  0  0  0  0  0  0  0  0
   17.0326   -1.4667   20.3115 C   0  0  0  0  0  0  0  0  0  0  0  0
   18.2946   -0.8222   20.9008 C   0  0  0  0  0  0  0  0  0  0  0  0
   18.5109   -0.1185   19.5525 C   0  0  0  0  0  0  0  0  0  0  0  0
  1  2  1  0
  2  3  2  0
  3  4  1  0
  4  5  1  0
  4  6  2  0
  6  7  1  0
  7  8  2  0
  8  9  1  0
  9 10  1  0
 10 11  2  0
 10 12  1  0
 12 13  1  0
 13 14  2  0
 13 15  2  0
 13 16  1  0
 16 17  2  0
 17 18  1  0
 18 19  2  0
 19 20  1  0
 20 21  2  0
 21 22  1  0
 22 23  2  0
 23 24  1  0
 24 25  2  0
 12 26  1  0
 26 27  1  0
 27 28  1  0
  8  2  1  0
 28 12  1  0
 25 16  1  0
 24 19  1  0
M  END
>  <ref_mols>  (1282) 
B1396a

>  <gnina_score>  (1282) 
5.47

>  <smina_score_min>  (1282) 
-4.02

>  <ref_pdb>  (1282) 
B1396a

>  <inspiration_score>  (1282) 
None

>  <inchikey>  (1282) 
MENHOTCEALTFJD-UHFFFAOYSA-N

>  <tags>  (1282) 
BulkDock Fragalysis export,openbind_d68ev3c_c2_elabs_scored,openbind_d68ev3c_c2_elabs_scored_4.5plus,openbind_d68ev3c_c2_elabs,openbind_d68ev3c_c2_elabs_scored_5plus,syndirella_product,openbind_d68ev3c_c2_elabs_scored_top80percent,syndirella_placed

>  <smiles>  (1282) 
Cc1cc(Br)ccc1NC(=O)C1(S(=O)(=O)c2ccc3ccccc3c2)CCC1

>  <subsites>  (1282) 
None

>  <rmsd(smina/fragmenstein)>  (1282) 
3.042

>  <alias>  (1282) 
None

>  <energy_score>  (1282) 
-18.324562

>  <HIPPO Pose ID>  (1282) 
95826

>  <distance_score>  (1282) 
0.585446

>  <HIPPO Compound ID>  (1282) 
129775

>  <gnina_score_min>  (1282) 
5.099

>  <name>  (1282) 
P95826

>  <exports>  (1282) 
['/opt/xchem-fragalysis-2/maxwin/BulkDock/OUTPUTS/openbind_d68ev3c_c2_elabs_1LOTQJ3.sdf', '/opt/xchem-fragalysis-2/maxwin/BulkDock/OUTPUTS/openbind_d68ev3c_c2_elabs_1LSYI5W.sdf']

$$$$
P95827
     RDKit          3D

 28 30  0  0  0  0  0  0  0  0999 V2000
   19.8811    0.3852   14.1124 C   0  0  0  0  0  0  0  0  0  0  0  0
   19.4756   -0.9694   14.6160 C   0  0  0  0  0  0  0  0  0  0  0  0
   19.3031   -2.0299   13.7278 C   0  0  0  0  0  0  0  0  0  0  0  0
   18.9098   -3.2825   14.1969 C   0  0  0  0  0  0  0  0  0  0  0  0
   18.6592   -3.5038   15.5628 C   0  0  0  0  0  0  0  0  0  0  0  0
   18.2954   -4.9021   15.9844 C   0  0  0  0  0  0  0  0  0  0  0  0
   18.7759   -2.4159   16.4544 C   0  0  0  0  0  0  0  0  0  0  0  0
   18.4114   -2.6081   18.2010 S   0  0  0  0  0  0  0  0  0  0  0  0
   19.6857   -2.8267   18.8583 O   0  0  0  0  0  0  0  0  0  0  0  0
   17.3607   -3.6103   18.3128 O   0  0  0  0  0  0  0  0  0  0  0  0
   17.6816   -1.1148   18.8637 C   0  0  0  0  0  0  0  0  0  0  0  0
   16.6509   -0.5897   17.8442 C   0  0  0  0  0  0  0  0  0  0  0  0
   16.7937    0.4604   17.3404 O   0  0  0  0  0  0  0  0  0  0  0  0
   15.4902   -1.6365   17.7002 N   0  0  0  0  0  0  0  0  0  0  0  0
   14.2665   -1.5572   17.0015 C   0  0  0  0  0  0  0  0  0  0  0  0
   13.7163   -0.3883   16.4325 C   0  0  0  0  0  0  0  0  0  0  0  0
   14.3078    0.9906   16.5009 C   0  0  0  0  0  0  0  0  0  0  0  0
   12.4728   -0.4624   15.7747 C   0  0  0  0  0  0  0  0  0  0  0  0
   11.7606   -1.6471   15.7101 C   0  0  0  0  0  0  0  0  0  0  0  0
   10.1780   -1.6131   15.0668 Cl  0  0  0  0  0  0  0  0  0  0  0  0
   12.2824   -2.8058   16.2566 C   0  0  0  0  0  0  0  0  0  0  0  0
   13.5215   -2.7726   16.9201 C   0  0  0  0  0  0  0  0  0  0  0  0
   13.9904   -4.0614   17.5562 C   0  0  0  0  0  0  0  0  0  0  0  0
   18.7706   -0.0565   19.2158 C   0  0  0  0  0  0  0  0  0  0  0  0
   18.8626   -0.0248   20.7359 C   0  0  0  0  0  0  0  0  0  0  0  0
   17.4384   -0.2830   21.1685 C   0  0  0  0  0  0  0  0  0  0  0  0
   16.9988   -1.4017   20.2355 C   0  0  0  0  0  0  0  0  0  0  0  0
   19.2019   -1.1670   15.9761 C   0  0  0  0  0  0  0  0  0  0  0  0
  1  2  1  0
  2  3  2  0
  3  4  1  0
  4  5  2  0
  5  6  1  0
  5  7  1  0
  7  8  1  0
  8  9  2  0
  8 10  2  0
  8 11  1  0
 11 12  1  0
 12 13  2  0
 12 14  1  0
 14 15  1  0
 15 16  2  0
 16 17  1  0
 16 18  1  0
 18 19  2  0
 19 20  1  0
 19 21  1  0
 21 22  2  0
 22 23  1  0
 11 24  1  0
 24 25  1  0
 25 26  1  0
 26 27  1  0
  7 28  2  0
 28  2  1  0
 27 11  1  0
 22 15  1  0
M  END
>  <ref_mols>  (1283) 
B1396a

>  <gnina_score>  (1283) 
5.533

>  <smina_score_min>  (1283) 
-3.347

>  <ref_pdb>  (1283) 
B1396a

>  <inspiration_score>  (1283) 
None

>  <inchikey>  (1283) 
NBKIRFNVIZIRMZ-UHFFFAOYSA-N

>  <tags>  (1283) 
BulkDock Fragalysis export,openbind_d68ev3c_c2_elabs_scored,openbind_d68ev3c_c2_elabs_scored_4.5plus,openbind_d68ev3c_c2_elabs,openbind_d68ev3c_c2_elabs_scored_5plus,syndirella_product,openbind_d68ev3c_c2_elabs_scored_top80percent,syndirella_placed

>  <smiles>  (1283) 
Cc1ccc(C)c(S(=O)(=O)C2(C(=O)Nc3c(C)cc(Cl)cc3C)CCCC2)c1

>  <subsites>  (1283) 
None

>  <rmsd(smina/fragmenstein)>  (1283) 
1.425

>  <alias>  (1283) 
None

>  <energy_score>  (1283) 
-58.256321

>  <HIPPO Pose ID>  (1283) 
95827

>  <distance_score>  (1283) 
0.623984

>  <HIPPO Compound ID>  (1283) 
129776

>  <gnina_score_min>  (1283) 
5.53

>  <name>  (1283) 
P95827

>  <exports>  (1283) 
['/opt/xchem-fragalysis-2/maxwin/BulkDock/OUTPUTS/openbind_d68ev3c_c2_elabs_1LOTQJ3.sdf', '/opt/xchem-fragalysis-2/maxwin/BulkDock/OUTPUTS/openbind_d68ev3c_c2_elabs_1LSYI5W.sdf']

$$$$
P95828
     RDKit          3D

 28 31  0  0  0  0  0  0  0  0999 V2000
   13.8402   -4.1816   17.5648 C   0  0  0  0  0  0  0  0  0  0  0  0
   13.4397   -2.8951   16.8950 C   0  0  0  0  0  0  0  0  0  0  0  0
   12.1978   -2.8279   16.2406 C   0  0  0  0  0  0  0  0  0  0  0  0
   11.7563   -1.6250   15.6914 C   0  0  0  0  0  0  0  0  0  0  0  0
   10.1537   -1.4664   15.1104 Cl  0  0  0  0  0  0  0  0  0  0  0  0
   12.5689   -0.5016   15.7045 C   0  0  0  0  0  0  0  0  0  0  0  0
   13.8134   -0.5632   16.3242 C   0  0  0  0  0  0  0  0  0  0  0  0
   14.2410   -1.7398   16.9473 C   0  0  0  0  0  0  0  0  0  0  0  0
   15.4420   -1.7479   17.6530 N   0  0  0  0  0  0  0  0  0  0  0  0
   16.5192   -0.6356   17.8304 C   0  0  0  0  0  0  0  0  0  0  0  0
   16.5978    0.4315   17.3461 O   0  0  0  0  0  0  0  0  0  0  0  0
   17.5889   -1.0993   18.8719 C   0  0  0  0  0  0  0  0  0  0  0  0
   18.4819   -2.5100   18.1951 S   0  0  0  0  0  0  0  0  0  0  0  0
   17.5327   -3.6163   18.1904 O   0  0  0  0  0  0  0  0  0  0  0  0
   19.7440   -2.6670   18.8943 O   0  0  0  0  0  0  0  0  0  0  0  0
   18.9225   -2.2403   16.4915 C   0  0  0  0  0  0  0  0  0  0  0  0
   19.3484   -0.9840   16.0673 C   0  0  0  0  0  0  0  0  0  0  0  0
   19.6551   -0.7858   14.7195 C   0  0  0  0  0  0  0  0  0  0  0  0
   19.5587   -1.8376   13.7941 C   0  0  0  0  0  0  0  0  0  0  0  0
   19.8623   -1.6450   12.4368 C   0  0  0  0  0  0  0  0  0  0  0  0
   19.7810   -2.7035   11.5313 C   0  0  0  0  0  0  0  0  0  0  0  0
   19.4131   -3.9698   11.9743 C   0  0  0  0  0  0  0  0  0  0  0  0
   19.1164   -4.1789   13.3217 C   0  0  0  0  0  0  0  0  0  0  0  0
   19.1589   -3.1189   14.2398 C   0  0  0  0  0  0  0  0  0  0  0  0
   18.8271   -3.3064   15.5901 C   0  0  0  0  0  0  0  0  0  0  0  0
   18.5046    0.0090   19.4965 C   0  0  0  0  0  0  0  0  0  0  0  0
   17.5014    0.0995   20.6599 C   0  0  0  0  0  0  0  0  0  0  0  0
   17.0840   -1.3444   20.3335 C   0  0  0  0  0  0  0  0  0  0  0  0
  1  2  1  0
  2  3  2  0
  3  4  1  0
  4  5  1  0
  4  6  2  0
  6  7  1  0
  7  8  2  0
  8  9  1  0
  9 10  1  0
 10 11  2  0
 10 12  1  0
 12 13  1  0
 13 14  2  0
 13 15  2  0
 13 16  1  0
 16 17  2  0
 17 18  1  0
 18 19  2  0
 19 20  1  0
 20 21  2  0
 21 22  1  0
 22 23  2  0
 23 24  1  0
 24 25  2  0
 12 26  1  0
 26 27  1  0
 27 28  1  0
  8  2  1  0
 28 12  1  0
 25 16  1  0
 24 19  1  0
M  END
>  <ref_mols>  (1284) 
B1396a

>  <gnina_score>  (1284) 
5.523

>  <smina_score_min>  (1284) 
-3.558

>  <ref_pdb>  (1284) 
B1396a

>  <inspiration_score>  (1284) 
None

>  <inchikey>  (1284) 
HCXCTVKGEAURPG-UHFFFAOYSA-N

>  <tags>  (1284) 
BulkDock Fragalysis export,openbind_d68ev3c_c2_elabs_scored,openbind_d68ev3c_c2_elabs_scored_4.5plus,openbind_d68ev3c_c2_elabs,openbind_d68ev3c_c2_elabs_scored_5plus,syndirella_product,openbind_d68ev3c_c2_elabs_scored_top80percent,syndirella_placed

>  <smiles>  (1284) 
Cc1cc(Cl)ccc1NC(=O)C1(S(=O)(=O)c2ccc3ccccc3c2)CCC1

>  <subsites>  (1284) 
None

>  <rmsd(smina/fragmenstein)>  (1284) 
2.812

>  <alias>  (1284) 
None

>  <energy_score>  (1284) 
-38.287675

>  <HIPPO Pose ID>  (1284) 
95828

>  <distance_score>  (1284) 
0.58588

>  <HIPPO Compound ID>  (1284) 
129777

>  <gnina_score_min>  (1284) 
5.23

>  <name>  (1284) 
P95828

>  <exports>  (1284) 
['/opt/xchem-fragalysis-2/maxwin/BulkDock/OUTPUTS/openbind_d68ev3c_c2_elabs_1LOTQJ3.sdf', '/opt/xchem-fragalysis-2/maxwin/BulkDock/OUTPUTS/openbind_d68ev3c_c2_elabs_1LSYI5W.sdf']

$$$$
P95829
     RDKit          3D

 28 31  0  0  0  0  0  0  0  0999 V2000
   13.7796    0.8355   16.2120 C   0  0  0  0  0  0  0  0  0  0  0  0
   13.3071   -0.5898   16.1467 C   0  0  0  0  0  0  0  0  0  0  0  0
   12.1805   -0.8237   15.3293 C   0  0  0  0  0  0  0  0  0  0  0  0
   11.5834   -2.0742   15.2590 C   0  0  0  0  0  0  0  0  0  0  0  0
   12.1002   -3.1142   16.0159 C   0  0  0  0  0  0  0  0  0  0  0  0
   13.2366   -2.9282   16.8216 C   0  0  0  0  0  0  0  0  0  0  0  0
   13.7444   -4.1180   17.5994 C   0  0  0  0  0  0  0  0  0  0  0  0
   13.8768   -1.6635   16.8620 C   0  0  0  0  0  0  0  0  0  0  0  0
   15.0362   -1.5722   17.6560 N   0  0  0  0  0  0  0  0  0  0  0  0
   16.2431   -0.5866   17.5776 C   0  0  0  0  0  0  0  0  0  0  0  0
   16.4185    0.3481   16.8883 O   0  0  0  0  0  0  0  0  0  0  0  0
   17.2855   -0.9411   18.6889 C   0  0  0  0  0  0  0  0  0  0  0  0
   18.2151   -2.3912   18.1529 S   0  0  0  0  0  0  0  0  0  0  0  0
   17.2896   -3.5150   18.1945 O   0  0  0  0  0  0  0  0  0  0  0  0
   19.4541   -2.4824   18.9067 O   0  0  0  0  0  0  0  0  0  0  0  0
   18.7151   -2.2099   16.4530 C   0  0  0  0  0  0  0  0  0  0  0  0
   18.3781   -3.1905   15.5190 C   0  0  0  0  0  0  0  0  0  0  0  0
   18.7867   -3.0401   14.1926 C   0  0  0  0  0  0  0  0  0  0  0  0
   19.5212   -1.9130   13.7897 C   0  0  0  0  0  0  0  0  0  0  0  0
   19.9245   -1.7467   12.4556 C   0  0  0  0  0  0  0  0  0  0  0  0
   20.6596   -0.6257   12.0677 C   0  0  0  0  0  0  0  0  0  0  0  0
   21.0026    0.3414   13.0077 C   0  0  0  0  0  0  0  0  0  0  0  0
   20.6098    0.1914   14.3387 C   0  0  0  0  0  0  0  0  0  0  0  0
   19.8674   -0.9287   14.7457 C   0  0  0  0  0  0  0  0  0  0  0  0
   19.4649   -1.0912   16.0802 C   0  0  0  0  0  0  0  0  0  0  0  0
   18.1787    0.2376   19.2127 C   0  0  0  0  0  0  0  0  0  0  0  0
   17.1573    0.4270   20.3473 C   0  0  0  0  0  0  0  0  0  0  0  0
   16.7717   -1.0508   20.1638 C   0  0  0  0  0  0  0  0  0  0  0  0
  1  2  1  0
  2  3  2  0
  3  4  1  0
  4  5  2  0
  5  6  1  0
  6  7  1  0
  6  8  2  0
  8  9  1  0
  9 10  1  0
 10 11  2  0
 10 12  1  0
 12 13  1  0
 13 14  2  0
 13 15  2  0
 13 16  1  0
 16 17  2  0
 17 18  1  0
 18 19  2  0
 19 20  1  0
 20 21  2  0
 21 22  1  0
 22 23  2  0
 23 24  1  0
 24 25  2  0
 12 26  1  0
 26 27  1  0
 27 28  1  0
  8  2  1  0
 28 12  1  0
 25 16  1  0
 24 19  1  0
M  END
>  <ref_mols>  (1285) 
B1396a

>  <gnina_score>  (1285) 
5.17

>  <smina_score_min>  (1285) 
-4.023

>  <ref_pdb>  (1285) 
B1396a

>  <inspiration_score>  (1285) 
None

>  <inchikey>  (1285) 
UCWYIACSSJZJMW-UHFFFAOYSA-N

>  <tags>  (1285) 
BulkDock Fragalysis export,openbind_d68ev3c_c2_elabs_scored,openbind_d68ev3c_c2_elabs_scored_4.5plus,openbind_d68ev3c_c2_elabs,openbind_d68ev3c_c2_elabs_scored_5plus,syndirella_product,openbind_d68ev3c_c2_elabs_scored_top80percent,syndirella_placed

>  <smiles>  (1285) 
Cc1cccc(C)c1NC(=O)C1(S(=O)(=O)c2ccc3ccccc3c2)CCC1

>  <subsites>  (1285) 
None

>  <rmsd(smina/fragmenstein)>  (1285) 
2.886

>  <alias>  (1285) 
None

>  <energy_score>  (1285) 
-27.612651

>  <HIPPO Pose ID>  (1285) 
95829

>  <distance_score>  (1285) 
0.333899

>  <HIPPO Compound ID>  (1285) 
129778

>  <gnina_score_min>  (1285) 
5.012

>  <name>  (1285) 
P95829

>  <exports>  (1285) 
['/opt/xchem-fragalysis-2/maxwin/BulkDock/OUTPUTS/openbind_d68ev3c_c2_elabs_1LOTQJ3.sdf', '/opt/xchem-fragalysis-2/maxwin/BulkDock/OUTPUTS/openbind_d68ev3c_c2_elabs_1LSYI5W.sdf']

$$$$
P95831
     RDKit          3D

 28 30  0  0  0  0  0  0  0  0999 V2000
   20.3327    0.3477   14.1241 C   0  0  0  0  0  0  0  0  0  0  0  0
   19.7023   -0.9201   14.6211 C   0  0  0  0  0  0  0  0  0  0  0  0
   19.4080   -1.9570   13.7372 C   0  0  0  0  0  0  0  0  0  0  0  0
   18.8297   -3.1377   14.2042 C   0  0  0  0  0  0  0  0  0  0  0  0
   18.4951   -3.3012   15.5606 C   0  0  0  0  0  0  0  0  0  0  0  0
   17.9514   -4.6380   15.9860 C   0  0  0  0  0  0  0  0  0  0  0  0
   18.7215   -2.2209   16.4385 C   0  0  0  0  0  0  0  0  0  0  0  0
   18.2944   -2.2859   18.1765 S   0  0  0  0  0  0  0  0  0  0  0  0
   17.3469   -3.3731   18.3624 O   0  0  0  0  0  0  0  0  0  0  0  0
   19.5516   -2.2991   18.8998 O   0  0  0  0  0  0  0  0  0  0  0  0
   17.3725   -0.8194   18.6183 C   0  0  0  0  0  0  0  0  0  0  0  0
   16.3165   -0.5300   17.5238 C   0  0  0  0  0  0  0  0  0  0  0  0
   16.3381    0.4814   16.9315 O   0  0  0  0  0  0  0  0  0  0  0  0
   15.2947   -1.7132   17.4705 N   0  0  0  0  0  0  0  0  0  0  0  0
   14.0855   -1.8410   16.7711 C   0  0  0  0  0  0  0  0  0  0  0  0
   13.5967   -0.7748   16.0060 C   0  0  0  0  0  0  0  0  0  0  0  0
   12.3974   -0.9034   15.2992 C   0  0  0  0  0  0  0  0  0  0  0  0
   11.7483    0.5459   14.2731 Br  0  0  0  0  0  0  0  0  0  0  0  0
   11.6736   -2.0906   15.3368 C   0  0  0  0  0  0  0  0  0  0  0  0
   12.1498   -3.1539   16.1024 C   0  0  0  0  0  0  0  0  0  0  0  0
   13.3454   -3.0342   16.8277 C   0  0  0  0  0  0  0  0  0  0  0  0
   13.8001   -4.1571   17.5924 C   0  0  0  0  0  0  0  0  0  0  0  0
   14.2128   -5.0539   18.1985 N   0  0  0  0  0  0  0  0  0  0  0  0
   16.7164   -0.9921   20.0053 C   0  0  0  0  0  0  0  0  0  0  0  0
   16.4007    0.4254   20.4556 C   0  0  0  0  0  0  0  0  0  0  0  0
   17.5387    1.2745   19.9105 C   0  0  0  0  0  0  0  0  0  0  0  0
   18.2713    0.4107   18.8789 C   0  0  0  0  0  0  0  0  0  0  0  0
   19.3557   -1.0595   15.9702 C   0  0  0  0  0  0  0  0  0  0  0  0
  1  2  1  0
  2  3  2  0
  3  4  1  0
  4  5  2  0
  5  6  1  0
  5  7  1  0
  7  8  1  0
  8  9  2  0
  8 10  2  0
  8 11  1  0
 11 12  1  0
 12 13  2  0
 12 14  1  0
 14 15  1  0
 15 16  2  0
 16 17  1  0
 17 18  1  0
 17 19  2  0
 19 20  1  0
 20 21  2  0
 21 22  1  0
 22 23  3  0
 11 24  1  0
 24 25  1  0
 25 26  1  0
 26 27  1  0
  7 28  2  0
 28  2  1  0
 27 11  1  0
 21 15  1  0
M  END
>  <ref_mols>  (1286) 
B1396a

>  <gnina_score>  (1286) 
5.413

>  <smina_score_min>  (1286) 
-3.783

>  <ref_pdb>  (1286) 
B1396a

>  <inspiration_score>  (1286) 
None

>  <inchikey>  (1286) 
PXGUVRDYESVKCU-UHFFFAOYSA-N

>  <tags>  (1286) 
BulkDock Fragalysis export,openbind_d68ev3c_c2_elabs_scored,openbind_d68ev3c_c2_elabs_scored_4.5plus,openbind_d68ev3c_c2_elabs,openbind_d68ev3c_c2_elabs_scored_5plus,syndirella_product,openbind_d68ev3c_c2_elabs_scored_top80percent,syndirella_placed

>  <smiles>  (1286) 
Cc1ccc(C)c(S(=O)(=O)C2(C(=O)Nc3cc(Br)ccc3C#N)CCCC2)c1

>  <subsites>  (1286) 
None

>  <rmsd(smina/fragmenstein)>  (1286) 
1.562

>  <alias>  (1286) 
None

>  <energy_score>  (1286) 
-52.017153

>  <HIPPO Pose ID>  (1286) 
95831

>  <distance_score>  (1286) 
0.397615

>  <HIPPO Compound ID>  (1286) 
129780

>  <gnina_score_min>  (1286) 
5.398

>  <name>  (1286) 
P95831

>  <exports>  (1286) 
['/opt/xchem-fragalysis-2/maxwin/BulkDock/OUTPUTS/openbind_d68ev3c_c2_elabs_1LOTQJ3.sdf', '/opt/xchem-fragalysis-2/maxwin/BulkDock/OUTPUTS/openbind_d68ev3c_c2_elabs_1LSYI5W.sdf']

$$$$
P95832
     RDKit          3D

 28 30  0  0  0  0  0  0  0  0999 V2000
   19.2240    0.5868   13.9164 C   0  0  0  0  0  0  0  0  0  0  0  0
   19.0266   -0.7871   14.4887 C   0  0  0  0  0  0  0  0  0  0  0  0
   19.0310   -1.9054   13.6548 C   0  0  0  0  0  0  0  0  0  0  0  0
   18.8344   -3.1792   14.1858 C   0  0  0  0  0  0  0  0  0  0  0  0
   18.6065   -3.3648   15.5600 C   0  0  0  0  0  0  0  0  0  0  0  0
   18.4309   -4.7775   16.0530 C   0  0  0  0  0  0  0  0  0  0  0  0
   18.5509   -2.2274   16.3970 C   0  0  0  0  0  0  0  0  0  0  0  0
   18.2008   -2.4135   18.1432 S   0  0  0  0  0  0  0  0  0  0  0  0
   17.1695   -3.4359   18.2378 O   0  0  0  0  0  0  0  0  0  0  0  0
   19.4833   -2.6138   18.7897 O   0  0  0  0  0  0  0  0  0  0  0  0
   17.4190   -0.9626   18.8272 C   0  0  0  0  0  0  0  0  0  0  0  0
   16.2978   -0.4883   17.8665 C   0  0  0  0  0  0  0  0  0  0  0  0
   16.3758    0.6310   17.4370 O   0  0  0  0  0  0  0  0  0  0  0  0
   15.2736   -1.5017   17.6869 N   0  0  0  0  0  0  0  0  0  0  0  0
   14.1183   -1.5121   16.8879 C   0  0  0  0  0  0  0  0  0  0  0  0
   13.7158   -0.3502   16.2138 C   0  0  0  0  0  0  0  0  0  0  0  0
   12.5760   -0.3455   15.4023 C   0  0  0  0  0  0  0  0  0  0  0  0
   11.8277   -1.5058   15.2504 C   0  0  0  0  0  0  0  0  0  0  0  0
   12.2230   -2.6588   15.9191 C   0  0  0  0  0  0  0  0  0  0  0  0
   11.4896   -3.7651   15.7518 F   0  0  0  0  0  0  0  0  0  0  0  0
   13.3489   -2.6785   16.7453 C   0  0  0  0  0  0  0  0  0  0  0  0
   13.6915   -3.8983   17.4071 C   0  0  0  0  0  0  0  0  0  0  0  0
   14.0250   -4.8712   17.9418 N   0  0  0  0  0  0  0  0  0  0  0  0
   18.4233    0.1546   19.1858 C   0  0  0  0  0  0  0  0  0  0  0  0
   17.7877    0.9489   20.3302 C   0  0  0  0  0  0  0  0  0  0  0  0
   16.6642    0.0844   20.8837 C   0  0  0  0  0  0  0  0  0  0  0  0
   16.8425   -1.2762   20.2268 C   0  0  0  0  0  0  0  0  0  0  0  0
   18.7799   -0.9550   15.8584 C   0  0  0  0  0  0  0  0  0  0  0  0
  1  2  1  0
  2  3  2  0
  3  4  1  0
  4  5  2  0
  5  6  1  0
  5  7  1  0
  7  8  1  0
  8  9  2  0
  8 10  2  0
  8 11  1  0
 11 12  1  0
 12 13  2  0
 12 14  1  0
 14 15  1  0
 15 16  2  0
 16 17  1  0
 17 18  2  0
 18 19  1  0
 19 20  1  0
 19 21  2  0
 21 22  1  0
 22 23  3  0
 11 24  1  0
 24 25  1  0
 25 26  1  0
 26 27  1  0
  7 28  2  0
 28  2  1  0
 27 11  1  0
 21 15  1  0
M  END
>  <ref_mols>  (1287) 
B1396a

>  <gnina_score>  (1287) 
5.323

>  <smina_score_min>  (1287) 
-3.87

>  <ref_pdb>  (1287) 
B1396a

>  <inspiration_score>  (1287) 
None

>  <inchikey>  (1287) 
IESIJWPGGNHVHX-UHFFFAOYSA-N

>  <tags>  (1287) 
BulkDock Fragalysis export,openbind_d68ev3c_c2_elabs_scored,openbind_d68ev3c_c2_elabs_scored_4.5plus,openbind_d68ev3c_c2_elabs,openbind_d68ev3c_c2_elabs_scored_5plus,syndirella_product,openbind_d68ev3c_c2_elabs_scored_top80percent,syndirella_placed

>  <smiles>  (1287) 
Cc1ccc(C)c(S(=O)(=O)C2(C(=O)Nc3cccc(F)c3C#N)CCCC2)c1

>  <subsites>  (1287) 
None

>  <rmsd(smina/fragmenstein)>  (1287) 
1.687

>  <alias>  (1287) 
None

>  <energy_score>  (1287) 
-54.777808

>  <HIPPO Pose ID>  (1287) 
95832

>  <distance_score>  (1287) 
0.672113

>  <HIPPO Compound ID>  (1287) 
129781

>  <gnina_score_min>  (1287) 
5.589

>  <name>  (1287) 
P95832

>  <exports>  (1287) 
['/opt/xchem-fragalysis-2/maxwin/BulkDock/OUTPUTS/openbind_d68ev3c_c2_elabs_1LOTQJ3.sdf', '/opt/xchem-fragalysis-2/maxwin/BulkDock/OUTPUTS/openbind_d68ev3c_c2_elabs_1LSYI5W.sdf']

$$$$
P95833
     RDKit          3D

 28 30  0  0  0  0  0  0  0  0999 V2000
   14.4810    1.4171   14.6402 C   0  0  0  0  0  0  0  0  0  0  0  0
   13.7296    1.1326   16.2660 S   0  0  0  0  0  0  0  0  0  0  0  0
   13.3320   -0.6084   16.0888 C   0  0  0  0  0  0  0  0  0  0  0  0
   12.1872   -0.8560   15.3037 C   0  0  0  0  0  0  0  0  0  0  0  0
   11.6084   -2.1160   15.2486 C   0  0  0  0  0  0  0  0  0  0  0  0
   12.1460   -3.1396   16.0133 C   0  0  0  0  0  0  0  0  0  0  0  0
   13.2918   -2.9338   16.8031 C   0  0  0  0  0  0  0  0  0  0  0  0
   13.7922   -4.1017   17.6174 C   0  0  0  0  0  0  0  0  0  0  0  0
   13.9292   -1.6658   16.8145 C   0  0  0  0  0  0  0  0  0  0  0  0
   15.0926   -1.5540   17.6086 N   0  0  0  0  0  0  0  0  0  0  0  0
   16.3097   -0.5731   17.4972 C   0  0  0  0  0  0  0  0  0  0  0  0
   16.4893    0.3360   16.7779 O   0  0  0  0  0  0  0  0  0  0  0  0
   17.3256   -0.8846   18.6192 C   0  0  0  0  0  0  0  0  0  0  0  0
   18.1941   -2.3828   18.1848 S   0  0  0  0  0  0  0  0  0  0  0  0
   19.4354   -2.4423   18.9354 O   0  0  0  0  0  0  0  0  0  0  0  0
   17.2109   -3.4418   18.3561 O   0  0  0  0  0  0  0  0  0  0  0  0
   18.6723   -2.3404   16.4565 C   0  0  0  0  0  0  0  0  0  0  0  0
   19.3253   -1.1898   15.9862 C   0  0  0  0  0  0  0  0  0  0  0  0
   19.7069   -1.0679   14.6443 C   0  0  0  0  0  0  0  0  0  0  0  0
   20.3482    0.1944   14.1479 C   0  0  0  0  0  0  0  0  0  0  0  0
   19.4353   -2.1161   13.7679 C   0  0  0  0  0  0  0  0  0  0  0  0
   18.8459   -3.2894   14.2383 C   0  0  0  0  0  0  0  0  0  0  0  0
   18.4745   -3.4329   15.5883 C   0  0  0  0  0  0  0  0  0  0  0  0
   17.9253   -4.7649   16.0182 C   0  0  0  0  0  0  0  0  0  0  0  0
   16.6906   -1.0075   20.0222 C   0  0  0  0  0  0  0  0  0  0  0  0
   16.4004    0.4254   20.4403 C   0  0  0  0  0  0  0  0  0  0  0  0
   17.5244    1.2495   19.8319 C   0  0  0  0  0  0  0  0  0  0  0  0
   18.2651    0.3210   18.8648 C   0  0  0  0  0  0  0  0  0  0  0  0
  1  2  1  0
  2  3  1  0
  3  4  2  0
  4  5  1  0
  5  6  2  0
  6  7  1  0
  7  8  1  0
  7  9  2  0
  9 10  1  0
 10 11  1  0
 11 12  2  0
 11 13  1  0
 13 14  1  0
 14 15  2  0
 14 16  2  0
 14 17  1  0
 17 18  2  0
 18 19  1  0
 19 20  1  0
 19 21  2  0
 21 22  1  0
 22 23  2  0
 23 24  1  0
 13 25  1  0
 25 26  1  0
 26 27  1  0
 27 28  1  0
  9  3  1  0
 28 13  1  0
 23 17  1  0
M  END
>  <ref_mols>  (1288) 
B1396a

>  <gnina_score>  (1288) 
5.135

>  <smina_score_min>  (1288) 
-3.656

>  <ref_pdb>  (1288) 
B1396a

>  <inspiration_score>  (1288) 
None

>  <inchikey>  (1288) 
SZIIOPWIBBUMOE-UHFFFAOYSA-N

>  <tags>  (1288) 
BulkDock Fragalysis export,openbind_d68ev3c_c2_elabs_scored,openbind_d68ev3c_c2_elabs_scored_4.5plus,openbind_d68ev3c_c2_elabs,openbind_d68ev3c_c2_elabs_scored_5plus,syndirella_product,openbind_d68ev3c_c2_elabs_scored_top80percent,syndirella_placed

>  <smiles>  (1288) 
CSc1cccc(C)c1NC(=O)C1(S(=O)(=O)c2cc(C)ccc2C)CCCC1

>  <subsites>  (1288) 
None

>  <rmsd(smina/fragmenstein)>  (1288) 
1.464

>  <alias>  (1288) 
None

>  <energy_score>  (1288) 
-51.483017

>  <HIPPO Pose ID>  (1288) 
95833

>  <distance_score>  (1288) 
0.358288

>  <HIPPO Compound ID>  (1288) 
129782

>  <gnina_score_min>  (1288) 
5.307

>  <name>  (1288) 
P95833

>  <exports>  (1288) 
['/opt/xchem-fragalysis-2/maxwin/BulkDock/OUTPUTS/openbind_d68ev3c_c2_elabs_1LOTQJ3.sdf', '/opt/xchem-fragalysis-2/maxwin/BulkDock/OUTPUTS/openbind_d68ev3c_c2_elabs_1LSYI5W.sdf']

$$$$
P95834
     RDKit          3D

 28 30  0  0  0  0  0  0  0  0999 V2000
   19.9925    0.2521   14.0382 C   0  0  0  0  0  0  0  0  0  0  0  0
   19.5032   -1.0689   14.5563 C   0  0  0  0  0  0  0  0  0  0  0  0
   19.3480   -2.1527   13.6941 C   0  0  0  0  0  0  0  0  0  0  0  0
   18.9333   -3.3891   14.1875 C   0  0  0  0  0  0  0  0  0  0  0  0
   18.6630   -3.5760   15.5550 C   0  0  0  0  0  0  0  0  0  0  0  0
   18.2730   -4.9587   16.0041 C   0  0  0  0  0  0  0  0  0  0  0  0
   18.7926   -2.4724   16.4247 C   0  0  0  0  0  0  0  0  0  0  0  0
   18.4157   -2.6261   18.1733 S   0  0  0  0  0  0  0  0  0  0  0  0
   17.3312   -3.5911   18.2952 O   0  0  0  0  0  0  0  0  0  0  0  0
   19.6791   -2.8765   18.8401 O   0  0  0  0  0  0  0  0  0  0  0  0
   17.7343   -1.1009   18.8101 C   0  0  0  0  0  0  0  0  0  0  0  0
   16.7168   -0.5779   17.7770 C   0  0  0  0  0  0  0  0  0  0  0  0
   16.9079    0.4349   17.2167 O   0  0  0  0  0  0  0  0  0  0  0  0
   15.4954   -1.5619   17.7094 N   0  0  0  0  0  0  0  0  0  0  0  0
   14.2638   -1.4473   17.0309 C   0  0  0  0  0  0  0  0  0  0  0  0
   13.4981   -2.6394   16.8835 C   0  0  0  0  0  0  0  0  0  0  0  0
   13.9449   -3.9645   17.4567 C   0  0  0  0  0  0  0  0  0  0  0  0
   12.2506   -2.6022   16.2281 C   0  0  0  0  0  0  0  0  0  0  0  0
   11.7442   -1.3942   15.7666 C   0  0  0  0  0  0  0  0  0  0  0  0
    9.9711   -1.2351   15.1584 Br  0  0  0  0  0  0  0  0  0  0  0  0
   12.4782   -0.2294   15.8970 C   0  0  0  0  0  0  0  0  0  0  0  0
   13.7146   -0.2417   16.5483 C   0  0  0  0  0  0  0  0  0  0  0  0
   14.3077    1.3413   16.9079 Cl  0  0  0  0  0  0  0  0  0  0  0  0
   18.8552   -0.0651   19.1278 C   0  0  0  0  0  0  0  0  0  0  0  0
   18.9691   -0.0065   20.6455 C   0  0  0  0  0  0  0  0  0  0  0  0
   17.5441   -0.2134   21.1008 C   0  0  0  0  0  0  0  0  0  0  0  0
   17.0579   -1.3354   20.1951 C   0  0  0  0  0  0  0  0  0  0  0  0
   19.2413   -1.2411   15.9221 C   0  0  0  0  0  0  0  0  0  0  0  0
  1  2  1  0
  2  3  2  0
  3  4  1  0
  4  5  2  0
  5  6  1  0
  5  7  1  0
  7  8  1  0
  8  9  2  0
  8 10  2  0
  8 11  1  0
 11 12  1  0
 12 13  2  0
 12 14  1  0
 14 15  1  0
 15 16  2  0
 16 17  1  0
 16 18  1  0
 18 19  2  0
 19 20  1  0
 19 21  1  0
 21 22  2  0
 22 23  1  0
 11 24  1  0
 24 25  1  0
 25 26  1  0
 26 27  1  0
  7 28  2  0
 28  2  1  0
 27 11  1  0
 22 15  1  0
M  END
>  <ref_mols>  (1289) 
B1396a

>  <gnina_score>  (1289) 
5.799

>  <smina_score_min>  (1289) 
-3.847

>  <ref_pdb>  (1289) 
B1396a

>  <inspiration_score>  (1289) 
None

>  <inchikey>  (1289) 
LLRUWIMQXBRRGL-UHFFFAOYSA-N

>  <tags>  (1289) 
BulkDock Fragalysis export,openbind_d68ev3c_c2_elabs_scored,openbind_d68ev3c_c2_elabs_scored_4.5plus,openbind_d68ev3c_c2_elabs,openbind_d68ev3c_c2_elabs_scored_5plus,syndirella_product,openbind_d68ev3c_c2_elabs_scored_top80percent,syndirella_placed

>  <smiles>  (1289) 
Cc1ccc(C)c(S(=O)(=O)C2(C(=O)Nc3c(C)cc(Br)cc3Cl)CCCC2)c1

>  <subsites>  (1289) 
None

>  <rmsd(smina/fragmenstein)>  (1289) 
4.227

>  <alias>  (1289) 
None

>  <energy_score>  (1289) 
-29.195099

>  <HIPPO Pose ID>  (1289) 
95834

>  <distance_score>  (1289) 
0.680291

>  <HIPPO Compound ID>  (1289) 
129783

>  <gnina_score_min>  (1289) 
5.463

>  <name>  (1289) 
P95834

>  <exports>  (1289) 
['/opt/xchem-fragalysis-2/maxwin/BulkDock/OUTPUTS/openbind_d68ev3c_c2_elabs_1LOTQJ3.sdf', '/opt/xchem-fragalysis-2/maxwin/BulkDock/OUTPUTS/openbind_d68ev3c_c2_elabs_1LSYI5W.sdf']

$$$$
P95835
     RDKit          3D

 28 30  0  0  0  0  0  0  0  0999 V2000
   13.9935   -4.1417   19.0588 C   0  0  0  0  0  0  0  0  0  0  0  0
   13.9905   -4.1206   17.5363 C   0  0  0  0  0  0  0  0  0  0  0  0
   13.5797   -2.7938   16.9296 C   0  0  0  0  0  0  0  0  0  0  0  0
   12.3121   -2.6953   16.3196 C   0  0  0  0  0  0  0  0  0  0  0  0
   11.8756   -1.4793   15.7904 C   0  0  0  0  0  0  0  0  0  0  0  0
   10.1070   -1.2459   15.1894 Br  0  0  0  0  0  0  0  0  0  0  0  0
   12.7085   -0.3718   15.7838 C   0  0  0  0  0  0  0  0  0  0  0  0
   13.9708   -0.4610   16.3595 C   0  0  0  0  0  0  0  0  0  0  0  0
   14.4048   -1.6496   16.9538 C   0  0  0  0  0  0  0  0  0  0  0  0
   15.6369   -1.6739   17.6048 N   0  0  0  0  0  0  0  0  0  0  0  0
   16.7210   -0.5545   17.7720 C   0  0  0  0  0  0  0  0  0  0  0  0
   16.7714    0.5274   17.3213 O   0  0  0  0  0  0  0  0  0  0  0  0
   17.7923   -1.0431   18.7728 C   0  0  0  0  0  0  0  0  0  0  0  0
   18.5326   -2.5436   18.1373 S   0  0  0  0  0  0  0  0  0  0  0  0
   19.8195   -2.7335   18.7771 O   0  0  0  0  0  0  0  0  0  0  0  0
   17.4961   -3.5569   18.2846 O   0  0  0  0  0  0  0  0  0  0  0  0
   18.8570   -2.3756   16.3814 C   0  0  0  0  0  0  0  0  0  0  0  0
   19.2641   -1.1298   15.8797 C   0  0  0  0  0  0  0  0  0  0  0  0
   19.4827   -0.9415   14.5089 C   0  0  0  0  0  0  0  0  0  0  0  0
   19.9361    0.3913   13.9879 C   0  0  0  0  0  0  0  0  0  0  0  0
   19.3203   -2.0202   13.6407 C   0  0  0  0  0  0  0  0  0  0  0  0
   18.9423   -3.2688   14.1329 C   0  0  0  0  0  0  0  0  0  0  0  0
   18.7194   -3.4739   15.5058 C   0  0  0  0  0  0  0  0  0  0  0  0
   18.3681   -4.8679   15.9514 C   0  0  0  0  0  0  0  0  0  0  0  0
   17.1319   -1.3106   20.1585 C   0  0  0  0  0  0  0  0  0  0  0  0
   17.5263   -0.1368   21.0417 C   0  0  0  0  0  0  0  0  0  0  0  0
   18.9442    0.1474   20.6040 C   0  0  0  0  0  0  0  0  0  0  0  0
   18.8694    0.0388   19.0859 C   0  0  0  0  0  0  0  0  0  0  0  0
  1  2  1  0
  2  3  1  0
  3  4  2  0
  4  5  1  0
  5  6  1  0
  5  7  2  0
  7  8  1  0
  8  9  2  0
  9 10  1  0
 10 11  1  0
 11 12  2  0
 11 13  1  0
 13 14  1  0
 14 15  2  0
 14 16  2  0
 14 17  1  0
 17 18  2  0
 18 19  1  0
 19 20  1  0
 19 21  2  0
 21 22  1  0
 22 23  2  0
 23 24  1  0
 13 25  1  0
 25 26  1  0
 26 27  1  0
 27 28  1  0
  9  3  1  0
 28 13  1  0
 23 17  1  0
M  END
>  <ref_mols>  (1290) 
B1396a

>  <gnina_score>  (1290) 
5.584

>  <smina_score_min>  (1290) 
-2.957

>  <ref_pdb>  (1290) 
B1396a

>  <inspiration_score>  (1290) 
None

>  <inchikey>  (1290) 
WBNGCYYNECVFID-UHFFFAOYSA-N

>  <tags>  (1290) 
BulkDock Fragalysis export,openbind_d68ev3c_c2_elabs_scored,openbind_d68ev3c_c2_elabs_scored_4.5plus,openbind_d68ev3c_c2_elabs,openbind_d68ev3c_c2_elabs_scored_5plus,syndirella_product,openbind_d68ev3c_c2_elabs_scored_top80percent,syndirella_placed

>  <smiles>  (1290) 
CCc1cc(Br)ccc1NC(=O)C1(S(=O)(=O)c2cc(C)ccc2C)CCCC1

>  <subsites>  (1290) 
None

>  <rmsd(smina/fragmenstein)>  (1290) 
0.97

>  <alias>  (1290) 
None

>  <energy_score>  (1290) 
-53.436616

>  <HIPPO Pose ID>  (1290) 
95835

>  <distance_score>  (1290) 
0.681762

>  <HIPPO Compound ID>  (1290) 
129784

>  <gnina_score_min>  (1290) 
5.407

>  <name>  (1290) 
P95835

>  <exports>  (1290) 
['/opt/xchem-fragalysis-2/maxwin/BulkDock/OUTPUTS/openbind_d68ev3c_c2_elabs_1LOTQJ3.sdf', '/opt/xchem-fragalysis-2/maxwin/BulkDock/OUTPUTS/openbind_d68ev3c_c2_elabs_1LSYI5W.sdf']

$$$$
P95837
     RDKit          3D

 28 30  0  0  0  0  0  0  0  0999 V2000
   10.8112   -2.1615   14.6305 C   0  0  0  0  0  0  0  0  0  0  0  0
   11.9753   -2.0149   15.5478 C   0  0  0  0  0  0  0  0  0  0  0  0
   12.4243   -3.0937   16.3093 C   0  0  0  0  0  0  0  0  0  0  0  0
   13.5832   -2.9931   17.0969 C   0  0  0  0  0  0  0  0  0  0  0  0
   14.0126   -4.2075   17.8755 C   0  0  0  0  0  0  0  0  0  0  0  0
   14.3129   -1.7846   17.1069 C   0  0  0  0  0  0  0  0  0  0  0  0
   15.4925   -1.7221   17.8623 N   0  0  0  0  0  0  0  0  0  0  0  0
   16.5604   -0.5827   17.9877 C   0  0  0  0  0  0  0  0  0  0  0  0
   16.5713    0.5002   17.5386 O   0  0  0  0  0  0  0  0  0  0  0  0
   17.6719   -1.0466   18.9482 C   0  0  0  0  0  0  0  0  0  0  0  0
   18.4452   -2.5207   18.2770 S   0  0  0  0  0  0  0  0  0  0  0  0
   17.4446   -3.5694   18.4173 O   0  0  0  0  0  0  0  0  0  0  0  0
   19.7427   -2.6940   18.9019 O   0  0  0  0  0  0  0  0  0  0  0  0
   18.7636   -2.3169   16.5231 C   0  0  0  0  0  0  0  0  0  0  0  0
   19.2310   -1.0760   16.0649 C   0  0  0  0  0  0  0  0  0  0  0  0
   19.4855   -0.8578   14.7043 C   0  0  0  0  0  0  0  0  0  0  0  0
   20.0049    0.4695   14.2336 C   0  0  0  0  0  0  0  0  0  0  0  0
   19.3029   -1.9052   13.8024 C   0  0  0  0  0  0  0  0  0  0  0  0
   18.8674   -3.1514   14.2513 C   0  0  0  0  0  0  0  0  0  0  0  0
   18.6045   -3.3849   15.6134 C   0  0  0  0  0  0  0  0  0  0  0  0
   18.1991   -4.7783   16.0115 C   0  0  0  0  0  0  0  0  0  0  0  0
   17.0603   -1.3361   20.3504 C   0  0  0  0  0  0  0  0  0  0  0  0
   18.0088   -0.7092   21.3601 C   0  0  0  0  0  0  0  0  0  0  0  0
   18.4607    0.5497   20.6558 C   0  0  0  0  0  0  0  0  0  0  0  0
   18.7134    0.0792   19.2289 C   0  0  0  0  0  0  0  0  0  0  0  0
   13.8361   -0.7081   16.3485 C   0  0  0  0  0  0  0  0  0  0  0  0
   14.4571    0.4759   16.3287 F   0  0  0  0  0  0  0  0  0  0  0  0
   12.6850   -0.8186   15.5763 C   0  0  0  0  0  0  0  0  0  0  0  0
  1  2  1  0
  2  3  2  0
  3  4  1  0
  4  5  1  0
  4  6  2  0
  6  7  1  0
  7  8  1  0
  8  9  2  0
  8 10  1  0
 10 11  1  0
 11 12  2  0
 11 13  2  0
 11 14  1  0
 14 15  2  0
 15 16  1  0
 16 17  1  0
 16 18  2  0
 18 19  1  0
 19 20  2  0
 20 21  1  0
 10 22  1  0
 22 23  1  0
 23 24  1  0
 24 25  1  0
  6 26  1  0
 26 27  1  0
 26 28  2  0
 28  2  1  0
 25 10  1  0
 20 14  1  0
M  END
>  <ref_mols>  (1291) 
B1396a

>  <gnina_score>  (1291) 
5.399

>  <smina_score_min>  (1291) 
-3.401

>  <ref_pdb>  (1291) 
B1396a

>  <inspiration_score>  (1291) 
None

>  <inchikey>  (1291) 
KJJAGLHVCJFCSI-UHFFFAOYSA-N

>  <tags>  (1291) 
BulkDock Fragalysis export,openbind_d68ev3c_c2_elabs_scored,openbind_d68ev3c_c2_elabs_scored_4.5plus,openbind_d68ev3c_c2_elabs,openbind_d68ev3c_c2_elabs_scored_5plus,syndirella_product,openbind_d68ev3c_c2_elabs_scored_top80percent,syndirella_placed

>  <smiles>  (1291) 
Cc1cc(C)c(NC(=O)C2(S(=O)(=O)c3cc(C)ccc3C)CCCC2)c(F)c1

>  <subsites>  (1291) 
None

>  <rmsd(smina/fragmenstein)>  (1291) 
1.241

>  <alias>  (1291) 
None

>  <energy_score>  (1291) 
-36.685021

>  <HIPPO Pose ID>  (1291) 
95837

>  <distance_score>  (1291) 
0.622355

>  <HIPPO Compound ID>  (1291) 
129786

>  <gnina_score_min>  (1291) 
5.345

>  <name>  (1291) 
P95837

>  <exports>  (1291) 
['/opt/xchem-fragalysis-2/maxwin/BulkDock/OUTPUTS/openbind_d68ev3c_c2_elabs_1LOTQJ3.sdf', '/opt/xchem-fragalysis-2/maxwin/BulkDock/OUTPUTS/openbind_d68ev3c_c2_elabs_1LSYI5W.sdf']

$$$$
P95838
     RDKit          3D

 28 30  0  0  0  0  0  0  0  0999 V2000
   20.0653    0.2801   14.0424 C   0  0  0  0  0  0  0  0  0  0  0  0
   19.5115   -1.0116   14.5692 C   0  0  0  0  0  0  0  0  0  0  0  0
   19.3636   -2.1124   13.7273 C   0  0  0  0  0  0  0  0  0  0  0  0
   18.8945   -3.3246   14.2318 C   0  0  0  0  0  0  0  0  0  0  0  0
   18.5568   -3.4688   15.5897 C   0  0  0  0  0  0  0  0  0  0  0  0
   18.1193   -4.8315   16.0545 C   0  0  0  0  0  0  0  0  0  0  0  0
   18.6728   -2.3448   16.4353 C   0  0  0  0  0  0  0  0  0  0  0  0
   18.2226   -2.4295   18.1707 S   0  0  0  0  0  0  0  0  0  0  0  0
   19.4646   -2.6106   18.8990 O   0  0  0  0  0  0  0  0  0  0  0  0
   17.1724   -3.4301   18.2943 O   0  0  0  0  0  0  0  0  0  0  0  0
   17.4588   -0.8908   18.6946 C   0  0  0  0  0  0  0  0  0  0  0  0
   16.4237   -0.4841   17.6235 C   0  0  0  0  0  0  0  0  0  0  0  0
   16.5892    0.4741   16.9681 O   0  0  0  0  0  0  0  0  0  0  0  0
   15.2056   -1.4703   17.6912 N   0  0  0  0  0  0  0  0  0  0  0  0
   14.0252   -1.5231   16.9178 C   0  0  0  0  0  0  0  0  0  0  0  0
   13.4431   -0.4187   16.2556 C   0  0  0  0  0  0  0  0  0  0  0  0
   13.8932    1.2270   16.5280 Cl  0  0  0  0  0  0  0  0  0  0  0  0
   12.3099   -0.5806   15.4407 C   0  0  0  0  0  0  0  0  0  0  0  0
   11.7158   -1.8244   15.3010 C   0  0  0  0  0  0  0  0  0  0  0  0
   12.2390   -2.8946   16.0070 C   0  0  0  0  0  0  0  0  0  0  0  0
   11.6232   -4.0733   15.8931 F   0  0  0  0  0  0  0  0  0  0  0  0
   13.3692   -2.7747   16.8297 C   0  0  0  0  0  0  0  0  0  0  0  0
   13.8424   -4.0015   17.5666 C   0  0  0  0  0  0  0  0  0  0  0  0
   18.5209    0.2248   18.9454 C   0  0  0  0  0  0  0  0  0  0  0  0
   18.2760    0.7529   20.3544 C   0  0  0  0  0  0  0  0  0  0  0  0
   17.7414   -0.4513   21.0941 C   0  0  0  0  0  0  0  0  0  0  0  0
   16.7802   -1.0567   20.0846 C   0  0  0  0  0  0  0  0  0  0  0  0
   19.1832   -1.1414   15.9251 C   0  0  0  0  0  0  0  0  0  0  0  0
  1  2  1  0
  2  3  2  0
  3  4  1  0
  4  5  2  0
  5  6  1  0
  5  7  1  0
  7  8  1  0
  8  9  2  0
  8 10  2  0
  8 11  1  0
 11 12  1  0
 12 13  2  0
 12 14  1  0
 14 15  1  0
 15 16  2  0
 16 17  1  0
 16 18  1  0
 18 19  2  0
 19 20  1  0
 20 21  1  0
 20 22  2  0
 22 23  1  0
 11 24  1  0
 24 25  1  0
 25 26  1  0
 26 27  1  0
  7 28  2  0
 28  2  1  0
 27 11  1  0
 22 15  1  0
M  END
>  <ref_mols>  (1292) 
B1396a

>  <gnina_score>  (1292) 
5.431

>  <smina_score_min>  (1292) 
-3.968

>  <ref_pdb>  (1292) 
B1396a

>  <inspiration_score>  (1292) 
None

>  <inchikey>  (1292) 
OXROTSRIISXGJO-UHFFFAOYSA-N

>  <tags>  (1292) 
BulkDock Fragalysis export,openbind_d68ev3c_c2_elabs_scored,openbind_d68ev3c_c2_elabs_scored_4.5plus,openbind_d68ev3c_c2_elabs,openbind_d68ev3c_c2_elabs_scored_5plus,syndirella_product,openbind_d68ev3c_c2_elabs_scored_top80percent,syndirella_placed

>  <smiles>  (1292) 
Cc1ccc(C)c(S(=O)(=O)C2(C(=O)Nc3c(Cl)ccc(F)c3C)CCCC2)c1

>  <subsites>  (1292) 
None

>  <rmsd(smina/fragmenstein)>  (1292) 
2.343

>  <alias>  (1292) 
None

>  <energy_score>  (1292) 
-36.466314

>  <HIPPO Pose ID>  (1292) 
95838

>  <distance_score>  (1292) 
0.491743

>  <HIPPO Compound ID>  (1292) 
129787

>  <gnina_score_min>  (1292) 
5.364

>  <name>  (1292) 
P95838

>  <exports>  (1292) 
['/opt/xchem-fragalysis-2/maxwin/BulkDock/OUTPUTS/openbind_d68ev3c_c2_elabs_1LOTQJ3.sdf', '/opt/xchem-fragalysis-2/maxwin/BulkDock/OUTPUTS/openbind_d68ev3c_c2_elabs_1LSYI5W.sdf']

$$$$
P95841
     RDKit          3D

 28 30  0  0  0  0  0  0  0  0999 V2000
   19.9403    0.4983   14.0887 C   0  0  0  0  0  0  0  0  0  0  0  0
   19.4917   -0.8432   14.5900 C   0  0  0  0  0  0  0  0  0  0  0  0
   19.3373   -1.9109   13.7073 C   0  0  0  0  0  0  0  0  0  0  0  0
   18.9142   -3.1542   14.1758 C   0  0  0  0  0  0  0  0  0  0  0  0
   18.6109   -3.3582   15.5341 C   0  0  0  0  0  0  0  0  0  0  0  0
   18.2424   -4.7535   15.9556 C   0  0  0  0  0  0  0  0  0  0  0  0
   18.6909   -2.2577   16.4119 C   0  0  0  0  0  0  0  0  0  0  0  0
   18.2580   -2.3865   18.1468 S   0  0  0  0  0  0  0  0  0  0  0  0
   17.3488   -3.5105   18.3031 O   0  0  0  0  0  0  0  0  0  0  0  0
   19.5155   -2.4014   18.8721 O   0  0  0  0  0  0  0  0  0  0  0  0
   17.3085   -0.9400   18.6384 C   0  0  0  0  0  0  0  0  0  0  0  0
   16.2772   -0.5868   17.5411 C   0  0  0  0  0  0  0  0  0  0  0  0
   16.3178    0.4542   17.0030 O   0  0  0  0  0  0  0  0  0  0  0  0
   15.2371   -1.7492   17.4209 N   0  0  0  0  0  0  0  0  0  0  0  0
   14.0334   -1.8205   16.7125 C   0  0  0  0  0  0  0  0  0  0  0  0
   13.5989   -0.7397   15.9380 C   0  0  0  0  0  0  0  0  0  0  0  0
   12.4107   -0.8283   15.2103 C   0  0  0  0  0  0  0  0  0  0  0  0
   11.8321    0.6381   14.1652 Br  0  0  0  0  0  0  0  0  0  0  0  0
   11.6483   -1.9896   15.2351 C   0  0  0  0  0  0  0  0  0  0  0  0
   12.0719   -3.0642   16.0138 C   0  0  0  0  0  0  0  0  0  0  0  0
   13.2529   -2.9909   16.7753 C   0  0  0  0  0  0  0  0  0  0  0  0
   13.6204   -4.1634   17.6477 C   0  0  0  0  0  0  0  0  0  0  0  0
   14.9123   -4.6124   17.2905 O   0  0  0  0  0  0  0  0  0  0  0  0
   16.5673   -1.1983   19.9840 C   0  0  0  0  0  0  0  0  0  0  0  0
   17.3698   -0.4725   21.0519 C   0  0  0  0  0  0  0  0  0  0  0  0
   17.8139    0.7826   20.3361 C   0  0  0  0  0  0  0  0  0  0  0  0
   18.2401    0.2706   18.9658 C   0  0  0  0  0  0  0  0  0  0  0  0
   19.1599   -1.0219   15.9391 C   0  0  0  0  0  0  0  0  0  0  0  0
  1  2  1  0
  2  3  2  0
  3  4  1  0
  4  5  2  0
  5  6  1  0
  5  7  1  0
  7  8  1  0
  8  9  2  0
  8 10  2  0
  8 11  1  0
 11 12  1  0
 12 13  2  0
 12 14  1  0
 14 15  1  0
 15 16  2  0
 16 17  1  0
 17 18  1  0
 17 19  2  0
 19 20  1  0
 20 21  2  0
 21 22  1  0
 22 23  1  0
 11 24  1  0
 24 25  1  0
 25 26  1  0
 26 27  1  0
  7 28  2  0
 28  2  1  0
 27 11  1  0
 21 15  1  0
M  END
>  <ref_mols>  (1293) 
B1396a

>  <gnina_score>  (1293) 
5.045

>  <smina_score_min>  (1293) 
-3.294

>  <ref_pdb>  (1293) 
B1396a

>  <inspiration_score>  (1293) 
None

>  <inchikey>  (1293) 
NMNQYGZBFZHKOQ-UHFFFAOYSA-N

>  <tags>  (1293) 
BulkDock Fragalysis export,openbind_d68ev3c_c2_elabs_scored,openbind_d68ev3c_c2_elabs_scored_4.5plus,openbind_d68ev3c_c2_elabs,openbind_d68ev3c_c2_elabs_scored_5plus,syndirella_product,openbind_d68ev3c_c2_elabs_scored_top80percent,syndirella_placed

>  <smiles>  (1293) 
Cc1ccc(C)c(S(=O)(=O)C2(C(=O)Nc3cc(Br)ccc3CO)CCCC2)c1

>  <subsites>  (1293) 
None

>  <rmsd(smina/fragmenstein)>  (1293) 
0.432

>  <alias>  (1293) 
None

>  <energy_score>  (1293) 
-55.431401

>  <HIPPO Pose ID>  (1293) 
95841

>  <distance_score>  (1293) 
0.425786

>  <HIPPO Compound ID>  (1293) 
129790

>  <gnina_score_min>  (1293) 
5.005

>  <name>  (1293) 
P95841

>  <exports>  (1293) 
['/opt/xchem-fragalysis-2/maxwin/BulkDock/OUTPUTS/openbind_d68ev3c_c2_elabs_1LOTQJ3.sdf', '/opt/xchem-fragalysis-2/maxwin/BulkDock/OUTPUTS/openbind_d68ev3c_c2_elabs_1LSYI5W.sdf']

$$$$
P95842
     RDKit          3D

 28 30  0  0  0  0  0  0  0  0999 V2000
   20.2952    0.1965   14.1151 C   0  0  0  0  0  0  0  0  0  0  0  0
   19.6786   -1.0740   14.6224 C   0  0  0  0  0  0  0  0  0  0  0  0
   19.4184   -2.1304   13.7525 C   0  0  0  0  0  0  0  0  0  0  0  0
   18.8494   -3.3100   14.2316 C   0  0  0  0  0  0  0  0  0  0  0  0
   18.4882   -3.4524   15.5844 C   0  0  0  0  0  0  0  0  0  0  0  0
   17.9593   -4.7900   16.0231 C   0  0  0  0  0  0  0  0  0  0  0  0
   18.6756   -2.3532   16.4471 C   0  0  0  0  0  0  0  0  0  0  0  0
   18.2048   -2.4003   18.1765 S   0  0  0  0  0  0  0  0  0  0  0  0
   19.4466   -2.4869   18.9228 O   0  0  0  0  0  0  0  0  0  0  0  0
   17.2026   -3.4430   18.3411 O   0  0  0  0  0  0  0  0  0  0  0  0
   17.3609   -0.8953   18.6319 C   0  0  0  0  0  0  0  0  0  0  0  0
   16.3334   -0.5613   17.5262 C   0  0  0  0  0  0  0  0  0  0  0  0
   16.5072    0.3610   16.8234 O   0  0  0  0  0  0  0  0  0  0  0  0
   15.1163   -1.5421   17.6302 N   0  0  0  0  0  0  0  0  0  0  0  0
   13.9453   -1.6366   16.8457 C   0  0  0  0  0  0  0  0  0  0  0  0
   13.3078   -2.9061   16.8083 C   0  0  0  0  0  0  0  0  0  0  0  0
   13.8078   -4.0893   17.6023 C   0  0  0  0  0  0  0  0  0  0  0  0
   12.1665   -3.1021   16.0071 C   0  0  0  0  0  0  0  0  0  0  0  0
   11.6362   -2.0643   15.2561 C   0  0  0  0  0  0  0  0  0  0  0  0
   12.2136   -0.8085   15.3447 C   0  0  0  0  0  0  0  0  0  0  0  0
   11.6228    0.1942   14.6753 F   0  0  0  0  0  0  0  0  0  0  0  0
   13.3410   -0.5703   16.1469 C   0  0  0  0  0  0  0  0  0  0  0  0
   13.7574    1.2695   16.4027 Br  0  0  0  0  0  0  0  0  0  0  0  0
   16.7349   -1.0259   20.0389 C   0  0  0  0  0  0  0  0  0  0  0  0
   16.4677    0.4059   20.4743 C   0  0  0  0  0  0  0  0  0  0  0  0
   17.6099    1.2155   19.8817 C   0  0  0  0  0  0  0  0  0  0  0  0
   18.3176    0.2964   18.8810 C   0  0  0  0  0  0  0  0  0  0  0  0
   19.3067   -1.1949   15.9672 C   0  0  0  0  0  0  0  0  0  0  0  0
  1  2  1  0
  2  3  2  0
  3  4  1  0
  4  5  2  0
  5  6  1  0
  5  7  1  0
  7  8  1  0
  8  9  2  0
  8 10  2  0
  8 11  1  0
 11 12  1  0
 12 13  2  0
 12 14  1  0
 14 15  1  0
 15 16  2  0
 16 17  1  0
 16 18  1  0
 18 19  2  0
 19 20  1  0
 20 21  1  0
 20 22  2  0
 22 23  1  0
 11 24  1  0
 24 25  1  0
 25 26  1  0
 26 27  1  0
  7 28  2  0
 28  2  1  0
 27 11  1  0
 22 15  1  0
M  END
>  <ref_mols>  (1294) 
B1396a

>  <gnina_score>  (1294) 
5.333

>  <smina_score_min>  (1294) 
-3.975

>  <ref_pdb>  (1294) 
B1396a

>  <inspiration_score>  (1294) 
None

>  <inchikey>  (1294) 
VAFPUBGCCNXAGX-UHFFFAOYSA-N

>  <tags>  (1294) 
BulkDock Fragalysis export,openbind_d68ev3c_c2_elabs_scored,openbind_d68ev3c_c2_elabs_scored_4.5plus,openbind_d68ev3c_c2_elabs,openbind_d68ev3c_c2_elabs_scored_5plus,syndirella_product,openbind_d68ev3c_c2_elabs_scored_top80percent,syndirella_placed

>  <smiles>  (1294) 
Cc1ccc(C)c(S(=O)(=O)C2(C(=O)Nc3c(C)ccc(F)c3Br)CCCC2)c1

>  <subsites>  (1294) 
None

>  <rmsd(smina/fragmenstein)>  (1294) 
1.389

>  <alias>  (1294) 
None

>  <energy_score>  (1294) 
-54.507302

>  <HIPPO Pose ID>  (1294) 
95842

>  <distance_score>  (1294) 
0.378881

>  <HIPPO Compound ID>  (1294) 
129791

>  <gnina_score_min>  (1294) 
5.447

>  <name>  (1294) 
P95842

>  <exports>  (1294) 
['/opt/xchem-fragalysis-2/maxwin/BulkDock/OUTPUTS/openbind_d68ev3c_c2_elabs_1LOTQJ3.sdf', '/opt/xchem-fragalysis-2/maxwin/BulkDock/OUTPUTS/openbind_d68ev3c_c2_elabs_1LSYI5W.sdf']

$$$$
P95843
     RDKit          3D

 28 31  0  0  0  0  0  0  0  0999 V2000
   13.6931   -4.0818   17.5953 C   0  0  0  0  0  0  0  0  0  0  0  0
   13.3312   -2.8539   16.8083 C   0  0  0  0  0  0  0  0  0  0  0  0
   12.2055   -2.8773   15.9759 C   0  0  0  0  0  0  0  0  0  0  0  0
   11.4798   -3.9931   15.8764 F   0  0  0  0  0  0  0  0  0  0  0  0
   11.8031   -1.7736   15.2337 C   0  0  0  0  0  0  0  0  0  0  0  0
   12.5474   -0.6054   15.3051 C   0  0  0  0  0  0  0  0  0  0  0  0
   13.6871   -0.5580   16.1129 C   0  0  0  0  0  0  0  0  0  0  0  0
   14.0829   -1.6710   16.8657 C   0  0  0  0  0  0  0  0  0  0  0  0
   15.2151   -1.6028   17.6799 N   0  0  0  0  0  0  0  0  0  0  0  0
   16.3457   -0.5334   17.7532 C   0  0  0  0  0  0  0  0  0  0  0  0
   16.4587    0.4932   17.1950 O   0  0  0  0  0  0  0  0  0  0  0  0
   17.3951   -0.9668   18.8254 C   0  0  0  0  0  0  0  0  0  0  0  0
   18.3057   -2.3991   18.1959 S   0  0  0  0  0  0  0  0  0  0  0  0
   19.5790   -2.5141   18.8848 O   0  0  0  0  0  0  0  0  0  0  0  0
   17.3758   -3.5204   18.2414 O   0  0  0  0  0  0  0  0  0  0  0  0
   18.7267   -2.1826   16.4773 C   0  0  0  0  0  0  0  0  0  0  0  0
   18.4260   -3.1924   15.5606 C   0  0  0  0  0  0  0  0  0  0  0  0
   18.7762   -3.0279   14.2194 C   0  0  0  0  0  0  0  0  0  0  0  0
   19.4145   -1.8565   13.7828 C   0  0  0  0  0  0  0  0  0  0  0  0
   19.7582   -1.6752   12.4341 C   0  0  0  0  0  0  0  0  0  0  0  0
   20.3969   -0.5085   12.0122 C   0  0  0  0  0  0  0  0  0  0  0  0
   20.7019    0.4899   12.9325 C   0  0  0  0  0  0  0  0  0  0  0  0
   20.3676    0.3254   14.2777 C   0  0  0  0  0  0  0  0  0  0  0  0
   19.7224   -0.8409   14.7192 C   0  0  0  0  0  0  0  0  0  0  0  0
   19.3789   -1.0172   16.0690 C   0  0  0  0  0  0  0  0  0  0  0  0
   16.8463   -1.1717   20.2767 C   0  0  0  0  0  0  0  0  0  0  0  0
   18.0952   -0.4661   20.8214 C   0  0  0  0  0  0  0  0  0  0  0  0
   18.2955    0.1584   19.4324 C   0  0  0  0  0  0  0  0  0  0  0  0
  1  2  1  0
  2  3  2  0
  3  4  1  0
  3  5  1  0
  5  6  2  0
  6  7  1  0
  7  8  2  0
  8  9  1  0
  9 10  1  0
 10 11  2  0
 10 12  1  0
 12 13  1  0
 13 14  2  0
 13 15  2  0
 13 16  1  0
 16 17  2  0
 17 18  1  0
 18 19  2  0
 19 20  1  0
 20 21  2  0
 21 22  1  0
 22 23  2  0
 23 24  1  0
 24 25  2  0
 12 26  1  0
 26 27  1  0
 27 28  1  0
  8  2  1  0
 28 12  1  0
 25 16  1  0
 24 19  1  0
M  END
>  <ref_mols>  (1295) 
B1396a

>  <gnina_score>  (1295) 
5.231

>  <smina_score_min>  (1295) 
-3.868

>  <ref_pdb>  (1295) 
B1396a

>  <inspiration_score>  (1295) 
None

>  <inchikey>  (1295) 
QXKDNCUFQROLOC-UHFFFAOYSA-N

>  <tags>  (1295) 
BulkDock Fragalysis export,openbind_d68ev3c_c2_elabs_scored,openbind_d68ev3c_c2_elabs_scored_4.5plus,openbind_d68ev3c_c2_elabs,openbind_d68ev3c_c2_elabs_scored_5plus,syndirella_product,openbind_d68ev3c_c2_elabs_scored_top80percent,syndirella_placed

>  <smiles>  (1295) 
Cc1c(F)cccc1NC(=O)C1(S(=O)(=O)c2ccc3ccccc3c2)CCC1

>  <subsites>  (1295) 
None

>  <rmsd(smina/fragmenstein)>  (1295) 
2.062

>  <alias>  (1295) 
None

>  <energy_score>  (1295) 
-37.79236

>  <HIPPO Pose ID>  (1295) 
95843

>  <distance_score>  (1295) 
0.47908

>  <HIPPO Compound ID>  (1295) 
129792

>  <gnina_score_min>  (1295) 
5.429

>  <name>  (1295) 
P95843

>  <exports>  (1295) 
['/opt/xchem-fragalysis-2/maxwin/BulkDock/OUTPUTS/openbind_d68ev3c_c2_elabs_1LOTQJ3.sdf', '/opt/xchem-fragalysis-2/maxwin/BulkDock/OUTPUTS/openbind_d68ev3c_c2_elabs_1LSYI5W.sdf']

$$$$
P95844
     RDKit          3D

 28 30  0  0  0  0  0  0  0  0999 V2000
   14.3691   -4.9064   18.2824 C   0  0  0  0  0  0  0  0  0  0  0  0
   13.8566   -4.0630   17.5994 C   0  0  0  0  0  0  0  0  0  0  0  0
   13.3496   -2.9967   16.7852 C   0  0  0  0  0  0  0  0  0  0  0  0
   12.1238   -3.1615   16.1367 C   0  0  0  0  0  0  0  0  0  0  0  0
   11.6115   -2.1454   15.3367 C   0  0  0  0  0  0  0  0  0  0  0  0
   10.3884   -2.3526   14.7760 O   0  0  0  0  0  0  0  0  0  0  0  0
   12.3201   -0.9665   15.1555 C   0  0  0  0  0  0  0  0  0  0  0  0
   13.5576   -0.7992   15.7946 C   0  0  0  0  0  0  0  0  0  0  0  0
   14.0765   -1.8050   16.6178 C   0  0  0  0  0  0  0  0  0  0  0  0
   15.2900   -1.6404   17.2982 N   0  0  0  0  0  0  0  0  0  0  0  0
   16.2753   -0.4292   17.3351 C   0  0  0  0  0  0  0  0  0  0  0  0
   16.2583    0.5811   16.7419 O   0  0  0  0  0  0  0  0  0  0  0  0
   17.3377   -0.6881   18.4335 C   0  0  0  0  0  0  0  0  0  0  0  0
   18.2519   -2.1952   18.0693 S   0  0  0  0  0  0  0  0  0  0  0  0
   17.3112   -3.2816   18.2961 O   0  0  0  0  0  0  0  0  0  0  0  0
   19.5024   -2.1854   18.8058 O   0  0  0  0  0  0  0  0  0  0  0  0
   18.6969   -2.1983   16.3339 C   0  0  0  0  0  0  0  0  0  0  0  0
   19.3173   -1.0477   15.8209 C   0  0  0  0  0  0  0  0  0  0  0  0
   19.6648   -0.9567   14.4681 C   0  0  0  0  0  0  0  0  0  0  0  0
   20.3417    0.2724   13.9362 C   0  0  0  0  0  0  0  0  0  0  0  0
   19.4290   -2.0490   13.6352 C   0  0  0  0  0  0  0  0  0  0  0  0
   18.8593   -3.2151   14.1470 C   0  0  0  0  0  0  0  0  0  0  0  0
   18.4973   -3.3190   15.5022 C   0  0  0  0  0  0  0  0  0  0  0  0
   17.9566   -4.6397   15.9767 C   0  0  0  0  0  0  0  0  0  0  0  0
   18.2825    0.5364   18.6119 C   0  0  0  0  0  0  0  0  0  0  0  0
   17.7812    1.2722   19.8466 C   0  0  0  0  0  0  0  0  0  0  0  0
   17.3576    0.1426   20.7579 C   0  0  0  0  0  0  0  0  0  0  0  0
   16.6255   -0.8034   19.8167 C   0  0  0  0  0  0  0  0  0  0  0  0
  1  2  3  0
  2  3  1  0
  3  4  2  0
  4  5  1  0
  5  6  1  0
  5  7  2  0
  7  8  1  0
  8  9  2  0
  9 10  1  0
 10 11  1  0
 11 12  2  0
 11 13  1  0
 13 14  1  0
 14 15  2  0
 14 16  2  0
 14 17  1  0
 17 18  2  0
 18 19  1  0
 19 20  1  0
 19 21  2  0
 21 22  1  0
 22 23  2  0
 23 24  1  0
 13 25  1  0
 25 26  1  0
 26 27  1  0
 27 28  1  0
  9  3  1  0
 28 13  1  0
 23 17  1  0
M  END
>  <ref_mols>  (1296) 
B1396a

>  <gnina_score>  (1296) 
5.009

>  <smina_score_min>  (1296) 
-3.814

>  <ref_pdb>  (1296) 
B1396a

>  <inspiration_score>  (1296) 
None

>  <inchikey>  (1296) 
DZZJCNWMJVZXSB-UHFFFAOYSA-N

>  <tags>  (1296) 
BulkDock Fragalysis export,openbind_d68ev3c_c2_elabs_scored,openbind_d68ev3c_c2_elabs_scored_4.5plus,openbind_d68ev3c_c2_elabs,openbind_d68ev3c_c2_elabs_scored_5plus,syndirella_product,openbind_d68ev3c_c2_elabs_scored_top80percent,syndirella_placed

>  <smiles>  (1296) 
C#Cc1cc(O)ccc1NC(=O)C1(S(=O)(=O)c2cc(C)ccc2C)CCCC1

>  <subsites>  (1296) 
None

>  <rmsd(smina/fragmenstein)>  (1296) 
0.785

>  <alias>  (1296) 
None

>  <energy_score>  (1296) 
-70.360512

>  <HIPPO Pose ID>  (1296) 
95844

>  <distance_score>  (1296) 
0.437575

>  <HIPPO Compound ID>  (1296) 
129793

>  <gnina_score_min>  (1296) 
5.027

>  <name>  (1296) 
P95844

>  <exports>  (1296) 
['/opt/xchem-fragalysis-2/maxwin/BulkDock/OUTPUTS/openbind_d68ev3c_c2_elabs_1LOTQJ3.sdf', '/opt/xchem-fragalysis-2/maxwin/BulkDock/OUTPUTS/openbind_d68ev3c_c2_elabs_1LSYI5W.sdf']

$$$$
P95845
     RDKit          3D

 28 32  0  0  0  0  0  0  0  0999 V2000
   16.6759   -0.6061   16.2912 O   0  0  0  0  0  0  0  0  0  0  0  0
   16.2559   -1.0935   17.2827 C   0  0  0  0  0  0  0  0  0  0  0  0
   14.9067   -1.7199   17.5715 N   0  0  0  0  0  0  0  0  0  0  0  0
   14.9142   -3.2709   17.2594 C   0  0  0  0  0  0  0  0  0  0  0  0
   13.5922   -3.9728   17.4820 C   0  0  0  0  0  0  0  0  0  0  0  0
   12.9177   -2.9583   16.6919 C   0  0  0  0  0  0  0  0  0  0  0  0
   11.7850   -3.0528   15.9045 C   0  0  0  0  0  0  0  0  0  0  0  0
   11.3787   -1.9349   15.1813 C   0  0  0  0  0  0  0  0  0  0  0  0
   12.1244   -0.7551   15.2397 C   0  0  0  0  0  0  0  0  0  0  0  0
   13.2863   -0.6953   16.0144 C   0  0  0  0  0  0  0  0  0  0  0  0
   13.6948   -1.8159   16.7386 C   0  0  0  0  0  0  0  0  0  0  0  0
   17.1707   -1.1577   18.5436 C   0  0  0  0  0  0  0  0  0  0  0  0
   18.4806   -2.3823   18.2150 S   0  0  0  0  0  0  0  0  0  0  0  0
   17.9064   -3.7102   18.3778 O   0  0  0  0  0  0  0  0  0  0  0  0
   19.6613   -2.0533   18.9980 O   0  0  0  0  0  0  0  0  0  0  0  0
   19.0059   -2.2898   16.5097 C   0  0  0  0  0  0  0  0  0  0  0  0
   18.6430   -3.2957   15.6108 C   0  0  0  0  0  0  0  0  0  0  0  0
   19.0231   -3.1867   14.2725 C   0  0  0  0  0  0  0  0  0  0  0  0
   19.7682   -2.0830   13.8265 C   0  0  0  0  0  0  0  0  0  0  0  0
   20.1445   -1.9572   12.4802 C   0  0  0  0  0  0  0  0  0  0  0  0
   20.8931   -0.8614   12.0485 C   0  0  0  0  0  0  0  0  0  0  0  0
   21.2775    0.1207   12.9565 C   0  0  0  0  0  0  0  0  0  0  0  0
   20.9116    0.0118   14.2991 C   0  0  0  0  0  0  0  0  0  0  0  0
   20.1556   -1.0818   14.7503 C   0  0  0  0  0  0  0  0  0  0  0  0
   19.7759   -1.1994   16.0961 C   0  0  0  0  0  0  0  0  0  0  0  0
   16.5579   -1.3040   19.9738 C   0  0  0  0  0  0  0  0  0  0  0  0
   16.5576    0.2327   20.0641 C   0  0  0  0  0  0  0  0  0  0  0  0
   17.7084    0.2294   19.0410 C   0  0  0  0  0  0  0  0  0  0  0  0
  1  2  2  0
  2  3  1  0
  3  4  1  0
  4  5  1  0
  5  6  1  0
  6  7  2  0
  7  8  1  0
  8  9  2  0
  9 10  1  0
 10 11  2  0
  2 12  1  0
 12 13  1  0
 13 14  2  0
 13 15  2  0
 13 16  1  0
 16 17  2  0
 17 18  1  0
 18 19  2  0
 19 20  1  0
 20 21  2  0
 21 22  1  0
 22 23  2  0
 23 24  1  0
 24 25  2  0
 12 26  1  0
 26 27  1  0
 27 28  1  0
 11  3  1  0
 28 12  1  0
 11  6  1  0
 25 16  1  0
 24 19  1  0
M  END
>  <ref_mols>  (1297) 
B1396a

>  <gnina_score>  (1297) 
5.156

>  <smina_score_min>  (1297) 
-3.802

>  <ref_pdb>  (1297) 
B1396a

>  <inspiration_score>  (1297) 
None

>  <inchikey>  (1297) 
JFTKSTUPUASLLL-UHFFFAOYSA-N

>  <tags>  (1297) 
BulkDock Fragalysis export,openbind_d68ev3c_c2_elabs_scored,openbind_d68ev3c_c2_elabs_scored_4.5plus,openbind_d68ev3c_c2_elabs,openbind_d68ev3c_c2_elabs_scored_5plus,syndirella_product,openbind_d68ev3c_c2_elabs_scored_top80percent,syndirella_placed

>  <smiles>  (1297) 
O=C(N1CCc2ccccc21)C1(S(=O)(=O)c2ccc3ccccc3c2)CCC1

>  <subsites>  (1297) 
None

>  <rmsd(smina/fragmenstein)>  (1297) 
1.553

>  <alias>  (1297) 
None

>  <energy_score>  (1297) 
-0.674349

>  <HIPPO Pose ID>  (1297) 
95845

>  <distance_score>  (1297) 
0.328705

>  <HIPPO Compound ID>  (1297) 
129794

>  <gnina_score_min>  (1297) 
5.051

>  <name>  (1297) 
P95845

>  <exports>  (1297) 
['/opt/xchem-fragalysis-2/maxwin/BulkDock/OUTPUTS/openbind_d68ev3c_c2_elabs_1LOTQJ3.sdf', '/opt/xchem-fragalysis-2/maxwin/BulkDock/OUTPUTS/openbind_d68ev3c_c2_elabs_1LSYI5W.sdf']

$$$$
P95846
     RDKit          3D

 28 30  0  0  0  0  0  0  0  0999 V2000
   17.1568   -2.3320   12.9566 C   0  0  0  0  0  0  0  0  0  0  0  0
   18.1828   -2.1551   14.0368 C   0  0  0  0  0  0  0  0  0  0  0  0
   19.4554   -1.6956   13.7019 C   0  0  0  0  0  0  0  0  0  0  0  0
   20.4038   -1.4554   14.6958 C   0  0  0  0  0  0  0  0  0  0  0  0
   20.1079   -1.6492   16.0569 C   0  0  0  0  0  0  0  0  0  0  0  0
   21.2119   -1.3925   17.0439 C   0  0  0  0  0  0  0  0  0  0  0  0
   18.8202   -2.1042   16.3958 C   0  0  0  0  0  0  0  0  0  0  0  0
   18.2871   -2.3630   18.0907 S   0  0  0  0  0  0  0  0  0  0  0  0
   19.4597   -2.5255   18.9291 O   0  0  0  0  0  0  0  0  0  0  0  0
   17.3022   -3.4349   18.0731 O   0  0  0  0  0  0  0  0  0  0  0  0
   17.4312   -0.8753   18.5897 C   0  0  0  0  0  0  0  0  0  0  0  0
   16.3612   -0.5447   17.5251 C   0  0  0  0  0  0  0  0  0  0  0  0
   16.4711    0.4014   16.8419 O   0  0  0  0  0  0  0  0  0  0  0  0
   15.2303   -1.6266   17.5847 N   0  0  0  0  0  0  0  0  0  0  0  0
   14.0000   -1.7030   16.9006 C   0  0  0  0  0  0  0  0  0  0  0  0
   13.3797   -2.9807   16.8866 C   0  0  0  0  0  0  0  0  0  0  0  0
   13.9511   -4.1763   17.6090 C   0  0  0  0  0  0  0  0  0  0  0  0
   12.1911   -3.1711   16.1658 C   0  0  0  0  0  0  0  0  0  0  0  0
   11.6059   -2.1190   15.4860 C   0  0  0  0  0  0  0  0  0  0  0  0
   10.4486   -2.3165   14.8471 F   0  0  0  0  0  0  0  0  0  0  0  0
   12.1628   -0.8559   15.5263 C   0  0  0  0  0  0  0  0  0  0  0  0
   13.3443   -0.6359   16.2469 C   0  0  0  0  0  0  0  0  0  0  0  0
   13.7668    1.0291   16.4147 Cl  0  0  0  0  0  0  0  0  0  0  0  0
   18.4003    0.3065   18.7854 C   0  0  0  0  0  0  0  0  0  0  0  0
   17.6519    1.2862   19.6876 C   0  0  0  0  0  0  0  0  0  0  0  0
   16.6403    0.4490   20.4645 C   0  0  0  0  0  0  0  0  0  0  0  0
   16.8485   -0.9929   20.0080 C   0  0  0  0  0  0  0  0  0  0  0  0
   17.8841   -2.3960   15.3826 C   0  0  0  0  0  0  0  0  0  0  0  0
  1  2  1  0
  2  3  2  0
  3  4  1  0
  4  5  2  0
  5  6  1  0
  5  7  1  0
  7  8  1  0
  8  9  2  0
  8 10  2  0
  8 11  1  0
 11 12  1  0
 12 13  2  0
 12 14  1  0
 14 15  1  0
 15 16  2  0
 16 17  1  0
 16 18  1  0
 18 19  2  0
 19 20  1  0
 19 21  1  0
 21 22  2  0
 22 23  1  0
 11 24  1  0
 24 25  1  0
 25 26  1  0
 26 27  1  0
  7 28  2  0
 28  2  1  0
 27 11  1  0
 22 15  1  0
M  END
>  <ref_mols>  (1298) 
B1396a

>  <gnina_score>  (1298) 
5.488

>  <smina_score_min>  (1298) 
-4.021

>  <ref_pdb>  (1298) 
B1396a

>  <inspiration_score>  (1298) 
None

>  <inchikey>  (1298) 
ISGSQBDJGXCSCS-UHFFFAOYSA-N

>  <tags>  (1298) 
BulkDock Fragalysis export,openbind_d68ev3c_c2_elabs_scored,openbind_d68ev3c_c2_elabs_scored_4.5plus,openbind_d68ev3c_c2_elabs,openbind_d68ev3c_c2_elabs_scored_5plus,syndirella_product,openbind_d68ev3c_c2_elabs_scored_top80percent,syndirella_placed

>  <smiles>  (1298) 
Cc1ccc(C)c(S(=O)(=O)C2(C(=O)Nc3c(C)cc(F)cc3Cl)CCCC2)c1

>  <subsites>  (1298) 
None

>  <rmsd(smina/fragmenstein)>  (1298) 
2.196

>  <alias>  (1298) 
None

>  <energy_score>  (1298) 
-41.178472

>  <HIPPO Pose ID>  (1298) 
95846

>  <distance_score>  (1298) 
0.483019

>  <HIPPO Compound ID>  (1298) 
129795

>  <gnina_score_min>  (1298) 
5.323

>  <name>  (1298) 
P95846

>  <exports>  (1298) 
['/opt/xchem-fragalysis-2/maxwin/BulkDock/OUTPUTS/openbind_d68ev3c_c2_elabs_1LOTQJ3.sdf', '/opt/xchem-fragalysis-2/maxwin/BulkDock/OUTPUTS/openbind_d68ev3c_c2_elabs_1LSYI5W.sdf']

$$$$
P95848
     RDKit          3D

 28 31  0  0  0  0  0  0  0  0999 V2000
   20.0364    0.3100   13.5175 C   0  0  0  0  0  0  0  0  0  0  0  0
   19.5918   -0.9478   14.2054 C   0  0  0  0  0  0  0  0  0  0  0  0
   19.4546   -2.1342   13.4870 C   0  0  0  0  0  0  0  0  0  0  0  0
   19.0966   -3.3132   14.1389 C   0  0  0  0  0  0  0  0  0  0  0  0
   18.8641   -3.3370   15.5250 C   0  0  0  0  0  0  0  0  0  0  0  0
   18.5754   -4.6720   16.1528 C   0  0  0  0  0  0  0  0  0  0  0  0
   18.9436   -2.1249   16.2405 C   0  0  0  0  0  0  0  0  0  0  0  0
   18.5340   -2.0309   17.9819 S   0  0  0  0  0  0  0  0  0  0  0  0
   19.7934   -2.0514   18.7014 O   0  0  0  0  0  0  0  0  0  0  0  0
   17.5575   -3.0740   18.2524 O   0  0  0  0  0  0  0  0  0  0  0  0
   17.6829   -0.4701   18.3110 C   0  0  0  0  0  0  0  0  0  0  0  0
   16.6301   -0.2125   17.2030 C   0  0  0  0  0  0  0  0  0  0  0  0
   16.6670    0.7516   16.5389 O   0  0  0  0  0  0  0  0  0  0  0  0
   15.5840   -1.3699   17.2470 N   0  0  0  0  0  0  0  0  0  0  0  0
   14.3669   -1.5203   16.5736 C   0  0  0  0  0  0  0  0  0  0  0  0
   13.9651   -0.6340   15.5746 C   0  0  0  0  0  0  0  0  0  0  0  0
   12.7545   -0.8298   14.9039 C   0  0  0  0  0  0  0  0  0  0  0  0
   11.9497   -1.9201   15.2144 C   0  0  0  0  0  0  0  0  0  0  0  0
   12.3468   -2.8002   16.2198 C   0  0  0  0  0  0  0  0  0  0  0  0
   13.5457   -2.6106   16.9368 C   0  0  0  0  0  0  0  0  0  0  0  0
   13.9053   -3.4824   18.1165 C   0  0  0  0  0  0  0  0  0  0  0  0
   14.9738   -4.5436   17.9967 C   0  0  0  0  0  0  0  0  0  0  0  0
   13.5474   -4.9291   18.1616 C   0  0  0  0  0  0  0  0  0  0  0  0
   18.6880    0.7136   18.4545 C   0  0  0  0  0  0  0  0  0  0  0  0
   18.3765    1.3885   19.7851 C   0  0  0  0  0  0  0  0  0  0  0  0
   17.8828    0.2513   20.6497 C   0  0  0  0  0  0  0  0  0  0  0  0
   16.9815   -0.5202   19.6998 C   0  0  0  0  0  0  0  0  0  0  0  0
   19.3517   -0.9549   15.5844 C   0  0  0  0  0  0  0  0  0  0  0  0
  1  2  1  0
  2  3  2  0
  3  4  1  0
  4  5  2  0
  5  6  1  0
  5  7  1  0
  7  8  1  0
  8  9  2  0
  8 10  2  0
  8 11  1  0
 11 12  1  0
 12 13  2  0
 12 14  1  0
 14 15  1  0
 15 16  2  0
 16 17  1  0
 17 18  2  0
 18 19  1  0
 19 20  2  0
 20 21  1  0
 21 22  1  0
 22 23  1  0
 11 24  1  0
 24 25  1  0
 25 26  1  0
 26 27  1  0
  7 28  2  0
 28  2  1  0
 27 11  1  0
 20 15  1  0
 23 21  1  0
M  END
>  <ref_mols>  (1299) 
B1396a

>  <gnina_score>  (1299) 
5.293

>  <smina_score_min>  (1299) 
-3.399

>  <ref_pdb>  (1299) 
B1396a

>  <inspiration_score>  (1299) 
None

>  <inchikey>  (1299) 
DMFDNFLIZLSEDL-UHFFFAOYSA-N

>  <tags>  (1299) 
BulkDock Fragalysis export,openbind_d68ev3c_c2_elabs_scored,openbind_d68ev3c_c2_elabs_scored_4.5plus,openbind_d68ev3c_c2_elabs,openbind_d68ev3c_c2_elabs_scored_5plus,syndirella_product,openbind_d68ev3c_c2_elabs_scored_top80percent,syndirella_placed

>  <smiles>  (1299) 
Cc1ccc(C)c(S(=O)(=O)C2(C(=O)Nc3ccccc3C3CC3)CCCC2)c1

>  <subsites>  (1299) 
None

>  <rmsd(smina/fragmenstein)>  (1299) 
2.228

>  <alias>  (1299) 
None

>  <energy_score>  (1299) 
-70.091115

>  <HIPPO Pose ID>  (1299) 
95848

>  <distance_score>  (1299) 
0.750196

>  <HIPPO Compound ID>  (1299) 
129798

>  <gnina_score_min>  (1299) 
5.008

>  <name>  (1299) 
P95848

>  <exports>  (1299) 
['/opt/xchem-fragalysis-2/maxwin/BulkDock/OUTPUTS/openbind_d68ev3c_c2_elabs_1LOTQJ3.sdf', '/opt/xchem-fragalysis-2/maxwin/BulkDock/OUTPUTS/openbind_d68ev3c_c2_elabs_1LSYI5W.sdf']

$$$$
P95849
     RDKit          3D

 28 30  0  0  0  0  0  0  0  0999 V2000
   20.2514    0.3617   14.1085 C   0  0  0  0  0  0  0  0  0  0  0  0
   19.6231   -0.9103   14.5975 C   0  0  0  0  0  0  0  0  0  0  0  0
   19.3963   -1.9686   13.7193 C   0  0  0  0  0  0  0  0  0  0  0  0
   18.8703   -3.1722   14.1883 C   0  0  0  0  0  0  0  0  0  0  0  0
   18.5468   -3.3493   15.5458 C   0  0  0  0  0  0  0  0  0  0  0  0
   18.0540   -4.7058   15.9684 C   0  0  0  0  0  0  0  0  0  0  0  0
   18.7354   -2.2634   16.4256 C   0  0  0  0  0  0  0  0  0  0  0  0
   18.3203   -2.3552   18.1678 S   0  0  0  0  0  0  0  0  0  0  0  0
   19.5822   -2.3861   18.8833 O   0  0  0  0  0  0  0  0  0  0  0  0
   17.3793   -3.4513   18.3468 O   0  0  0  0  0  0  0  0  0  0  0  0
   17.4107   -0.8758   18.6350 C   0  0  0  0  0  0  0  0  0  0  0  0
   16.3437   -0.5693   17.5586 C   0  0  0  0  0  0  0  0  0  0  0  0
   16.3195    0.4687   17.0144 O   0  0  0  0  0  0  0  0  0  0  0  0
   15.3612   -1.7831   17.4685 N   0  0  0  0  0  0  0  0  0  0  0  0
   14.1490   -1.9191   16.7899 C   0  0  0  0  0  0  0  0  0  0  0  0
   13.6506   -0.8747   15.9980 C   0  0  0  0  0  0  0  0  0  0  0  0
   12.4172   -0.9930   15.3401 C   0  0  0  0  0  0  0  0  0  0  0  0
   11.8892    0.1088   14.4734 C   0  0  0  0  0  0  0  0  0  0  0  0
   11.7115   -2.1852   15.4646 C   0  0  0  0  0  0  0  0  0  0  0  0
   10.5257   -2.3321   14.8613 F   0  0  0  0  0  0  0  0  0  0  0  0
   12.2006   -3.2333   16.2330 C   0  0  0  0  0  0  0  0  0  0  0  0
   13.4213   -3.1155   16.9099 C   0  0  0  0  0  0  0  0  0  0  0  0
   13.8937   -4.2711   17.7471 C   0  0  0  0  0  0  0  0  0  0  0  0
   18.3547    0.3390   18.8718 C   0  0  0  0  0  0  0  0  0  0  0  0
   17.8810    0.9901   20.1639 C   0  0  0  0  0  0  0  0  0  0  0  0
   17.4678   -0.1966   21.0046 C   0  0  0  0  0  0  0  0  0  0  0  0
   16.7127   -1.0718   20.0148 C   0  0  0  0  0  0  0  0  0  0  0  0
   19.3104   -1.0730   15.9526 C   0  0  0  0  0  0  0  0  0  0  0  0
  1  2  1  0
  2  3  2  0
  3  4  1  0
  4  5  2  0
  5  6  1  0
  5  7  1  0
  7  8  1  0
  8  9  2  0
  8 10  2  0
  8 11  1  0
 11 12  1  0
 12 13  2  0
 12 14  1  0
 14 15  1  0
 15 16  2  0
 16 17  1  0
 17 18  1  0
 17 19  2  0
 19 20  1  0
 19 21  1  0
 21 22  2  0
 22 23  1  0
 11 24  1  0
 24 25  1  0
 25 26  1  0
 26 27  1  0
  7 28  2  0
 28  2  1  0
 27 11  1  0
 22 15  1  0
M  END
>  <ref_mols>  (1300) 
B1396a

>  <gnina_score>  (1300) 
5.295

>  <smina_score_min>  (1300) 
-3.779

>  <ref_pdb>  (1300) 
B1396a

>  <inspiration_score>  (1300) 
None

>  <inchikey>  (1300) 
KSYBIJWREMSEAA-UHFFFAOYSA-N

>  <tags>  (1300) 
BulkDock Fragalysis export,openbind_d68ev3c_c2_elabs_scored,openbind_d68ev3c_c2_elabs_scored_4.5plus,openbind_d68ev3c_c2_elabs,openbind_d68ev3c_c2_elabs_scored_5plus,syndirella_product,openbind_d68ev3c_c2_elabs_scored_top80percent,syndirella_placed

>  <smiles>  (1300) 
Cc1ccc(C)c(S(=O)(=O)C2(C(=O)Nc3cc(C)c(F)cc3C)CCCC2)c1

>  <subsites>  (1300) 
None

>  <rmsd(smina/fragmenstein)>  (1300) 
0.679

>  <alias>  (1300) 
None

>  <energy_score>  (1300) 
-39.557316

>  <HIPPO Pose ID>  (1300) 
95849

>  <distance_score>  (1300) 
0.422214

>  <HIPPO Compound ID>  (1300) 
129800

>  <gnina_score_min>  (1300) 
5.418

>  <name>  (1300) 
P95849

>  <exports>  (1300) 
['/opt/xchem-fragalysis-2/maxwin/BulkDock/OUTPUTS/openbind_d68ev3c_c2_elabs_1LOTQJ3.sdf', '/opt/xchem-fragalysis-2/maxwin/BulkDock/OUTPUTS/openbind_d68ev3c_c2_elabs_1LSYI5W.sdf']

$$$$
P95850
     RDKit          3D

 28 30  0  0  0  0  0  0  0  0999 V2000
   14.4628    1.0127   14.8261 C   0  0  0  0  0  0  0  0  0  0  0  0
   13.9682    0.5865   16.0985 O   0  0  0  0  0  0  0  0  0  0  0  0
   13.4447   -0.6766   16.0341 C   0  0  0  0  0  0  0  0  0  0  0  0
   12.2457   -0.8411   15.3222 C   0  0  0  0  0  0  0  0  0  0  0  0
   11.5957   -2.0668   15.3072 C   0  0  0  0  0  0  0  0  0  0  0  0
   12.1200   -3.1213   16.0441 C   0  0  0  0  0  0  0  0  0  0  0  0
   13.3035   -2.9716   16.7914 C   0  0  0  0  0  0  0  0  0  0  0  0
   13.7874   -4.1574   17.5880 C   0  0  0  0  0  0  0  0  0  0  0  0
   13.9972   -1.7378   16.7731 C   0  0  0  0  0  0  0  0  0  0  0  0
   15.1956   -1.6660   17.5118 N   0  0  0  0  0  0  0  0  0  0  0  0
   16.3129   -0.5649   17.5350 C   0  0  0  0  0  0  0  0  0  0  0  0
   16.4373    0.4048   16.8865 O   0  0  0  0  0  0  0  0  0  0  0  0
   17.3232   -0.9056   18.6502 C   0  0  0  0  0  0  0  0  0  0  0  0
   18.1960   -2.4059   18.1781 S   0  0  0  0  0  0  0  0  0  0  0  0
   19.4369   -2.4913   18.9258 O   0  0  0  0  0  0  0  0  0  0  0  0
   17.2139   -3.4720   18.3107 O   0  0  0  0  0  0  0  0  0  0  0  0
   18.6646   -2.3133   16.4476 C   0  0  0  0  0  0  0  0  0  0  0  0
   19.2190   -1.1138   15.9735 C   0  0  0  0  0  0  0  0  0  0  0  0
   19.5659   -0.9604   14.6251 C   0  0  0  0  0  0  0  0  0  0  0  0
   20.1680    0.3245   14.1369 C   0  0  0  0  0  0  0  0  0  0  0  0
   19.3935   -2.0356   13.7552 C   0  0  0  0  0  0  0  0  0  0  0  0
   18.8851   -3.2462   14.2254 C   0  0  0  0  0  0  0  0  0  0  0  0
   18.5285   -3.4141   15.5759 C   0  0  0  0  0  0  0  0  0  0  0  0
   18.0557   -4.7768   16.0029 C   0  0  0  0  0  0  0  0  0  0  0  0
   16.5896   -1.0953   20.0096 C   0  0  0  0  0  0  0  0  0  0  0  0
   17.4254   -0.3604   21.0455 C   0  0  0  0  0  0  0  0  0  0  0  0
   17.9082    0.8511   20.2816 C   0  0  0  0  0  0  0  0  0  0  0  0
   18.3054    0.2729   18.9291 C   0  0  0  0  0  0  0  0  0  0  0  0
  1  2  1  0
  2  3  1  0
  3  4  2  0
  4  5  1  0
  5  6  2  0
  6  7  1  0
  7  8  1  0
  7  9  2  0
  9 10  1  0
 10 11  1  0
 11 12  2  0
 11 13  1  0
 13 14  1  0
 14 15  2  0
 14 16  2  0
 14 17  1  0
 17 18  2  0
 18 19  1  0
 19 20  1  0
 19 21  2  0
 21 22  1  0
 22 23  2  0
 23 24  1  0
 13 25  1  0
 25 26  1  0
 26 27  1  0
 27 28  1  0
  9  3  1  0
 28 13  1  0
 23 17  1  0
M  END
>  <ref_mols>  (1301) 
B1396a

>  <gnina_score>  (1301) 
5.066

>  <smina_score_min>  (1301) 
-3.744

>  <ref_pdb>  (1301) 
B1396a

>  <inspiration_score>  (1301) 
None

>  <inchikey>  (1301) 
CNFBXHHYKUPIKC-UHFFFAOYSA-N

>  <tags>  (1301) 
BulkDock Fragalysis export,openbind_d68ev3c_c2_elabs_scored,openbind_d68ev3c_c2_elabs_scored_4.5plus,openbind_d68ev3c_c2_elabs,openbind_d68ev3c_c2_elabs_scored_5plus,syndirella_product,openbind_d68ev3c_c2_elabs_scored_top80percent,syndirella_placed

>  <smiles>  (1301) 
COc1cccc(C)c1NC(=O)C1(S(=O)(=O)c2cc(C)ccc2C)CCCC1

>  <subsites>  (1301) 
None

>  <rmsd(smina/fragmenstein)>  (1301) 
1.839

>  <alias>  (1301) 
None

>  <energy_score>  (1301) 
-62.372651

>  <HIPPO Pose ID>  (1301) 
95850

>  <distance_score>  (1301) 
0.388513

>  <HIPPO Compound ID>  (1301) 
129801

>  <gnina_score_min>  (1301) 
5.274

>  <name>  (1301) 
P95850

>  <exports>  (1301) 
['/opt/xchem-fragalysis-2/maxwin/BulkDock/OUTPUTS/openbind_d68ev3c_c2_elabs_1LOTQJ3.sdf', '/opt/xchem-fragalysis-2/maxwin/BulkDock/OUTPUTS/openbind_d68ev3c_c2_elabs_1LSYI5W.sdf']

$$$$
P95851
     RDKit          3D

 28 31  0  0  0  0  0  0  0  0999 V2000
   18.3741   -3.0796   12.8977 C   0  0  0  0  0  0  0  0  0  0  0  0
   19.0350   -2.4410   14.0797 C   0  0  0  0  0  0  0  0  0  0  0  0
   20.1392   -1.6152   13.8903 C   0  0  0  0  0  0  0  0  0  0  0  0
   20.7788   -1.0306   14.9826 C   0  0  0  0  0  0  0  0  0  0  0  0
   20.3253   -1.2299   16.2992 C   0  0  0  0  0  0  0  0  0  0  0  0
   21.1586   -0.6407   17.4037 C   0  0  0  0  0  0  0  0  0  0  0  0
   19.1812   -2.0261   16.4900 C   0  0  0  0  0  0  0  0  0  0  0  0
   18.4754   -2.3577   18.1141 S   0  0  0  0  0  0  0  0  0  0  0  0
   19.5369   -2.1968   19.0916 O   0  0  0  0  0  0  0  0  0  0  0  0
   17.8559   -3.6705   18.0116 O   0  0  0  0  0  0  0  0  0  0  0  0
   17.1689   -1.1467   18.4528 C   0  0  0  0  0  0  0  0  0  0  0  0
   16.2585   -1.0905   17.2216 C   0  0  0  0  0  0  0  0  0  0  0  0
   16.6652   -0.6171   16.2209 O   0  0  0  0  0  0  0  0  0  0  0  0
   14.9002   -1.7006   17.5417 N   0  0  0  0  0  0  0  0  0  0  0  0
   14.8834   -3.2525   17.2417 C   0  0  0  0  0  0  0  0  0  0  0  0
   13.5699   -3.9568   17.4612 C   0  0  0  0  0  0  0  0  0  0  0  0
   12.9026   -2.9500   16.6586 C   0  0  0  0  0  0  0  0  0  0  0  0
   11.7688   -3.0745   15.8738 C   0  0  0  0  0  0  0  0  0  0  0  0
   11.3155   -1.9668   15.1689 C   0  0  0  0  0  0  0  0  0  0  0  0
   11.9990   -0.7547   15.2679 C   0  0  0  0  0  0  0  0  0  0  0  0
   13.1596   -0.6574   16.0466 C   0  0  0  0  0  0  0  0  0  0  0  0
   13.8709    0.9091   16.2005 Cl  0  0  0  0  0  0  0  0  0  0  0  0
   13.6561   -1.7881   16.7201 C   0  0  0  0  0  0  0  0  0  0  0  0
   17.7083    0.2734   18.6990 C   0  0  0  0  0  0  0  0  0  0  0  0
   18.1090    0.3410   20.1688 C   0  0  0  0  0  0  0  0  0  0  0  0
   17.3704   -0.7958   20.8635 C   0  0  0  0  0  0  0  0  0  0  0  0
   16.4816   -1.4320   19.7997 C   0  0  0  0  0  0  0  0  0  0  0  0
   18.5780   -2.6675   15.3845 C   0  0  0  0  0  0  0  0  0  0  0  0
  1  2  1  0
  2  3  2  0
  3  4  1  0
  4  5  2  0
  5  6  1  0
  5  7  1  0
  7  8  1  0
  8  9  2  0
  8 10  2  0
  8 11  1  0
 11 12  1  0
 12 13  2  0
 12 14  1  0
 14 15  1  0
 15 16  1  0
 16 17  1  0
 17 18  2  0
 18 19  1  0
 19 20  2  0
 20 21  1  0
 21 22  1  0
 21 23  2  0
 11 24  1  0
 24 25  1  0
 25 26  1  0
 26 27  1  0
  7 28  2  0
 28  2  1  0
 27 11  1  0
 23 14  1  0
 23 17  1  0
M  END
>  <ref_mols>  (1302) 
B1396a

>  <gnina_score>  (1302) 
5.443

>  <smina_score_min>  (1302) 
-3.862

>  <ref_pdb>  (1302) 
B1396a

>  <inspiration_score>  (1302) 
None

>  <inchikey>  (1302) 
ZBBBYMGTHWUBJA-UHFFFAOYSA-N

>  <tags>  (1302) 
BulkDock Fragalysis export,openbind_d68ev3c_c2_elabs_scored,openbind_d68ev3c_c2_elabs_scored_4.5plus,openbind_d68ev3c_c2_elabs,openbind_d68ev3c_c2_elabs_scored_5plus,syndirella_product,openbind_d68ev3c_c2_elabs_scored_top80percent,syndirella_placed

>  <smiles>  (1302) 
Cc1ccc(C)c(S(=O)(=O)C2(C(=O)N3CCc4cccc(Cl)c43)CCCC2)c1

>  <subsites>  (1302) 
None

>  <rmsd(smina/fragmenstein)>  (1302) 
1.669

>  <alias>  (1302) 
None

>  <energy_score>  (1302) 
-88.149299

>  <HIPPO Pose ID>  (1302) 
95851

>  <distance_score>  (1302) 
0.482872

>  <HIPPO Compound ID>  (1302) 
129802

>  <gnina_score_min>  (1302) 
5.138

>  <name>  (1302) 
P95851

>  <exports>  (1302) 
['/opt/xchem-fragalysis-2/maxwin/BulkDock/OUTPUTS/openbind_d68ev3c_c2_elabs_1LOTQJ3.sdf', '/opt/xchem-fragalysis-2/maxwin/BulkDock/OUTPUTS/openbind_d68ev3c_c2_elabs_1LSYI5W.sdf']

$$$$
P95852
     RDKit          3D

 28 30  0  0  0  0  0  0  0  0999 V2000
   20.2628    0.2313   14.0186 C   0  0  0  0  0  0  0  0  0  0  0  0
   19.6244   -1.0255   14.5328 C   0  0  0  0  0  0  0  0  0  0  0  0
   19.4432   -2.1212   13.6910 C   0  0  0  0  0  0  0  0  0  0  0  0
   18.9024   -3.3074   14.1867 C   0  0  0  0  0  0  0  0  0  0  0  0
   18.5196   -3.4297   15.5348 C   0  0  0  0  0  0  0  0  0  0  0  0
   18.0138   -4.7704   15.9924 C   0  0  0  0  0  0  0  0  0  0  0  0
   18.6622   -2.3069   16.3759 C   0  0  0  0  0  0  0  0  0  0  0  0
   18.1586   -2.3348   18.0976 S   0  0  0  0  0  0  0  0  0  0  0  0
   19.3832   -2.3939   18.8743 O   0  0  0  0  0  0  0  0  0  0  0  0
   17.1702   -3.3913   18.2538 O   0  0  0  0  0  0  0  0  0  0  0  0
   17.2827   -0.8122   18.4886 C   0  0  0  0  0  0  0  0  0  0  0  0
   16.2845   -0.5141   17.3461 C   0  0  0  0  0  0  0  0  0  0  0  0
   16.4164    0.4295   16.6622 O   0  0  0  0  0  0  0  0  0  0  0  0
   15.1503   -1.5959   17.3755 N   0  0  0  0  0  0  0  0  0  0  0  0
   13.9386   -1.6743   16.6527 C   0  0  0  0  0  0  0  0  0  0  0  0
   13.3404   -0.6396   15.8956 C   0  0  0  0  0  0  0  0  0  0  0  0
   13.8668    0.7626   15.7803 C   0  0  0  0  0  0  0  0  0  0  0  0
   12.1260   -0.8855   15.2051 C   0  0  0  0  0  0  0  0  0  0  0  0
   11.4908   -2.1080   15.3013 C   0  0  0  0  0  0  0  0  0  0  0  0
   10.2886   -2.3559   14.7176 O   0  0  0  0  0  0  0  0  0  0  0  0
   12.0484   -3.1153   16.0657 C   0  0  0  0  0  0  0  0  0  0  0  0
   13.2589   -2.9181   16.7490 C   0  0  0  0  0  0  0  0  0  0  0  0
   13.7760   -4.0729   17.5743 C   0  0  0  0  0  0  0  0  0  0  0  0
   16.5323   -0.9399   19.8474 C   0  0  0  0  0  0  0  0  0  0  0  0
   17.3474   -0.1479   20.8574 C   0  0  0  0  0  0  0  0  0  0  0  0
   17.8384    1.0244   20.0396 C   0  0  0  0  0  0  0  0  0  0  0  0
   18.2640    0.3755   18.7287 C   0  0  0  0  0  0  0  0  0  0  0  0
   19.2519   -1.1337   15.8784 C   0  0  0  0  0  0  0  0  0  0  0  0
  1  2  1  0
  2  3  2  0
  3  4  1  0
  4  5  2  0
  5  6  1  0
  5  7  1  0
  7  8  1  0
  8  9  2  0
  8 10  2  0
  8 11  1  0
 11 12  1  0
 12 13  2  0
 12 14  1  0
 14 15  1  0
 15 16  2  0
 16 17  1  0
 16 18  1  0
 18 19  2  0
 19 20  1  0
 19 21  1  0
 21 22  2  0
 22 23  1  0
 11 24  1  0
 24 25  1  0
 25 26  1  0
 26 27  1  0
  7 28  2  0
 28  2  1  0
 27 11  1  0
 22 15  1  0
M  END
>  <ref_mols>  (1303) 
B1396a

>  <gnina_score>  (1303) 
5.06

>  <smina_score_min>  (1303) 
-3.733

>  <ref_pdb>  (1303) 
B1396a

>  <inspiration_score>  (1303) 
None

>  <inchikey>  (1303) 
RXKALAPURLUMAI-UHFFFAOYSA-N

>  <tags>  (1303) 
BulkDock Fragalysis export,openbind_d68ev3c_c2_elabs_scored,openbind_d68ev3c_c2_elabs_scored_4.5plus,openbind_d68ev3c_c2_elabs,openbind_d68ev3c_c2_elabs_scored_5plus,syndirella_product,openbind_d68ev3c_c2_elabs_scored_top80percent,syndirella_placed

>  <smiles>  (1303) 
Cc1ccc(C)c(S(=O)(=O)C2(C(=O)Nc3c(C)cc(O)cc3C)CCCC2)c1

>  <subsites>  (1303) 
None

>  <rmsd(smina/fragmenstein)>  (1303) 
0.155

>  <alias>  (1303) 
None

>  <energy_score>  (1303) 
-45.563763

>  <HIPPO Pose ID>  (1303) 
95852

>  <distance_score>  (1303) 
0.390585

>  <HIPPO Compound ID>  (1303) 
129803

>  <gnina_score_min>  (1303) 
5.019

>  <name>  (1303) 
P95852

>  <exports>  (1303) 
['/opt/xchem-fragalysis-2/maxwin/BulkDock/OUTPUTS/openbind_d68ev3c_c2_elabs_1LOTQJ3.sdf', '/opt/xchem-fragalysis-2/maxwin/BulkDock/OUTPUTS/openbind_d68ev3c_c2_elabs_1LSYI5W.sdf']

$$$$
P95853
     RDKit          3D

 28 30  0  0  0  0  0  0  0  0999 V2000
   20.0821    0.4140   14.0799 C   0  0  0  0  0  0  0  0  0  0  0  0
   19.5293   -0.8871   14.5843 C   0  0  0  0  0  0  0  0  0  0  0  0
   19.3351   -1.9565   13.7116 C   0  0  0  0  0  0  0  0  0  0  0  0
   18.8746   -3.1818   14.1921 C   0  0  0  0  0  0  0  0  0  0  0  0
   18.5910   -3.3704   15.5566 C   0  0  0  0  0  0  0  0  0  0  0  0
   18.1621   -4.7459   15.9908 C   0  0  0  0  0  0  0  0  0  0  0  0
   18.7524   -2.2767   16.4343 C   0  0  0  0  0  0  0  0  0  0  0  0
   18.3750   -2.4092   18.1825 S   0  0  0  0  0  0  0  0  0  0  0  0
   17.3618   -3.4453   18.3267 O   0  0  0  0  0  0  0  0  0  0  0  0
   19.6470   -2.5584   18.8629 O   0  0  0  0  0  0  0  0  0  0  0  0
   17.5769   -0.9046   18.7539 C   0  0  0  0  0  0  0  0  0  0  0  0
   16.4843   -0.5020   17.7386 C   0  0  0  0  0  0  0  0  0  0  0  0
   16.5206    0.5367   17.1960 O   0  0  0  0  0  0  0  0  0  0  0  0
   15.3959   -1.6264   17.7032 N   0  0  0  0  0  0  0  0  0  0  0  0
   14.2270   -1.7320   16.9479 C   0  0  0  0  0  0  0  0  0  0  0  0
   13.7675   -0.6354   16.2030 C   0  0  0  0  0  0  0  0  0  0  0  0
   12.5802   -0.7141   15.4713 C   0  0  0  0  0  0  0  0  0  0  0  0
   11.8597   -1.8952   15.4800 C   0  0  0  0  0  0  0  0  0  0  0  0
   10.7050   -1.9722   14.8089 F   0  0  0  0  0  0  0  0  0  0  0  0
   12.3170   -2.9874   16.2038 C   0  0  0  0  0  0  0  0  0  0  0  0
   11.5954   -4.1114   16.1958 F   0  0  0  0  0  0  0  0  0  0  0  0
   13.4954   -2.9312   16.9547 C   0  0  0  0  0  0  0  0  0  0  0  0
   13.9213   -4.1411   17.7368 C   0  0  0  0  0  0  0  0  0  0  0  0
   16.9328   -1.1252   20.1547 C   0  0  0  0  0  0  0  0  0  0  0  0
   17.8548   -0.4435   21.1532 C   0  0  0  0  0  0  0  0  0  0  0  0
   18.3155    0.7813   20.3967 C   0  0  0  0  0  0  0  0  0  0  0  0
   18.6036    0.2410   19.0015 C   0  0  0  0  0  0  0  0  0  0  0  0
   19.2538   -1.0604   15.9468 C   0  0  0  0  0  0  0  0  0  0  0  0
  1  2  1  0
  2  3  2  0
  3  4  1  0
  4  5  2  0
  5  6  1  0
  5  7  1  0
  7  8  1  0
  8  9  2  0
  8 10  2  0
  8 11  1  0
 11 12  1  0
 12 13  2  0
 12 14  1  0
 14 15  1  0
 15 16  2  0
 16 17  1  0
 17 18  2  0
 18 19  1  0
 18 20  1  0
 20 21  1  0
 20 22  2  0
 22 23  1  0
 11 24  1  0
 24 25  1  0
 25 26  1  0
 26 27  1  0
  7 28  2  0
 28  2  1  0
 27 11  1  0
 22 15  1  0
M  END
>  <ref_mols>  (1304) 
B1396a

>  <gnina_score>  (1304) 
5.388

>  <smina_score_min>  (1304) 
-4.265

>  <ref_pdb>  (1304) 
B1396a

>  <inspiration_score>  (1304) 
None

>  <inchikey>  (1304) 
YQLDINPEBQERHR-UHFFFAOYSA-N

>  <tags>  (1304) 
BulkDock Fragalysis export,openbind_d68ev3c_c2_elabs_scored,openbind_d68ev3c_c2_elabs_scored_4.5plus,openbind_d68ev3c_c2_elabs,openbind_d68ev3c_c2_elabs_scored_5plus,syndirella_product,openbind_d68ev3c_c2_elabs_scored_top80percent,syndirella_placed

>  <smiles>  (1304) 
Cc1ccc(C)c(S(=O)(=O)C2(C(=O)Nc3ccc(F)c(F)c3C)CCCC2)c1

>  <subsites>  (1304) 
None

>  <rmsd(smina/fragmenstein)>  (1304) 
2.829

>  <alias>  (1304) 
None

>  <energy_score>  (1304) 
-45.976659

>  <HIPPO Pose ID>  (1304) 
95853

>  <distance_score>  (1304) 
0.528237

>  <HIPPO Compound ID>  (1304) 
129804

>  <gnina_score_min>  (1304) 
5.247

>  <name>  (1304) 
P95853

>  <exports>  (1304) 
['/opt/xchem-fragalysis-2/maxwin/BulkDock/OUTPUTS/openbind_d68ev3c_c2_elabs_1LOTQJ3.sdf', '/opt/xchem-fragalysis-2/maxwin/BulkDock/OUTPUTS/openbind_d68ev3c_c2_elabs_1LSYI5W.sdf']

$$$$
P95854
     RDKit          3D

 28 30  0  0  0  0  0  0  0  0999 V2000
   20.2130    0.2971   14.0584 C   0  0  0  0  0  0  0  0  0  0  0  0
   19.6362   -0.9802   14.5954 C   0  0  0  0  0  0  0  0  0  0  0  0
   19.3828   -2.0534   13.7433 C   0  0  0  0  0  0  0  0  0  0  0  0
   18.8419   -3.2368   14.2449 C   0  0  0  0  0  0  0  0  0  0  0  0
   18.5100   -3.3706   15.6055 C   0  0  0  0  0  0  0  0  0  0  0  0
   17.9882   -4.7059   16.0630 C   0  0  0  0  0  0  0  0  0  0  0  0
   18.7073   -2.2615   16.4551 C   0  0  0  0  0  0  0  0  0  0  0  0
   18.2754   -2.3066   18.1950 S   0  0  0  0  0  0  0  0  0  0  0  0
   19.5247   -2.4018   18.9254 O   0  0  0  0  0  0  0  0  0  0  0  0
   17.2661   -3.3428   18.3707 O   0  0  0  0  0  0  0  0  0  0  0  0
   17.4381   -0.7807   18.6486 C   0  0  0  0  0  0  0  0  0  0  0  0
   16.3686   -0.4691   17.5769 C   0  0  0  0  0  0  0  0  0  0  0  0
   16.4145    0.5167   16.9449 O   0  0  0  0  0  0  0  0  0  0  0  0
   15.3096   -1.6243   17.5794 N   0  0  0  0  0  0  0  0  0  0  0  0
   14.0849   -1.7435   16.8926 C   0  0  0  0  0  0  0  0  0  0  0  0
   13.5321   -0.6927   16.1467 C   0  0  0  0  0  0  0  0  0  0  0  0
   14.0822    0.5263   16.1439 F   0  0  0  0  0  0  0  0  0  0  0  0
   12.3584   -0.8494   15.4025 C   0  0  0  0  0  0  0  0  0  0  0  0
   11.7001   -2.0715   15.3824 C   0  0  0  0  0  0  0  0  0  0  0  0
   12.2093   -3.1239   16.1369 C   0  0  0  0  0  0  0  0  0  0  0  0
   13.3803   -2.9613   16.9014 C   0  0  0  0  0  0  0  0  0  0  0  0
   13.8339   -4.1291   17.6865 C   0  0  0  0  0  0  0  0  0  0  0  0
   13.5429   -5.2698   17.3529 O   0  0  0  0  0  0  0  0  0  0  0  0
   16.7567   -0.9229   20.0426 C   0  0  0  0  0  0  0  0  0  0  0  0
   17.5972   -0.1049   21.0111 C   0  0  0  0  0  0  0  0  0  0  0  0
   18.0469    1.0621   20.1619 C   0  0  0  0  0  0  0  0  0  0  0  0
   18.4334    0.3985   18.8467 C   0  0  0  0  0  0  0  0  0  0  0  0
   19.2932   -1.0906   15.9487 C   0  0  0  0  0  0  0  0  0  0  0  0
  1  2  1  0
  2  3  2  0
  3  4  1  0
  4  5  2  0
  5  6  1  0
  5  7  1  0
  7  8  1  0
  8  9  2  0
  8 10  2  0
  8 11  1  0
 11 12  1  0
 12 13  2  0
 12 14  1  0
 14 15  1  0
 15 16  2  0
 16 17  1  0
 16 18  1  0
 18 19  2  0
 19 20  1  0
 20 21  2  0
 21 22  1  0
 22 23  2  0
 11 24  1  0
 24 25  1  0
 25 26  1  0
 26 27  1  0
  7 28  2  0
 28  2  1  0
 27 11  1  0
 21 15  1  0
M  END
>  <ref_mols>  (1305) 
B1396a

>  <gnina_score>  (1305) 
5.348

>  <smina_score_min>  (1305) 
-3.232

>  <ref_pdb>  (1305) 
B1396a

>  <inspiration_score>  (1305) 
None

>  <inchikey>  (1305) 
PVKZWKGIDRRBMZ-UHFFFAOYSA-N

>  <tags>  (1305) 
BulkDock Fragalysis export,openbind_d68ev3c_c2_elabs_scored,openbind_d68ev3c_c2_elabs_scored_4.5plus,openbind_d68ev3c_c2_elabs,openbind_d68ev3c_c2_elabs_scored_5plus,syndirella_product,openbind_d68ev3c_c2_elabs_scored_top80percent,syndirella_placed

>  <smiles>  (1305) 
Cc1ccc(C)c(S(=O)(=O)C2(C(=O)Nc3c(F)cccc3C=O)CCCC2)c1

>  <subsites>  (1305) 
None

>  <rmsd(smina/fragmenstein)>  (1305) 
1.46

>  <alias>  (1305) 
None

>  <energy_score>  (1305) 
-53.952892

>  <HIPPO Pose ID>  (1305) 
95854

>  <distance_score>  (1305) 
0.429836

>  <HIPPO Compound ID>  (1305) 
129805

>  <gnina_score_min>  (1305) 
5.222

>  <name>  (1305) 
P95854

>  <exports>  (1305) 
['/opt/xchem-fragalysis-2/maxwin/BulkDock/OUTPUTS/openbind_d68ev3c_c2_elabs_1LOTQJ3.sdf', '/opt/xchem-fragalysis-2/maxwin/BulkDock/OUTPUTS/openbind_d68ev3c_c2_elabs_1LSYI5W.sdf']

$$$$
P95855
     RDKit          3D

 28 30  0  0  0  0  0  0  0  0999 V2000
   20.1111    0.4399   14.1954 C   0  0  0  0  0  0  0  0  0  0  0  0
   19.6239   -0.9035   14.6544 C   0  0  0  0  0  0  0  0  0  0  0  0
   19.3839   -1.9205   13.7310 C   0  0  0  0  0  0  0  0  0  0  0  0
   18.9243   -3.1656   14.1589 C   0  0  0  0  0  0  0  0  0  0  0  0
   18.6692   -3.4200   15.5179 C   0  0  0  0  0  0  0  0  0  0  0  0
   18.2412   -4.8127   15.8950 C   0  0  0  0  0  0  0  0  0  0  0  0
   18.8463   -2.3691   16.4431 C   0  0  0  0  0  0  0  0  0  0  0  0
   18.4579   -2.5782   18.1813 S   0  0  0  0  0  0  0  0  0  0  0  0
   17.4103   -3.5866   18.2652 O   0  0  0  0  0  0  0  0  0  0  0  0
   19.7204   -2.7986   18.8587 O   0  0  0  0  0  0  0  0  0  0  0  0
   17.7030   -1.0845   18.8236 C   0  0  0  0  0  0  0  0  0  0  0  0
   16.6668   -0.5757   17.8027 C   0  0  0  0  0  0  0  0  0  0  0  0
   16.7634    0.4962   17.3369 O   0  0  0  0  0  0  0  0  0  0  0  0
   15.5538   -1.6631   17.6226 N   0  0  0  0  0  0  0  0  0  0  0  0
   14.3414   -1.6115   16.9369 C   0  0  0  0  0  0  0  0  0  0  0  0
   13.9412   -0.4075   16.3452 C   0  0  0  0  0  0  0  0  0  0  0  0
   12.6855   -0.2812   15.7583 C   0  0  0  0  0  0  0  0  0  0  0  0
   11.8306   -1.3715   15.7421 C   0  0  0  0  0  0  0  0  0  0  0  0
   10.0525   -1.0876   15.1866 Br  0  0  0  0  0  0  0  0  0  0  0  0
   12.2573   -2.5991   16.2472 C   0  0  0  0  0  0  0  0  0  0  0  0
   11.4404   -3.6580   16.1848 F   0  0  0  0  0  0  0  0  0  0  0  0
   13.5030   -2.7376   16.8758 C   0  0  0  0  0  0  0  0  0  0  0  0
   13.8622   -4.0491   17.5180 C   0  0  0  0  0  0  0  0  0  0  0  0
   16.9996   -1.3614   20.1835 C   0  0  0  0  0  0  0  0  0  0  0  0
   17.9323   -0.8162   21.2530 C   0  0  0  0  0  0  0  0  0  0  0  0
   18.4799    0.4362   20.6074 C   0  0  0  0  0  0  0  0  0  0  0  0
   18.7673   -0.0007   19.1759 C   0  0  0  0  0  0  0  0  0  0  0  0
   19.3463   -1.1324   16.0082 C   0  0  0  0  0  0  0  0  0  0  0  0
  1  2  1  0
  2  3  2  0
  3  4  1  0
  4  5  2  0
  5  6  1  0
  5  7  1  0
  7  8  1  0
  8  9  2  0
  8 10  2  0
  8 11  1  0
 11 12  1  0
 12 13  2  0
 12 14  1  0
 14 15  1  0
 15 16  2  0
 16 17  1  0
 17 18  2  0
 18 19  1  0
 18 20  1  0
 20 21  1  0
 20 22  2  0
 22 23  1  0
 11 24  1  0
 24 25  1  0
 25 26  1  0
 26 27  1  0
  7 28  2  0
 28  2  1  0
 27 11  1  0
 22 15  1  0
M  END
>  <ref_mols>  (1306) 
B1396a

>  <gnina_score>  (1306) 
5.627

>  <smina_score_min>  (1306) 
-3.337

>  <ref_pdb>  (1306) 
B1396a

>  <inspiration_score>  (1306) 
None

>  <inchikey>  (1306) 
XDLANWUANDPFCF-UHFFFAOYSA-N

>  <tags>  (1306) 
BulkDock Fragalysis export,openbind_d68ev3c_c2_elabs_scored,openbind_d68ev3c_c2_elabs_scored_4.5plus,openbind_d68ev3c_c2_elabs,openbind_d68ev3c_c2_elabs_scored_5plus,syndirella_product,openbind_d68ev3c_c2_elabs_scored_top80percent,syndirella_placed

>  <smiles>  (1306) 
Cc1ccc(C)c(S(=O)(=O)C2(C(=O)Nc3ccc(Br)c(F)c3C)CCCC2)c1

>  <subsites>  (1306) 
None

>  <rmsd(smina/fragmenstein)>  (1306) 
1.248

>  <alias>  (1306) 
None

>  <energy_score>  (1306) 
-53.878456

>  <HIPPO Pose ID>  (1306) 
95855

>  <distance_score>  (1306) 
0.663069

>  <HIPPO Compound ID>  (1306) 
129806

>  <gnina_score_min>  (1306) 
5.428

>  <name>  (1306) 
P95855

>  <exports>  (1306) 
['/opt/xchem-fragalysis-2/maxwin/BulkDock/OUTPUTS/openbind_d68ev3c_c2_elabs_1LOTQJ3.sdf', '/opt/xchem-fragalysis-2/maxwin/BulkDock/OUTPUTS/openbind_d68ev3c_c2_elabs_1LSYI5W.sdf']

$$$$
P95856
     RDKit          3D

 28 31  0  0  0  0  0  0  0  0999 V2000
   18.8929   -3.7882   13.1596 C   0  0  0  0  0  0  0  0  0  0  0  0
   19.2838   -2.8217   14.2344 C   0  0  0  0  0  0  0  0  0  0  0  0
   20.1283   -1.7599   13.9197 C   0  0  0  0  0  0  0  0  0  0  0  0
   20.5736   -0.8954   14.9176 C   0  0  0  0  0  0  0  0  0  0  0  0
   20.1640   -1.0413   16.2551 C   0  0  0  0  0  0  0  0  0  0  0  0
   20.8307   -0.1582   17.2713 C   0  0  0  0  0  0  0  0  0  0  0  0
   19.2321   -2.0519   16.5572 C   0  0  0  0  0  0  0  0  0  0  0  0
   18.6116   -2.3382   18.2212 S   0  0  0  0  0  0  0  0  0  0  0  0
   18.0771   -3.6924   18.2242 O   0  0  0  0  0  0  0  0  0  0  0  0
   19.6940   -2.0398   19.1422 O   0  0  0  0  0  0  0  0  0  0  0  0
   17.2392   -1.2283   18.5652 C   0  0  0  0  0  0  0  0  0  0  0  0
   16.3581   -1.1867   17.3055 C   0  0  0  0  0  0  0  0  0  0  0  0
   16.7549   -0.6722   16.3226 O   0  0  0  0  0  0  0  0  0  0  0  0
   15.0231   -1.8421   17.5987 N   0  0  0  0  0  0  0  0  0  0  0  0
   15.0520   -3.3904   17.2507 C   0  0  0  0  0  0  0  0  0  0  0  0
   13.7447   -4.1050   17.5178 C   0  0  0  0  0  0  0  0  0  0  0  0
   13.0325   -3.0850   16.7695 C   0  0  0  0  0  0  0  0  0  0  0  0
   11.8575   -3.1690   16.0543 C   0  0  0  0  0  0  0  0  0  0  0  0
   11.4168   -2.0380   15.3841 C   0  0  0  0  0  0  0  0  0  0  0  0
   10.2359   -2.0759   14.7615 F   0  0  0  0  0  0  0  0  0  0  0  0
   12.1590   -0.8604   15.3856 C   0  0  0  0  0  0  0  0  0  0  0  0
   13.3662   -0.8102   16.0867 C   0  0  0  0  0  0  0  0  0  0  0  0
   13.8065   -1.9393   16.7833 C   0  0  0  0  0  0  0  0  0  0  0  0
   16.5640   -1.6179   19.8969 C   0  0  0  0  0  0  0  0  0  0  0  0
   15.8362   -0.3652   20.3812 C   0  0  0  0  0  0  0  0  0  0  0  0
   16.4835    0.8034   19.6481 C   0  0  0  0  0  0  0  0  0  0  0  0
   17.6745    0.2088   18.9000 C   0  0  0  0  0  0  0  0  0  0  0  0
   18.8155   -2.9497   15.5490 C   0  0  0  0  0  0  0  0  0  0  0  0
  1  2  1  0
  2  3  2  0
  3  4  1  0
  4  5  2  0
  5  6  1  0
  5  7  1  0
  7  8  1  0
  8  9  2  0
  8 10  2  0
  8 11  1  0
 11 12  1  0
 12 13  2  0
 12 14  1  0
 14 15  1  0
 15 16  1  0
 16 17  1  0
 17 18  2  0
 18 19  1  0
 19 20  1  0
 19 21  2  0
 21 22  1  0
 22 23  2  0
 11 24  1  0
 24 25  1  0
 25 26  1  0
 26 27  1  0
  7 28  2  0
 28  2  1  0
 27 11  1  0
 23 14  1  0
 23 17  1  0
M  END
>  <ref_mols>  (1307) 
B1396a

>  <gnina_score>  (1307) 
5.358

>  <smina_score_min>  (1307) 
-3.863

>  <ref_pdb>  (1307) 
B1396a

>  <inspiration_score>  (1307) 
None

>  <inchikey>  (1307) 
PQQZAYGRYJYISD-UHFFFAOYSA-N

>  <tags>  (1307) 
BulkDock Fragalysis export,openbind_d68ev3c_c2_elabs_scored,openbind_d68ev3c_c2_elabs_scored_4.5plus,openbind_d68ev3c_c2_elabs,openbind_d68ev3c_c2_elabs_scored_5plus,syndirella_product,openbind_d68ev3c_c2_elabs_scored_top80percent,syndirella_placed

>  <smiles>  (1307) 
Cc1ccc(C)c(S(=O)(=O)C2(C(=O)N3CCc4cc(F)ccc43)CCCC2)c1

>  <subsites>  (1307) 
None

>  <rmsd(smina/fragmenstein)>  (1307) 
1.355

>  <alias>  (1307) 
None

>  <energy_score>  (1307) 
-11.742518

>  <HIPPO Pose ID>  (1307) 
95856

>  <distance_score>  (1307) 
0.458233

>  <HIPPO Compound ID>  (1307) 
129807

>  <gnina_score_min>  (1307) 
5.085

>  <name>  (1307) 
P95856

>  <exports>  (1307) 
['/opt/xchem-fragalysis-2/maxwin/BulkDock/OUTPUTS/openbind_d68ev3c_c2_elabs_1LOTQJ3.sdf', '/opt/xchem-fragalysis-2/maxwin/BulkDock/OUTPUTS/openbind_d68ev3c_c2_elabs_1LSYI5W.sdf']

$$$$
P95857
     RDKit          3D

 28 31  0  0  0  0  0  0  0  0999 V2000
   13.7251   -4.1076   17.5933 C   0  0  0  0  0  0  0  0  0  0  0  0
   13.2270   -2.9211   16.8043 C   0  0  0  0  0  0  0  0  0  0  0  0
   12.0979   -3.1081   15.9886 C   0  0  0  0  0  0  0  0  0  0  0  0
   11.5848   -2.0687   15.2272 C   0  0  0  0  0  0  0  0  0  0  0  0
   12.1780   -0.8152   15.3003 C   0  0  0  0  0  0  0  0  0  0  0  0
   13.3056   -0.5867   16.1111 C   0  0  0  0  0  0  0  0  0  0  0  0
   13.7556    1.1412   16.2437 S   0  0  0  0  0  0  0  0  0  0  0  0
   13.8657   -1.6554   16.8480 C   0  0  0  0  0  0  0  0  0  0  0  0
   15.0087   -1.5625   17.6676 N   0  0  0  0  0  0  0  0  0  0  0  0
   16.2539   -0.6305   17.5665 C   0  0  0  0  0  0  0  0  0  0  0  0
   16.4833    0.2556   16.8305 O   0  0  0  0  0  0  0  0  0  0  0  0
   17.2539   -0.9701   18.7150 C   0  0  0  0  0  0  0  0  0  0  0  0
   18.2482   -2.3894   18.1878 S   0  0  0  0  0  0  0  0  0  0  0  0
   19.4759   -2.4419   18.9627 O   0  0  0  0  0  0  0  0  0  0  0  0
   17.3545   -3.5396   18.2088 O   0  0  0  0  0  0  0  0  0  0  0  0
   18.7856   -2.2194   16.4959 C   0  0  0  0  0  0  0  0  0  0  0  0
   19.2669   -0.9967   16.0325 C   0  0  0  0  0  0  0  0  0  0  0  0
   19.6621   -0.8752   14.6988 C   0  0  0  0  0  0  0  0  0  0  0  0
   19.6046   -1.9736   13.8270 C   0  0  0  0  0  0  0  0  0  0  0  0
   19.9997   -1.8602   12.4846 C   0  0  0  0  0  0  0  0  0  0  0  0
   19.9584   -2.9656   11.6341 C   0  0  0  0  0  0  0  0  0  0  0  0
   19.5387   -4.1997   12.1194 C   0  0  0  0  0  0  0  0  0  0  0  0
   19.1491   -4.3298   13.4531 C   0  0  0  0  0  0  0  0  0  0  0  0
   19.1515   -3.2219   14.3138 C   0  0  0  0  0  0  0  0  0  0  0  0
   18.7285   -3.3307   15.6478 C   0  0  0  0  0  0  0  0  0  0  0  0
   16.6602   -1.1257   20.1545 C   0  0  0  0  0  0  0  0  0  0  0  0
   17.8553   -0.3388   20.7071 C   0  0  0  0  0  0  0  0  0  0  0  0
   18.0835    0.2217   19.2959 C   0  0  0  0  0  0  0  0  0  0  0  0
  1  2  1  0
  2  3  2  0
  3  4  1  0
  4  5  2  0
  5  6  1  0
  6  7  1  0
  6  8  2  0
  8  9  1  0
  9 10  1  0
 10 11  2  0
 10 12  1  0
 12 13  1  0
 13 14  2  0
 13 15  2  0
 13 16  1  0
 16 17  2  0
 17 18  1  0
 18 19  2  0
 19 20  1  0
 20 21  2  0
 21 22  1  0
 22 23  2  0
 23 24  1  0
 24 25  2  0
 12 26  1  0
 26 27  1  0
 27 28  1  0
  8  2  1  0
 28 12  1  0
 25 16  1  0
 24 19  1  0
M  END
>  <ref_mols>  (1308) 
B1396a

>  <gnina_score>  (1308) 
5.332

>  <smina_score_min>  (1308) 
-3.563

>  <ref_pdb>  (1308) 
B1396a

>  <inspiration_score>  (1308) 
None

>  <inchikey>  (1308) 
HZVFTDNZZRSNOG-UHFFFAOYSA-N

>  <tags>  (1308) 
BulkDock Fragalysis export,openbind_d68ev3c_c2_elabs_scored,openbind_d68ev3c_c2_elabs_scored_4.5plus,openbind_d68ev3c_c2_elabs,openbind_d68ev3c_c2_elabs_scored_5plus,syndirella_product,openbind_d68ev3c_c2_elabs_scored_top80percent,syndirella_placed

>  <smiles>  (1308) 
Cc1cccc(S)c1NC(=O)C1(S(=O)(=O)c2ccc3ccccc3c2)CCC1

>  <subsites>  (1308) 
None

>  <rmsd(smina/fragmenstein)>  (1308) 
2.039

>  <alias>  (1308) 
None

>  <energy_score>  (1308) 
-41.733096

>  <HIPPO Pose ID>  (1308) 
95857

>  <distance_score>  (1308) 
0.386001

>  <HIPPO Compound ID>  (1308) 
129808

>  <gnina_score_min>  (1308) 
5.302

>  <name>  (1308) 
P95857

>  <exports>  (1308) 
['/opt/xchem-fragalysis-2/maxwin/BulkDock/OUTPUTS/openbind_d68ev3c_c2_elabs_1LOTQJ3.sdf', '/opt/xchem-fragalysis-2/maxwin/BulkDock/OUTPUTS/openbind_d68ev3c_c2_elabs_1LSYI5W.sdf']

$$$$
P95859
     RDKit          3D

 28 30  0  0  0  0  0  0  0  0999 V2000
   13.9846   -4.1583   17.6966 C   0  0  0  0  0  0  0  0  0  0  0  0
   13.4209   -2.9898   16.9254 C   0  0  0  0  0  0  0  0  0  0  0  0
   12.2528   -3.2224   16.1837 C   0  0  0  0  0  0  0  0  0  0  0  0
   11.6751   -2.2065   15.4495 C   0  0  0  0  0  0  0  0  0  0  0  0
   10.5461   -2.4462   14.7752 F   0  0  0  0  0  0  0  0  0  0  0  0
   12.2168   -0.9357   15.4596 C   0  0  0  0  0  0  0  0  0  0  0  0
   13.3775   -0.6585   16.2056 C   0  0  0  0  0  0  0  0  0  0  0  0
   13.7343    1.0930   16.2958 S   0  0  0  0  0  0  0  0  0  0  0  0
   14.0222   -1.7006   16.9199 C   0  0  0  0  0  0  0  0  0  0  0  0
   15.2001   -1.5664   17.6892 N   0  0  0  0  0  0  0  0  0  0  0  0
   16.3578   -0.5155   17.6008 C   0  0  0  0  0  0  0  0  0  0  0  0
   16.4671    0.4390   16.9280 O   0  0  0  0  0  0  0  0  0  0  0  0
   17.4341   -0.8261   18.6858 C   0  0  0  0  0  0  0  0  0  0  0  0
   18.2664   -2.3469   18.1580 S   0  0  0  0  0  0  0  0  0  0  0  0
   19.5079   -2.4828   18.8967 O   0  0  0  0  0  0  0  0  0  0  0  0
   17.2868   -3.4204   18.2155 O   0  0  0  0  0  0  0  0  0  0  0  0
   18.7131   -2.1421   16.4414 C   0  0  0  0  0  0  0  0  0  0  0  0
   19.9565   -1.5856   16.1167 C   0  0  0  0  0  0  0  0  0  0  0  0
   20.3179   -1.4370   14.7778 C   0  0  0  0  0  0  0  0  0  0  0  0
   19.4515   -1.8690   13.7808 C   0  0  0  0  0  0  0  0  0  0  0  0
   19.8014   -1.7227   12.4971 F   0  0  0  0  0  0  0  0  0  0  0  0
   18.2308   -2.4582   14.0960 C   0  0  0  0  0  0  0  0  0  0  0  0
   17.8591   -2.6097   15.4342 C   0  0  0  0  0  0  0  0  0  0  0  0
   16.8162   -1.0450   20.1016 C   0  0  0  0  0  0  0  0  0  0  0  0
   16.6817    0.2580   20.8854 C   0  0  0  0  0  0  0  0  0  0  0  0
   18.0439    0.8795   21.1815 C   0  0  0  0  0  0  0  0  0  0  0  0
   19.0928    0.5407   20.1255 C   0  0  0  0  0  0  0  0  0  0  0  0
   18.4584    0.3570   18.7483 C   0  0  0  0  0  0  0  0  0  0  0  0
  1  2  1  0
  2  3  2  0
  3  4  1  0
  4  5  1  0
  4  6  2  0
  6  7  1  0
  7  8  1  0
  7  9  2  0
  9 10  1  0
 10 11  1  0
 11 12  2  0
 11 13  1  0
 13 14  1  0
 14 15  2  0
 14 16  2  0
 14 17  1  0
 17 18  2  0
 18 19  1  0
 19 20  2  0
 20 21  1  0
 20 22  1  0
 22 23  2  0
 13 24  1  0
 24 25  1  0
 25 26  1  0
 26 27  1  0
 27 28  1  0
  9  2  1  0
 28 13  1  0
 23 17  1  0
M  END
>  <ref_mols>  (1309) 
B1396a

>  <gnina_score>  (1309) 
5.485

>  <smina_score_min>  (1309) 
-3.887

>  <ref_pdb>  (1309) 
B1396a

>  <inspiration_score>  (1309) 
None

>  <inchikey>  (1309) 
RZXVJTCZBFTDKC-UHFFFAOYSA-N

>  <tags>  (1309) 
BulkDock Fragalysis export,openbind_d68ev3c_c2_elabs_scored,openbind_d68ev3c_c2_elabs_scored_4.5plus,openbind_d68ev3c_c2_elabs,openbind_d68ev3c_c2_elabs_scored_5plus,syndirella_product,openbind_d68ev3c_c2_elabs_scored_top80percent,syndirella_placed

>  <smiles>  (1309) 
Cc1cc(F)cc(S)c1NC(=O)C1(S(=O)(=O)c2ccc(F)cc2)CCCCC1

>  <subsites>  (1309) 
None

>  <rmsd(smina/fragmenstein)>  (1309) 
1.618

>  <alias>  (1309) 
None

>  <energy_score>  (1309) 
-39.248923

>  <HIPPO Pose ID>  (1309) 
95859

>  <distance_score>  (1309) 
0.447213

>  <HIPPO Compound ID>  (1309) 
129810

>  <gnina_score_min>  (1309) 
5.423

>  <name>  (1309) 
P95859

>  <exports>  (1309) 
['/opt/xchem-fragalysis-2/maxwin/BulkDock/OUTPUTS/openbind_d68ev3c_c2_elabs_1LOTQJ3.sdf', '/opt/xchem-fragalysis-2/maxwin/BulkDock/OUTPUTS/openbind_d68ev3c_c2_elabs_1LSYI5W.sdf']

$$$$
P95860
     RDKit          3D

 28 31  0  0  0  0  0  0  0  0999 V2000
   19.7510   -1.8493   12.0971 C   0  0  0  0  0  0  0  0  0  0  0  0
   19.4820   -1.8831   13.5784 C   0  0  0  0  0  0  0  0  0  0  0  0
   18.2813   -2.4435   14.0416 C   0  0  0  0  0  0  0  0  0  0  0  0
   17.9922   -2.4919   15.4051 C   0  0  0  0  0  0  0  0  0  0  0  0
   18.8991   -1.9499   16.3156 C   0  0  0  0  0  0  0  0  0  0  0  0
   18.5501   -1.9957   18.0592 S   0  0  0  0  0  0  0  0  0  0  0  0
   19.8216   -2.1583   18.7387 O   0  0  0  0  0  0  0  0  0  0  0  0
   17.5158   -3.0018   18.2589 O   0  0  0  0  0  0  0  0  0  0  0  0
   17.8451   -0.3872   18.4784 C   0  0  0  0  0  0  0  0  0  0  0  0
   16.7300   -0.0367   17.4697 C   0  0  0  0  0  0  0  0  0  0  0  0
   16.7677    0.9280   16.8089 O   0  0  0  0  0  0  0  0  0  0  0  0
   15.6266   -1.1283   17.5991 N   0  0  0  0  0  0  0  0  0  0  0  0
   14.4403   -1.2961   16.9014 C   0  0  0  0  0  0  0  0  0  0  0  0
   13.8360   -0.3163   16.1190 C   0  0  0  0  0  0  0  0  0  0  0  0
   12.6234   -0.5905   15.4511 C   0  0  0  0  0  0  0  0  0  0  0  0
   12.0146   -1.8448   15.5546 C   0  0  0  0  0  0  0  0  0  0  0  0
   12.6422   -2.7931   16.3331 C   0  0  0  0  0  0  0  0  0  0  0  0
   13.8307   -2.5314   16.9891 C   0  0  0  0  0  0  0  0  0  0  0  0
   14.3332   -3.7621   17.6360 C   0  0  0  0  0  0  0  0  0  0  0  0
   13.0929   -4.6136   17.5188 C   0  0  0  0  0  0  0  0  0  0  0  0
   12.1984   -4.0692   16.5202 O   0  0  0  0  0  0  0  0  0  0  0  0
   17.2958   -0.3751   19.9173 C   0  0  0  0  0  0  0  0  0  0  0  0
   18.4972   -0.1068   20.8137 C   0  0  0  0  0  0  0  0  0  0  0  0
   19.4849    0.6846   19.9676 C   0  0  0  0  0  0  0  0  0  0  0  0
   18.9127    0.7207   18.5518 C   0  0  0  0  0  0  0  0  0  0  0  0
   20.1135   -1.4189   15.8760 C   0  0  0  0  0  0  0  0  0  0  0  0
   20.4105   -1.3694   14.5059 C   0  0  0  0  0  0  0  0  0  0  0  0
   21.7209   -0.7810   14.0566 C   0  0  0  0  0  0  0  0  0  0  0  0
  1  2  1  0
  2  3  2  0
  3  4  1  0
  4  5  2  0
  5  6  1  0
  6  7  2  0
  6  8  2  0
  6  9  1  0
  9 10  1  0
 10 11  2  0
 10 12  1  0
 12 13  1  0
 13 14  2  0
 14 15  1  0
 15 16  2  0
 16 17  1  0
 17 18  2  0
 18 19  1  0
 19 20  1  0
 20 21  1  0
  9 22  1  0
 22 23  1  0
 23 24  1  0
 24 25  1  0
  5 26  1  0
 26 27  2  0
 27 28  1  0
 27  2  1  0
 25  9  1  0
 18 13  1  0
 21 17  1  0
M  END
>  <ref_mols>  (1310) 
B1396a

>  <gnina_score>  (1310) 
5.202

>  <smina_score_min>  (1310) 
-3.821

>  <ref_pdb>  (1310) 
B1396a

>  <inspiration_score>  (1310) 
None

>  <inchikey>  (1310) 
AQULYKOGFBIGHN-UHFFFAOYSA-N

>  <tags>  (1310) 
BulkDock Fragalysis export,openbind_d68ev3c_c2_elabs_scored,openbind_d68ev3c_c2_elabs_scored_4.5plus,openbind_d68ev3c_c2_elabs,openbind_d68ev3c_c2_elabs_scored_5plus,syndirella_product,openbind_d68ev3c_c2_elabs_scored_top80percent,syndirella_placed

>  <smiles>  (1310) 
Cc1ccc(S(=O)(=O)C2(C(=O)Nc3cccc4c3CCO4)CCCC2)cc1C

>  <subsites>  (1310) 
None

>  <rmsd(smina/fragmenstein)>  (1310) 
2.143

>  <alias>  (1310) 
None

>  <energy_score>  (1310) 
-33.779794

>  <HIPPO Pose ID>  (1310) 
95860

>  <distance_score>  (1310) 
0.79828

>  <HIPPO Compound ID>  (1310) 
129811

>  <gnina_score_min>  (1310) 
5.052

>  <name>  (1310) 
P95860

>  <exports>  (1310) 
['/opt/xchem-fragalysis-2/maxwin/BulkDock/OUTPUTS/openbind_d68ev3c_c2_elabs_1LOTQJ3.sdf', '/opt/xchem-fragalysis-2/maxwin/BulkDock/OUTPUTS/openbind_d68ev3c_c2_elabs_1LSYI5W.sdf']

$$$$
P95861
     RDKit          3D

 28 30  0  0  0  0  0  0  0  0999 V2000
   20.3862   -1.8498   12.3820 C   0  0  0  0  0  0  0  0  0  0  0  0
   19.9174   -2.0505   13.7982 C   0  0  0  0  0  0  0  0  0  0  0  0
   20.1032   -1.0203   14.7318 C   0  0  0  0  0  0  0  0  0  0  0  0
   19.7116   -1.1806   16.0610 C   0  0  0  0  0  0  0  0  0  0  0  0
   19.0852   -2.3611   16.4615 C   0  0  0  0  0  0  0  0  0  0  0  0
   18.5939   -2.5682   18.1715 S   0  0  0  0  0  0  0  0  0  0  0  0
   18.4081   -3.9865   18.4191 O   0  0  0  0  0  0  0  0  0  0  0  0
   19.5890   -1.8517   18.9554 O   0  0  0  0  0  0  0  0  0  0  0  0
   17.0011   -1.7115   18.3781 C   0  0  0  0  0  0  0  0  0  0  0  0
   16.0121   -2.2943   17.3401 C   0  0  0  0  0  0  0  0  0  0  0  0
   16.2695   -3.2476   16.7155 O   0  0  0  0  0  0  0  0  0  0  0  0
   14.7184   -1.4267   17.3692 N   0  0  0  0  0  0  0  0  0  0  0  0
   13.5022   -1.6062   16.7339 C   0  0  0  0  0  0  0  0  0  0  0  0
   12.9044   -0.4621   16.2045 C   0  0  0  0  0  0  0  0  0  0  0  0
   11.7678   -0.5855   15.4150 C   0  0  0  0  0  0  0  0  0  0  0  0
   10.9916    0.9599   14.6601 Br  0  0  0  0  0  0  0  0  0  0  0  0
   11.2148   -1.8353   15.1662 C   0  0  0  0  0  0  0  0  0  0  0  0
   11.7835   -2.9691   15.7472 C   0  0  0  0  0  0  0  0  0  0  0  0
   12.9125   -2.8703   16.5755 C   0  0  0  0  0  0  0  0  0  0  0  0
   13.3493   -4.0938   17.3458 C   0  0  0  0  0  0  0  0  0  0  0  0
   13.3618   -3.8083   18.7393 O   0  0  0  0  0  0  0  0  0  0  0  0
   17.2010   -0.1753   18.3131 C   0  0  0  0  0  0  0  0  0  0  0  0
   17.0637    0.3251   19.7483 C   0  0  0  0  0  0  0  0  0  0  0  0
   16.0878   -0.6348   20.3954 C   0  0  0  0  0  0  0  0  0  0  0  0
   16.4744   -1.9879   19.8133 C   0  0  0  0  0  0  0  0  0  0  0  0
   18.9382   -3.4158   15.5551 C   0  0  0  0  0  0  0  0  0  0  0  0
   19.3615   -3.2745   14.2224 C   0  0  0  0  0  0  0  0  0  0  0  0
   19.2624   -4.4478   13.2853 C   0  0  0  0  0  0  0  0  0  0  0  0
  1  2  1  0
  2  3  2  0
  3  4  1  0
  4  5  2  0
  5  6  1  0
  6  7  2  0
  6  8  2  0
  6  9  1  0
  9 10  1  0
 10 11  2  0
 10 12  1  0
 12 13  1  0
 13 14  2  0
 14 15  1  0
 15 16  1  0
 15 17  2  0
 17 18  1  0
 18 19  2  0
 19 20  1  0
 20 21  1  0
  9 22  1  0
 22 23  1  0
 23 24  1  0
 24 25  1  0
  5 26  1  0
 26 27  2  0
 27 28  1  0
 27  2  1  0
 25  9  1  0
 19 13  1  0
M  END
>  <ref_mols>  (1311) 
B1396a

>  <gnina_score>  (1311) 
5.079

>  <smina_score_min>  (1311) 
-3.553

>  <ref_pdb>  (1311) 
B1396a

>  <inspiration_score>  (1311) 
None

>  <inchikey>  (1311) 
WWTNYCUVEQAOLR-UHFFFAOYSA-N

>  <tags>  (1311) 
BulkDock Fragalysis export,openbind_d68ev3c_c2_elabs_scored,openbind_d68ev3c_c2_elabs_scored_4.5plus,openbind_d68ev3c_c2_elabs,openbind_d68ev3c_c2_elabs_scored_5plus,syndirella_product,openbind_d68ev3c_c2_elabs_scored_top80percent,syndirella_placed

>  <smiles>  (1311) 
Cc1ccc(S(=O)(=O)C2(C(=O)Nc3cc(Br)ccc3CO)CCCC2)cc1C

>  <subsites>  (1311) 
None

>  <rmsd(smina/fragmenstein)>  (1311) 
2.35

>  <alias>  (1311) 
None

>  <energy_score>  (1311) 
-30.140014

>  <HIPPO Pose ID>  (1311) 
95861

>  <distance_score>  (1311) 
0.864552

>  <HIPPO Compound ID>  (1311) 
129812

>  <gnina_score_min>  (1311) 
5.029

>  <name>  (1311) 
P95861

>  <exports>  (1311) 
['/opt/xchem-fragalysis-2/maxwin/BulkDock/OUTPUTS/openbind_d68ev3c_c2_elabs_1LOTQJ3.sdf', '/opt/xchem-fragalysis-2/maxwin/BulkDock/OUTPUTS/openbind_d68ev3c_c2_elabs_1LSYI5W.sdf']

$$$$
P95862
     RDKit          3D

 28 30  0  0  0  0  0  0  0  0999 V2000
   19.9918   -2.1237   12.3454 C   0  0  0  0  0  0  0  0  0  0  0  0
   19.5201   -2.1994   13.7726 C   0  0  0  0  0  0  0  0  0  0  0  0
   19.4603   -1.0262   14.5382 C   0  0  0  0  0  0  0  0  0  0  0  0
   19.0503   -1.0550   15.8734 C   0  0  0  0  0  0  0  0  0  0  0  0
   18.6750   -2.2624   16.4546 C   0  0  0  0  0  0  0  0  0  0  0  0
   18.1882   -2.3922   18.1650 S   0  0  0  0  0  0  0  0  0  0  0  0
   19.4215   -2.5218   18.9194 O   0  0  0  0  0  0  0  0  0  0  0  0
   17.1996   -3.4599   18.2253 O   0  0  0  0  0  0  0  0  0  0  0  0
   17.3420   -0.9088   18.7076 C   0  0  0  0  0  0  0  0  0  0  0  0
   16.3173   -0.5269   17.6158 C   0  0  0  0  0  0  0  0  0  0  0  0
   16.4782    0.4344   16.9635 O   0  0  0  0  0  0  0  0  0  0  0  0
   15.1157   -1.5338   17.6611 N   0  0  0  0  0  0  0  0  0  0  0  0
   13.9488   -1.6070   16.8650 C   0  0  0  0  0  0  0  0  0  0  0  0
   13.3188   -2.8810   16.7924 C   0  0  0  0  0  0  0  0  0  0  0  0
   13.8291   -4.0847   17.5504 C   0  0  0  0  0  0  0  0  0  0  0  0
   12.1815   -3.0665   15.9824 C   0  0  0  0  0  0  0  0  0  0  0  0
   11.6463   -2.0145   15.2558 C   0  0  0  0  0  0  0  0  0  0  0  0
   12.2154   -0.7578   15.3768 C   0  0  0  0  0  0  0  0  0  0  0  0
   11.6199    0.2573   14.7300 F   0  0  0  0  0  0  0  0  0  0  0  0
   13.3399   -0.5298   16.1877 C   0  0  0  0  0  0  0  0  0  0  0  0
   13.7472    1.3078   16.4688 Br  0  0  0  0  0  0  0  0  0  0  0  0
   16.6676   -1.1354   20.0957 C   0  0  0  0  0  0  0  0  0  0  0  0
   17.0926    0.0288   20.9801 C   0  0  0  0  0  0  0  0  0  0  0  0
   18.4919    0.3320   20.5024 C   0  0  0  0  0  0  0  0  0  0  0  0
   18.3597    0.2385   18.9885 C   0  0  0  0  0  0  0  0  0  0  0  0
   18.7202   -3.4421   15.6992 C   0  0  0  0  0  0  0  0  0  0  0  0
   19.1523   -3.4241   14.3618 C   0  0  0  0  0  0  0  0  0  0  0  0
   19.3040   -4.7248   13.6181 C   0  0  0  0  0  0  0  0  0  0  0  0
  1  2  1  0
  2  3  2  0
  3  4  1  0
  4  5  2  0
  5  6  1  0
  6  7  2  0
  6  8  2  0
  6  9  1  0
  9 10  1  0
 10 11  2  0
 10 12  1  0
 12 13  1  0
 13 14  2  0
 14 15  1  0
 14 16  1  0
 16 17  2  0
 17 18  1  0
 18 19  1  0
 18 20  2  0
 20 21  1  0
  9 22  1  0
 22 23  1  0
 23 24  1  0
 24 25  1  0
  5 26  1  0
 26 27  2  0
 27 28  1  0
 27  2  1  0
 25  9  1  0
 20 13  1  0
M  END
>  <ref_mols>  (1312) 
B1396a

>  <gnina_score>  (1312) 
5.429

>  <smina_score_min>  (1312) 
-4.096

>  <ref_pdb>  (1312) 
B1396a

>  <inspiration_score>  (1312) 
None

>  <inchikey>  (1312) 
XUMXDWVYINMJSE-UHFFFAOYSA-N

>  <tags>  (1312) 
BulkDock Fragalysis export,openbind_d68ev3c_c2_elabs_scored,openbind_d68ev3c_c2_elabs_scored_4.5plus,openbind_d68ev3c_c2_elabs,openbind_d68ev3c_c2_elabs_scored_5plus,syndirella_product,openbind_d68ev3c_c2_elabs_scored_top80percent,syndirella_placed

>  <smiles>  (1312) 
Cc1ccc(S(=O)(=O)C2(C(=O)Nc3c(C)ccc(F)c3Br)CCCC2)cc1C

>  <subsites>  (1312) 
None

>  <rmsd(smina/fragmenstein)>  (1312) 
3.466

>  <alias>  (1312) 
None

>  <energy_score>  (1312) 
-41.011103

>  <HIPPO Pose ID>  (1312) 
95862

>  <distance_score>  (1312) 
0.473179

>  <HIPPO Compound ID>  (1312) 
129813

>  <gnina_score_min>  (1312) 
5.181

>  <name>  (1312) 
P95862

>  <exports>  (1312) 
['/opt/xchem-fragalysis-2/maxwin/BulkDock/OUTPUTS/openbind_d68ev3c_c2_elabs_1LOTQJ3.sdf', '/opt/xchem-fragalysis-2/maxwin/BulkDock/OUTPUTS/openbind_d68ev3c_c2_elabs_1LSYI5W.sdf']

$$$$
P95863
     RDKit          3D

 28 30  0  0  0  0  0  0  0  0999 V2000
   14.3466   -4.9103   18.1602 C   0  0  0  0  0  0  0  0  0  0  0  0
   13.8141   -4.0486   17.5166 C   0  0  0  0  0  0  0  0  0  0  0  0
   13.2852   -2.9661   16.7380 C   0  0  0  0  0  0  0  0  0  0  0  0
   12.0597   -3.1304   16.0892 C   0  0  0  0  0  0  0  0  0  0  0  0
   11.5296   -2.1013   15.3170 C   0  0  0  0  0  0  0  0  0  0  0  0
   10.3021   -2.3060   14.7655 O   0  0  0  0  0  0  0  0  0  0  0  0
   12.2209   -0.9089   15.1629 C   0  0  0  0  0  0  0  0  0  0  0  0
   13.4566   -0.7399   15.8050 C   0  0  0  0  0  0  0  0  0  0  0  0
   13.9929   -1.7601   16.5993 C   0  0  0  0  0  0  0  0  0  0  0  0
   15.2114   -1.5995   17.2691 N   0  0  0  0  0  0  0  0  0  0  0  0
   16.2341   -0.4195   17.2442 C   0  0  0  0  0  0  0  0  0  0  0  0
   16.2474    0.5594   16.6008 O   0  0  0  0  0  0  0  0  0  0  0  0
   17.2948   -0.6625   18.3503 C   0  0  0  0  0  0  0  0  0  0  0  0
   18.2070   -2.1702   17.9960 S   0  0  0  0  0  0  0  0  0  0  0  0
   17.2676   -3.2784   18.0727 O   0  0  0  0  0  0  0  0  0  0  0  0
   19.4037   -2.2079   18.8166 O   0  0  0  0  0  0  0  0  0  0  0  0
   18.7353   -2.0376   16.3056 C   0  0  0  0  0  0  0  0  0  0  0  0
   18.0460   -2.7230   15.3055 C   0  0  0  0  0  0  0  0  0  0  0  0
   18.4762   -2.6125   13.9836 C   0  0  0  0  0  0  0  0  0  0  0  0
   19.5976   -1.8349   13.6526 C   0  0  0  0  0  0  0  0  0  0  0  0
   20.0265   -1.7443   12.2118 C   0  0  0  0  0  0  0  0  0  0  0  0
   20.3064   -1.1679   14.6725 C   0  0  0  0  0  0  0  0  0  0  0  0
   21.5282   -0.3443   14.3665 C   0  0  0  0  0  0  0  0  0  0  0  0
   19.8714   -1.2843   16.0010 C   0  0  0  0  0  0  0  0  0  0  0  0
   18.2589    0.5499   18.4685 C   0  0  0  0  0  0  0  0  0  0  0  0
   17.6974    1.3857   19.6088 C   0  0  0  0  0  0  0  0  0  0  0  0
   17.2672    0.3298   20.6062 C   0  0  0  0  0  0  0  0  0  0  0  0
   16.6086   -0.7399   19.7415 C   0  0  0  0  0  0  0  0  0  0  0  0
  1  2  3  0
  2  3  1  0
  3  4  2  0
  4  5  1  0
  5  6  1  0
  5  7  2  0
  7  8  1  0
  8  9  2  0
  9 10  1  0
 10 11  1  0
 11 12  2  0
 11 13  1  0
 13 14  1  0
 14 15  2  0
 14 16  2  0
 14 17  1  0
 17 18  2  0
 18 19  1  0
 19 20  2  0
 20 21  1  0
 20 22  1  0
 22 23  1  0
 22 24  2  0
 13 25  1  0
 25 26  1  0
 26 27  1  0
 27 28  1  0
  9  3  1  0
 28 13  1  0
 24 17  1  0
M  END
>  <ref_mols>  (1313) 
B1396a

>  <gnina_score>  (1313) 
5.102

>  <smina_score_min>  (1313) 
-4.013

>  <ref_pdb>  (1313) 
B1396a

>  <inspiration_score>  (1313) 
None

>  <inchikey>  (1313) 
DCKNHKPEYZNRRE-UHFFFAOYSA-N

>  <tags>  (1313) 
BulkDock Fragalysis export,openbind_d68ev3c_c2_elabs_scored,openbind_d68ev3c_c2_elabs_scored_4.5plus,openbind_d68ev3c_c2_elabs,openbind_d68ev3c_c2_elabs_scored_5plus,syndirella_product,openbind_d68ev3c_c2_elabs_scored_top80percent,syndirella_placed

>  <smiles>  (1313) 
C#Cc1cc(O)ccc1NC(=O)C1(S(=O)(=O)c2ccc(C)c(C)c2)CCCC1

>  <subsites>  (1313) 
None

>  <rmsd(smina/fragmenstein)>  (1313) 
1.18

>  <alias>  (1313) 
None

>  <energy_score>  (1313) 
-58.554562

>  <HIPPO Pose ID>  (1313) 
95863

>  <distance_score>  (1313) 
0.432305

>  <HIPPO Compound ID>  (1313) 
129814

>  <gnina_score_min>  (1313) 
5.029

>  <name>  (1313) 
P95863

>  <exports>  (1313) 
['/opt/xchem-fragalysis-2/maxwin/BulkDock/OUTPUTS/openbind_d68ev3c_c2_elabs_1LOTQJ3.sdf', '/opt/xchem-fragalysis-2/maxwin/BulkDock/OUTPUTS/openbind_d68ev3c_c2_elabs_1LSYI5W.sdf']

$$$$
P95864
     RDKit          3D

 28 30  0  0  0  0  0  0  0  0999 V2000
   19.9076   -1.7057   12.2908 C   0  0  0  0  0  0  0  0  0  0  0  0
   19.5299   -1.8597   13.7405 C   0  0  0  0  0  0  0  0  0  0  0  0
   18.3601   -2.5627   14.0708 C   0  0  0  0  0  0  0  0  0  0  0  0
   17.9720   -2.7248   15.4010 C   0  0  0  0  0  0  0  0  0  0  0  0
   18.7513   -2.1623   16.4115 C   0  0  0  0  0  0  0  0  0  0  0  0
   18.2675   -2.3470   18.1127 S   0  0  0  0  0  0  0  0  0  0  0  0
   19.4834   -2.4867   18.8934 O   0  0  0  0  0  0  0  0  0  0  0  0
   17.2680   -3.4026   18.1727 O   0  0  0  0  0  0  0  0  0  0  0  0
   17.4560   -0.8142   18.5667 C   0  0  0  0  0  0  0  0  0  0  0  0
   16.3741   -0.5152   17.5026 C   0  0  0  0  0  0  0  0  0  0  0  0
   16.4762    0.4110   16.7913 O   0  0  0  0  0  0  0  0  0  0  0  0
   15.2066   -1.5497   17.6610 N   0  0  0  0  0  0  0  0  0  0  0  0
   14.0102   -1.6989   16.9287 C   0  0  0  0  0  0  0  0  0  0  0  0
   13.4111   -2.9846   16.9367 C   0  0  0  0  0  0  0  0  0  0  0  0
   13.9840   -4.1530   17.6984 C   0  0  0  0  0  0  0  0  0  0  0  0
   12.2424   -3.2118   16.1925 C   0  0  0  0  0  0  0  0  0  0  0  0
   11.6633   -2.1913   15.4605 C   0  0  0  0  0  0  0  0  0  0  0  0
   10.5357   -2.4302   14.7837 F   0  0  0  0  0  0  0  0  0  0  0  0
   12.2003   -0.9194   15.4767 C   0  0  0  0  0  0  0  0  0  0  0  0
   13.3554   -0.6614   16.2259 C   0  0  0  0  0  0  0  0  0  0  0  0
   13.7447    1.0149   16.3732 Cl  0  0  0  0  0  0  0  0  0  0  0  0
   18.4866    0.3470   18.6598 C   0  0  0  0  0  0  0  0  0  0  0  0
   18.0557    1.1606   19.8708 C   0  0  0  0  0  0  0  0  0  0  0  0
   17.6357    0.0862   20.8519 C   0  0  0  0  0  0  0  0  0  0  0  0
   16.8451   -0.8922   19.9910 C   0  0  0  0  0  0  0  0  0  0  0  0
   19.9332   -1.4835   16.1047 C   0  0  0  0  0  0  0  0  0  0  0  0
   20.3273   -1.3172   14.7683 C   0  0  0  0  0  0  0  0  0  0  0  0
   21.5983   -0.5719   14.4621 C   0  0  0  0  0  0  0  0  0  0  0  0
  1  2  1  0
  2  3  2  0
  3  4  1  0
  4  5  2  0
  5  6  1  0
  6  7  2  0
  6  8  2  0
  6  9  1  0
  9 10  1  0
 10 11  2  0
 10 12  1  0
 12 13  1  0
 13 14  2  0
 14 15  1  0
 14 16  1  0
 16 17  2  0
 17 18  1  0
 17 19  1  0
 19 20  2  0
 20 21  1  0
  9 22  1  0
 22 23  1  0
 23 24  1  0
 24 25  1  0
  5 26  1  0
 26 27  2  0
 27 28  1  0
 27  2  1  0
 25  9  1  0
 20 13  1  0
M  END
>  <ref_mols>  (1314) 
B1396a

>  <gnina_score>  (1314) 
5.556

>  <smina_score_min>  (1314) 
-3.873

>  <ref_pdb>  (1314) 
B1396a

>  <inspiration_score>  (1314) 
None

>  <inchikey>  (1314) 
BBGGBZATXPOHHO-UHFFFAOYSA-N

>  <tags>  (1314) 
BulkDock Fragalysis export,openbind_d68ev3c_c2_elabs_scored,openbind_d68ev3c_c2_elabs_scored_4.5plus,openbind_d68ev3c_c2_elabs,openbind_d68ev3c_c2_elabs_scored_5plus,syndirella_product,openbind_d68ev3c_c2_elabs_scored_top80percent,syndirella_placed

>  <smiles>  (1314) 
Cc1ccc(S(=O)(=O)C2(C(=O)Nc3c(C)cc(F)cc3Cl)CCCC2)cc1C

>  <subsites>  (1314) 
None

>  <rmsd(smina/fragmenstein)>  (1314) 
1.305

>  <alias>  (1314) 
None

>  <energy_score>  (1314) 
-35.480538

>  <HIPPO Pose ID>  (1314) 
95864

>  <distance_score>  (1314) 
0.405864

>  <HIPPO Compound ID>  (1314) 
129816

>  <gnina_score_min>  (1314) 
5.425

>  <name>  (1314) 
P95864

>  <exports>  (1314) 
['/opt/xchem-fragalysis-2/maxwin/BulkDock/OUTPUTS/openbind_d68ev3c_c2_elabs_1LOTQJ3.sdf', '/opt/xchem-fragalysis-2/maxwin/BulkDock/OUTPUTS/openbind_d68ev3c_c2_elabs_1LSYI5W.sdf']

$$$$
P95865
     RDKit          3D

 28 30  0  0  0  0  0  0  0  0999 V2000
   19.7459   -1.3053   12.4711 C   0  0  0  0  0  0  0  0  0  0  0  0
   19.3828   -1.5933   13.9039 C   0  0  0  0  0  0  0  0  0  0  0  0
   18.2486   -2.3734   14.1776 C   0  0  0  0  0  0  0  0  0  0  0  0
   17.8801   -2.6610   15.4917 C   0  0  0  0  0  0  0  0  0  0  0  0
   18.6438   -2.1573   16.5463 C   0  0  0  0  0  0  0  0  0  0  0  0
   18.2245   -2.5869   18.2203 S   0  0  0  0  0  0  0  0  0  0  0  0
   17.1247   -3.5375   18.1479 O   0  0  0  0  0  0  0  0  0  0  0  0
   19.4602   -2.9741   18.8738 O   0  0  0  0  0  0  0  0  0  0  0  0
   17.5808   -1.1242   19.0192 C   0  0  0  0  0  0  0  0  0  0  0  0
   16.5778   -0.4273   18.0746 C   0  0  0  0  0  0  0  0  0  0  0  0
   16.7746    0.6741   17.7253 O   0  0  0  0  0  0  0  0  0  0  0  0
   15.3545   -1.3643   17.8228 N   0  0  0  0  0  0  0  0  0  0  0  0
   14.2024   -1.1729   17.0330 C   0  0  0  0  0  0  0  0  0  0  0  0
   13.8159    0.0996   16.5632 C   0  0  0  0  0  0  0  0  0  0  0  0
   14.4198    1.2829   16.8851 O   0  0  0  0  0  0  0  0  0  0  0  0
   12.7082    0.2688   15.7375 C   0  0  0  0  0  0  0  0  0  0  0  0
   11.9987   -0.8314   15.3080 C   0  0  0  0  0  0  0  0  0  0  0  0
   12.3686   -2.0993   15.7506 C   0  0  0  0  0  0  0  0  0  0  0  0
   11.4360   -3.4806   14.8912 Br  0  0  0  0  0  0  0  0  0  0  0  0
   13.4126   -2.2978   16.6813 C   0  0  0  0  0  0  0  0  0  0  0  0
   13.7076   -3.6619   17.2634 C   0  0  0  0  0  0  0  0  0  0  0  0
   16.8969   -1.4670   20.3711 C   0  0  0  0  0  0  0  0  0  0  0  0
   17.7010   -0.7581   21.4567 C   0  0  0  0  0  0  0  0  0  0  0  0
   18.2977    0.4390   20.7463 C   0  0  0  0  0  0  0  0  0  0  0  0
   18.7307   -0.1547   19.4146 C   0  0  0  0  0  0  0  0  0  0  0  0
   19.7860   -1.3952   16.2935 C   0  0  0  0  0  0  0  0  0  0  0  0
   20.1579   -1.0962   14.9725 C   0  0  0  0  0  0  0  0  0  0  0  0
   21.3936   -0.2729   14.7250 C   0  0  0  0  0  0  0  0  0  0  0  0
  1  2  1  0
  2  3  2  0
  3  4  1  0
  4  5  2  0
  5  6  1  0
  6  7  2  0
  6  8  2  0
  6  9  1  0
  9 10  1  0
 10 11  2  0
 10 12  1  0
 12 13  1  0
 13 14  2  0
 14 15  1  0
 14 16  1  0
 16 17  2  0
 17 18  1  0
 18 19  1  0
 18 20  2  0
 20 21  1  0
  9 22  1  0
 22 23  1  0
 23 24  1  0
 24 25  1  0
  5 26  1  0
 26 27  2  0
 27 28  1  0
 27  2  1  0
 25  9  1  0
 20 13  1  0
M  END
>  <ref_mols>  (1315) 
B1396a

>  <gnina_score>  (1315) 
5.391

>  <smina_score_min>  (1315) 
-3.627

>  <ref_pdb>  (1315) 
B1396a

>  <inspiration_score>  (1315) 
None

>  <inchikey>  (1315) 
NLENWPFPSYNPTH-UHFFFAOYSA-N

>  <tags>  (1315) 
BulkDock Fragalysis export,openbind_d68ev3c_c2_elabs_scored,openbind_d68ev3c_c2_elabs_scored_4.5plus,openbind_d68ev3c_c2_elabs,openbind_d68ev3c_c2_elabs_scored_5plus,syndirella_product,openbind_d68ev3c_c2_elabs_scored_top80percent,syndirella_placed

>  <smiles>  (1315) 
Cc1ccc(S(=O)(=O)C2(C(=O)Nc3c(O)ccc(Br)c3C)CCCC2)cc1C

>  <subsites>  (1315) 
None

>  <rmsd(smina/fragmenstein)>  (1315) 
2.38

>  <alias>  (1315) 
None

>  <energy_score>  (1315) 
-50.171369

>  <HIPPO Pose ID>  (1315) 
95865

>  <distance_score>  (1315) 
0.912348

>  <HIPPO Compound ID>  (1315) 
129818

>  <gnina_score_min>  (1315) 
5.127

>  <name>  (1315) 
P95865

>  <exports>  (1315) 
['/opt/xchem-fragalysis-2/maxwin/BulkDock/OUTPUTS/openbind_d68ev3c_c2_elabs_1LOTQJ3.sdf', '/opt/xchem-fragalysis-2/maxwin/BulkDock/OUTPUTS/openbind_d68ev3c_c2_elabs_1LSYI5W.sdf']

$$$$
P95866
     RDKit          3D

 28 31  0  0  0  0  0  0  0  0999 V2000
   19.9254   -1.6333   12.2264 C   0  0  0  0  0  0  0  0  0  0  0  0
   19.5663   -1.7076   13.6870 C   0  0  0  0  0  0  0  0  0  0  0  0
   18.5157   -2.5462   14.0902 C   0  0  0  0  0  0  0  0  0  0  0  0
   18.1515   -2.6415   15.4331 C   0  0  0  0  0  0  0  0  0  0  0  0
   18.8345   -1.8827   16.3834 C   0  0  0  0  0  0  0  0  0  0  0  0
   18.4134   -2.0144   18.1040 S   0  0  0  0  0  0  0  0  0  0  0  0
   17.4450   -3.0928   18.2346 O   0  0  0  0  0  0  0  0  0  0  0  0
   19.6655   -2.1128   18.8319 O   0  0  0  0  0  0  0  0  0  0  0  0
   17.5834   -0.4886   18.5591 C   0  0  0  0  0  0  0  0  0  0  0  0
   16.4927   -0.1205   17.5190 C   0  0  0  0  0  0  0  0  0  0  0  0
   16.4706    0.9368   17.0162 O   0  0  0  0  0  0  0  0  0  0  0  0
   15.5012   -1.3162   17.3982 N   0  0  0  0  0  0  0  0  0  0  0  0
   14.2751   -1.4155   16.7326 C   0  0  0  0  0  0  0  0  0  0  0  0
   13.6759   -0.3171   16.1173 C   0  0  0  0  0  0  0  0  0  0  0  0
   12.4488   -0.4621   15.4657 C   0  0  0  0  0  0  0  0  0  0  0  0
   11.8247   -1.7040   15.4165 C   0  0  0  0  0  0  0  0  0  0  0  0
   12.4329   -2.8060   16.0192 C   0  0  0  0  0  0  0  0  0  0  0  0
   13.6690   -2.6922   16.6877 C   0  0  0  0  0  0  0  0  0  0  0  0
   14.4108   -3.8821   17.2608 C   0  0  0  0  0  0  0  0  0  0  0  0
   14.1502   -4.2891   18.6922 C   0  0  0  0  0  0  0  0  0  0  0  0
   13.7750   -5.1914   17.5580 C   0  0  0  0  0  0  0  0  0  0  0  0
   16.9824   -0.6006   19.9715 C   0  0  0  0  0  0  0  0  0  0  0  0
   16.8127    0.8418   20.4323 C   0  0  0  0  0  0  0  0  0  0  0  0
   17.9217    1.6300   19.7445 C   0  0  0  0  0  0  0  0  0  0  0  0
   18.5814    0.6721   18.7508 C   0  0  0  0  0  0  0  0  0  0  0  0
   19.9030   -1.0671   16.0055 C   0  0  0  0  0  0  0  0  0  0  0  0
   20.2713   -0.9641   14.6554 C   0  0  0  0  0  0  0  0  0  0  0  0
   21.4208   -0.0716   14.2715 C   0  0  0  0  0  0  0  0  0  0  0  0
  1  2  1  0
  2  3  2  0
  3  4  1  0
  4  5  2  0
  5  6  1  0
  6  7  2  0
  6  8  2  0
  6  9  1  0
  9 10  1  0
 10 11  2  0
 10 12  1  0
 12 13  1  0
 13 14  2  0
 14 15  1  0
 15 16  2  0
 16 17  1  0
 17 18  2  0
 18 19  1  0
 19 20  1  0
 20 21  1  0
  9 22  1  0
 22 23  1  0
 23 24  1  0
 24 25  1  0
  5 26  1  0
 26 27  2  0
 27 28  1  0
 27  2  1  0
 25  9  1  0
 18 13  1  0
 21 19  1  0
M  END
>  <ref_mols>  (1316) 
B1396a

>  <gnina_score>  (1316) 
5.261

>  <smina_score_min>  (1316) 
-3.677

>  <ref_pdb>  (1316) 
B1396a

>  <inspiration_score>  (1316) 
None

>  <inchikey>  (1316) 
ZJNSKDWRTGNJKO-UHFFFAOYSA-N

>  <tags>  (1316) 
BulkDock Fragalysis export,openbind_d68ev3c_c2_elabs_scored,openbind_d68ev3c_c2_elabs_scored_4.5plus,openbind_d68ev3c_c2_elabs,openbind_d68ev3c_c2_elabs_scored_5plus,syndirella_product,openbind_d68ev3c_c2_elabs_scored_top80percent,syndirella_placed

>  <smiles>  (1316) 
Cc1ccc(S(=O)(=O)C2(C(=O)Nc3ccccc3C3CC3)CCCC2)cc1C

>  <subsites>  (1316) 
None

>  <rmsd(smina/fragmenstein)>  (1316) 
2.701

>  <alias>  (1316) 
None

>  <energy_score>  (1316) 
-41.683618

>  <HIPPO Pose ID>  (1316) 
95866

>  <distance_score>  (1316) 
0.690966

>  <HIPPO Compound ID>  (1316) 
129819

>  <gnina_score_min>  (1316) 
5.265

>  <name>  (1316) 
P95866

>  <exports>  (1316) 
['/opt/xchem-fragalysis-2/maxwin/BulkDock/OUTPUTS/openbind_d68ev3c_c2_elabs_1LOTQJ3.sdf', '/opt/xchem-fragalysis-2/maxwin/BulkDock/OUTPUTS/openbind_d68ev3c_c2_elabs_1LSYI5W.sdf']

$$$$
P95867
     RDKit          3D

 28 30  0  0  0  0  0  0  0  0999 V2000
   19.9879   -1.2590   12.3153 C   0  0  0  0  0  0  0  0  0  0  0  0
   19.5384   -1.5554   13.7216 C   0  0  0  0  0  0  0  0  0  0  0  0
   20.3910   -1.2360   14.7894 C   0  0  0  0  0  0  0  0  0  0  0  0
   20.0063   -1.4724   16.1078 C   0  0  0  0  0  0  0  0  0  0  0  0
   18.7598   -2.0384   16.3673 C   0  0  0  0  0  0  0  0  0  0  0  0
   18.2860   -2.3493   18.0526 S   0  0  0  0  0  0  0  0  0  0  0  0
   17.3478   -3.4607   18.0509 O   0  0  0  0  0  0  0  0  0  0  0  0
   19.5101   -2.4692   18.8250 O   0  0  0  0  0  0  0  0  0  0  0  0
   17.4027   -0.8930   18.6004 C   0  0  0  0  0  0  0  0  0  0  0  0
   16.2828   -0.5419   17.5896 C   0  0  0  0  0  0  0  0  0  0  0  0
   16.2411    0.5152   17.0850 O   0  0  0  0  0  0  0  0  0  0  0  0
   15.3084   -1.7580   17.4727 N   0  0  0  0  0  0  0  0  0  0  0  0
   14.0856   -1.8782   16.8124 C   0  0  0  0  0  0  0  0  0  0  0  0
   13.5736   -0.8175   16.0521 C   0  0  0  0  0  0  0  0  0  0  0  0
   12.3438   -0.9362   15.3890 C   0  0  0  0  0  0  0  0  0  0  0  0
   11.8006    0.1776   14.5473 C   0  0  0  0  0  0  0  0  0  0  0  0
   11.6557   -2.1421   15.4789 C   0  0  0  0  0  0  0  0  0  0  0  0
   10.4682   -2.2850   14.8788 F   0  0  0  0  0  0  0  0  0  0  0  0
   12.1610   -3.2063   16.2140 C   0  0  0  0  0  0  0  0  0  0  0  0
   13.3778   -3.0894   16.8963 C   0  0  0  0  0  0  0  0  0  0  0  0
   13.8773   -4.2663   17.6879 C   0  0  0  0  0  0  0  0  0  0  0  0
   16.8430   -1.0799   20.0194 C   0  0  0  0  0  0  0  0  0  0  0  0
   16.6275    0.3381   20.5364 C   0  0  0  0  0  0  0  0  0  0  0  0
   17.6683    1.2031   19.8324 C   0  0  0  0  0  0  0  0  0  0  0  0
   18.3581    0.2997   18.8098 C   0  0  0  0  0  0  0  0  0  0  0  0
   17.9076   -2.3934   15.3163 C   0  0  0  0  0  0  0  0  0  0  0  0
   18.2711   -2.1129   13.9884 C   0  0  0  0  0  0  0  0  0  0  0  0
   17.3001   -2.3902   12.8725 C   0  0  0  0  0  0  0  0  0  0  0  0
  1  2  1  0
  2  3  2  0
  3  4  1  0
  4  5  2  0
  5  6  1  0
  6  7  2  0
  6  8  2  0
  6  9  1  0
  9 10  1  0
 10 11  2  0
 10 12  1  0
 12 13  1  0
 13 14  2  0
 14 15  1  0
 15 16  1  0
 15 17  2  0
 17 18  1  0
 17 19  1  0
 19 20  2  0
 20 21  1  0
  9 22  1  0
 22 23  1  0
 23 24  1  0
 24 25  1  0
  5 26  1  0
 26 27  2  0
 27 28  1  0
 27  2  1  0
 25  9  1  0
 20 13  1  0
M  END
>  <ref_mols>  (1317) 
B1396a

>  <gnina_score>  (1317) 
5.298

>  <smina_score_min>  (1317) 
-4.033

>  <ref_pdb>  (1317) 
B1396a

>  <inspiration_score>  (1317) 
None

>  <inchikey>  (1317) 
MCUSJPVYYKFNJD-UHFFFAOYSA-N

>  <tags>  (1317) 
BulkDock Fragalysis export,openbind_d68ev3c_c2_elabs_scored,openbind_d68ev3c_c2_elabs_scored_4.5plus,openbind_d68ev3c_c2_elabs,openbind_d68ev3c_c2_elabs_scored_5plus,syndirella_product,openbind_d68ev3c_c2_elabs_scored_top80percent,syndirella_placed

>  <smiles>  (1317) 
Cc1ccc(S(=O)(=O)C2(C(=O)Nc3cc(C)c(F)cc3C)CCCC2)cc1C

>  <subsites>  (1317) 
None

>  <rmsd(smina/fragmenstein)>  (1317) 
1.779

>  <alias>  (1317) 
None

>  <energy_score>  (1317) 
-34.440169

>  <HIPPO Pose ID>  (1317) 
95867

>  <distance_score>  (1317) 
0.506474

>  <HIPPO Compound ID>  (1317) 
129821

>  <gnina_score_min>  (1317) 
5.177

>  <name>  (1317) 
P95867

>  <exports>  (1317) 
['/opt/xchem-fragalysis-2/maxwin/BulkDock/OUTPUTS/openbind_d68ev3c_c2_elabs_1LOTQJ3.sdf', '/opt/xchem-fragalysis-2/maxwin/BulkDock/OUTPUTS/openbind_d68ev3c_c2_elabs_1LSYI5W.sdf']

$$$$
P95868
     RDKit          3D

 28 30  0  0  0  0  0  0  0  0999 V2000
   14.4495    0.9804   14.7738 C   0  0  0  0  0  0  0  0  0  0  0  0
   13.9229    0.5937   16.0465 O   0  0  0  0  0  0  0  0  0  0  0  0
   13.4069   -0.6732   16.0040 C   0  0  0  0  0  0  0  0  0  0  0  0
   12.2069   -0.8491   15.2969 C   0  0  0  0  0  0  0  0  0  0  0  0
   11.5645   -2.0784   15.2918 C   0  0  0  0  0  0  0  0  0  0  0  0
   12.0990   -3.1256   16.0317 C   0  0  0  0  0  0  0  0  0  0  0  0
   13.2842   -2.9649   16.7735 C   0  0  0  0  0  0  0  0  0  0  0  0
   13.7803   -4.1456   17.5709 C   0  0  0  0  0  0  0  0  0  0  0  0
   13.9681   -1.7258   16.7489 C   0  0  0  0  0  0  0  0  0  0  0  0
   15.1680   -1.6460   17.4838 N   0  0  0  0  0  0  0  0  0  0  0  0
   16.2692   -0.5316   17.5151 C   0  0  0  0  0  0  0  0  0  0  0  0
   16.3782    0.4466   16.8772 O   0  0  0  0  0  0  0  0  0  0  0  0
   17.2974   -0.8688   18.6176 C   0  0  0  0  0  0  0  0  0  0  0  0
   18.1811   -2.3461   18.1424 S   0  0  0  0  0  0  0  0  0  0  0  0
   17.2278   -3.4451   18.1741 O   0  0  0  0  0  0  0  0  0  0  0  0
   19.3980   -2.4469   18.9281 O   0  0  0  0  0  0  0  0  0  0  0  0
   18.6794   -2.1175   16.4508 C   0  0  0  0  0  0  0  0  0  0  0  0
   17.9731   -2.7438   15.4242 C   0  0  0  0  0  0  0  0  0  0  0  0
   18.3866   -2.5649   14.1038 C   0  0  0  0  0  0  0  0  0  0  0  0
   19.5092   -1.7780   13.7994 C   0  0  0  0  0  0  0  0  0  0  0  0
   19.9193   -1.6121   12.3600 C   0  0  0  0  0  0  0  0  0  0  0  0
   20.2332   -1.1677   14.8439 C   0  0  0  0  0  0  0  0  0  0  0  0
   21.4536   -0.3321   14.5663 C   0  0  0  0  0  0  0  0  0  0  0  0
   19.8142   -1.3520   16.1705 C   0  0  0  0  0  0  0  0  0  0  0  0
   18.2552    0.3158   18.8630 C   0  0  0  0  0  0  0  0  0  0  0  0
   17.4908    1.2666   19.7838 C   0  0  0  0  0  0  0  0  0  0  0  0
   16.4227    0.4231   20.4727 C   0  0  0  0  0  0  0  0  0  0  0  0
   16.6565   -1.0103   20.0071 C   0  0  0  0  0  0  0  0  0  0  0  0
  1  2  1  0
  2  3  1  0
  3  4  2  0
  4  5  1  0
  5  6  2  0
  6  7  1  0
  7  8  1  0
  7  9  2  0
  9 10  1  0
 10 11  1  0
 11 12  2  0
 11 13  1  0
 13 14  1  0
 14 15  2  0
 14 16  2  0
 14 17  1  0
 17 18  2  0
 18 19  1  0
 19 20  2  0
 20 21  1  0
 20 22  1  0
 22 23  1  0
 22 24  2  0
 13 25  1  0
 25 26  1  0
 26 27  1  0
 27 28  1  0
  9  3  1  0
 28 13  1  0
 24 17  1  0
M  END
>  <ref_mols>  (1318) 
B1396a

>  <gnina_score>  (1318) 
5.13

>  <smina_score_min>  (1318) 
-4.025

>  <ref_pdb>  (1318) 
B1396a

>  <inspiration_score>  (1318) 
None

>  <inchikey>  (1318) 
QHMQJOJVWGUONR-UHFFFAOYSA-N

>  <tags>  (1318) 
BulkDock Fragalysis export,openbind_d68ev3c_c2_elabs_scored,openbind_d68ev3c_c2_elabs_scored_4.5plus,openbind_d68ev3c_c2_elabs,openbind_d68ev3c_c2_elabs_scored_5plus,syndirella_product,openbind_d68ev3c_c2_elabs_scored_top80percent,syndirella_placed

>  <smiles>  (1318) 
COc1cccc(C)c1NC(=O)C1(S(=O)(=O)c2ccc(C)c(C)c2)CCCC1

>  <subsites>  (1318) 
None

>  <rmsd(smina/fragmenstein)>  (1318) 
2.873

>  <alias>  (1318) 
None

>  <energy_score>  (1318) 
-41.20101

>  <HIPPO Pose ID>  (1318) 
95868

>  <distance_score>  (1318) 
0.387649

>  <HIPPO Compound ID>  (1318) 
129822

>  <gnina_score_min>  (1318) 
5.135

>  <name>  (1318) 
P95868

>  <exports>  (1318) 
['/opt/xchem-fragalysis-2/maxwin/BulkDock/OUTPUTS/openbind_d68ev3c_c2_elabs_1LOTQJ3.sdf', '/opt/xchem-fragalysis-2/maxwin/BulkDock/OUTPUTS/openbind_d68ev3c_c2_elabs_1LSYI5W.sdf']

$$$$
P95870
     RDKit          3D

 28 30  0  0  0  0  0  0  0  0999 V2000
   20.1170   -1.7437   12.3769 C   0  0  0  0  0  0  0  0  0  0  0  0
   19.6589   -1.9030   13.8021 C   0  0  0  0  0  0  0  0  0  0  0  0
   19.7588   -0.8123   14.6781 C   0  0  0  0  0  0  0  0  0  0  0  0
   19.3838   -0.9274   16.0178 C   0  0  0  0  0  0  0  0  0  0  0  0
   18.8680   -2.1310   16.4868 C   0  0  0  0  0  0  0  0  0  0  0  0
   18.4227   -2.3370   18.1970 S   0  0  0  0  0  0  0  0  0  0  0  0
   19.6715   -2.4261   18.9290 O   0  0  0  0  0  0  0  0  0  0  0  0
   17.4849   -3.4517   18.2448 O   0  0  0  0  0  0  0  0  0  0  0  0
   17.5078   -0.9174   18.7750 C   0  0  0  0  0  0  0  0  0  0  0  0
   16.4580   -0.5286   17.7122 C   0  0  0  0  0  0  0  0  0  0  0  0
   16.4835    0.5251   17.1999 O   0  0  0  0  0  0  0  0  0  0  0  0
   15.4332   -1.6993   17.5678 N   0  0  0  0  0  0  0  0  0  0  0  0
   14.2318   -1.7683   16.8651 C   0  0  0  0  0  0  0  0  0  0  0  0
   13.7501   -0.6510   16.1671 C   0  0  0  0  0  0  0  0  0  0  0  0
   12.5306   -0.7049   15.4884 C   0  0  0  0  0  0  0  0  0  0  0  0
   11.8009   -1.8806   15.5037 C   0  0  0  0  0  0  0  0  0  0  0  0
   10.6115   -1.9300   14.8935 F   0  0  0  0  0  0  0  0  0  0  0  0
   12.2822   -2.9924   16.1806 C   0  0  0  0  0  0  0  0  0  0  0  0
   11.5545   -4.1116   16.1812 F   0  0  0  0  0  0  0  0  0  0  0  0
   13.4925   -2.9617   16.8788 C   0  0  0  0  0  0  0  0  0  0  0  0
   13.9356   -4.1853   17.6306 C   0  0  0  0  0  0  0  0  0  0  0  0
   18.4140    0.2793   19.1438 C   0  0  0  0  0  0  0  0  0  0  0  0
   17.6856    1.0503   20.2492 C   0  0  0  0  0  0  0  0  0  0  0  0
   16.5481    0.1577   20.7216 C   0  0  0  0  0  0  0  0  0  0  0  0
   16.8568   -1.2140   20.1428 C   0  0  0  0  0  0  0  0  0  0  0  0
   18.7640   -3.2329   15.6270 C   0  0  0  0  0  0  0  0  0  0  0  0
   19.1835   -3.1362   14.2890 C   0  0  0  0  0  0  0  0  0  0  0  0
   19.1938   -4.3654   13.4204 C   0  0  0  0  0  0  0  0  0  0  0  0
  1  2  1  0
  2  3  2  0
  3  4  1  0
  4  5  2  0
  5  6  1  0
  6  7  2  0
  6  8  2  0
  6  9  1  0
  9 10  1  0
 10 11  2  0
 10 12  1  0
 12 13  1  0
 13 14  2  0
 14 15  1  0
 15 16  2  0
 16 17  1  0
 16 18  1  0
 18 19  1  0
 18 20  2  0
 20 21  1  0
  9 22  1  0
 22 23  1  0
 23 24  1  0
 24 25  1  0
  5 26  1  0
 26 27  2  0
 27 28  1  0
 27  2  1  0
 25  9  1  0
 20 13  1  0
M  END
>  <ref_mols>  (1319) 
B1396a

>  <gnina_score>  (1319) 
5.491

>  <smina_score_min>  (1319) 
-3.785

>  <ref_pdb>  (1319) 
B1396a

>  <inspiration_score>  (1319) 
None

>  <inchikey>  (1319) 
VLMJBZWIGOAJJW-UHFFFAOYSA-N

>  <tags>  (1319) 
BulkDock Fragalysis export,openbind_d68ev3c_c2_elabs_scored,openbind_d68ev3c_c2_elabs_scored_4.5plus,openbind_d68ev3c_c2_elabs,openbind_d68ev3c_c2_elabs_scored_5plus,syndirella_product,openbind_d68ev3c_c2_elabs_scored_top80percent,syndirella_placed

>  <smiles>  (1319) 
Cc1ccc(S(=O)(=O)C2(C(=O)Nc3ccc(F)c(F)c3C)CCCC2)cc1C

>  <subsites>  (1319) 
None

>  <rmsd(smina/fragmenstein)>  (1319) 
2.952

>  <alias>  (1319) 
None

>  <energy_score>  (1319) 
-45.51366

>  <HIPPO Pose ID>  (1319) 
95870

>  <distance_score>  (1319) 
0.530976

>  <HIPPO Compound ID>  (1319) 
129825

>  <gnina_score_min>  (1319) 
5.467

>  <name>  (1319) 
P95870

>  <exports>  (1319) 
['/opt/xchem-fragalysis-2/maxwin/BulkDock/OUTPUTS/openbind_d68ev3c_c2_elabs_1LOTQJ3.sdf', '/opt/xchem-fragalysis-2/maxwin/BulkDock/OUTPUTS/openbind_d68ev3c_c2_elabs_1LSYI5W.sdf']

$$$$
P95872
     RDKit          3D

 28 30  0  0  0  0  0  0  0  0999 V2000
   19.8877   -1.1527   12.3592 C   0  0  0  0  0  0  0  0  0  0  0  0
   19.5028   -1.5247   13.7665 C   0  0  0  0  0  0  0  0  0  0  0  0
   20.4047   -1.2649   14.8099 C   0  0  0  0  0  0  0  0  0  0  0  0
   20.0821   -1.5749   16.1303 C   0  0  0  0  0  0  0  0  0  0  0  0
   18.8464   -2.1494   16.4174 C   0  0  0  0  0  0  0  0  0  0  0  0
   18.4541   -2.5801   18.1010 S   0  0  0  0  0  0  0  0  0  0  0  0
   17.4598   -3.6413   18.0454 O   0  0  0  0  0  0  0  0  0  0  0  0
   19.7143   -2.8184   18.7789 O   0  0  0  0  0  0  0  0  0  0  0  0
   17.6602   -1.1567   18.8372 C   0  0  0  0  0  0  0  0  0  0  0  0
   16.6231   -0.6077   17.8479 C   0  0  0  0  0  0  0  0  0  0  0  0
   16.7342    0.4665   17.3916 O   0  0  0  0  0  0  0  0  0  0  0  0
   15.4993   -1.6803   17.6535 N   0  0  0  0  0  0  0  0  0  0  0  0
   14.2917   -1.6094   16.9625 C   0  0  0  0  0  0  0  0  0  0  0  0
   13.9017   -0.3959   16.3849 C   0  0  0  0  0  0  0  0  0  0  0  0
   12.6528   -0.2599   15.7860 C   0  0  0  0  0  0  0  0  0  0  0  0
   11.7972   -1.3495   15.7422 C   0  0  0  0  0  0  0  0  0  0  0  0
   10.0220   -1.0527   15.1838 Br  0  0  0  0  0  0  0  0  0  0  0  0
   12.2185   -2.5859   16.2291 C   0  0  0  0  0  0  0  0  0  0  0  0
   11.4057   -3.6450   16.1354 F   0  0  0  0  0  0  0  0  0  0  0  0
   13.4551   -2.7342   16.8723 C   0  0  0  0  0  0  0  0  0  0  0  0
   13.8071   -4.0559   17.4975 C   0  0  0  0  0  0  0  0  0  0  0  0
   18.6796   -0.0736   19.2475 C   0  0  0  0  0  0  0  0  0  0  0  0
   19.1323   -0.4108   20.6680 C   0  0  0  0  0  0  0  0  0  0  0  0
   18.1385   -1.4282   21.2102 C   0  0  0  0  0  0  0  0  0  0  0  0
   17.0097   -1.4912   20.1909 C   0  0  0  0  0  0  0  0  0  0  0  0
   17.9458   -2.4454   15.3874 C   0  0  0  0  0  0  0  0  0  0  0  0
   18.2487   -2.0975   14.0606 C   0  0  0  0  0  0  0  0  0  0  0  0
   17.2285   -2.3219   12.9774 C   0  0  0  0  0  0  0  0  0  0  0  0
  1  2  1  0
  2  3  2  0
  3  4  1  0
  4  5  2  0
  5  6  1  0
  6  7  2  0
  6  8  2  0
  6  9  1  0
  9 10  1  0
 10 11  2  0
 10 12  1  0
 12 13  1  0
 13 14  2  0
 14 15  1  0
 15 16  2  0
 16 17  1  0
 16 18  1  0
 18 19  1  0
 18 20  2  0
 20 21  1  0
  9 22  1  0
 22 23  1  0
 23 24  1  0
 24 25  1  0
  5 26  1  0
 26 27  2  0
 27 28  1  0
 27  2  1  0
 25  9  1  0
 20 13  1  0
M  END
>  <ref_mols>  (1320) 
B1396a

>  <gnina_score>  (1320) 
5.646

>  <smina_score_min>  (1320) 
-4.101

>  <ref_pdb>  (1320) 
B1396a

>  <inspiration_score>  (1320) 
None

>  <inchikey>  (1320) 
LVSUEDWUCFALAU-UHFFFAOYSA-N

>  <tags>  (1320) 
BulkDock Fragalysis export,openbind_d68ev3c_c2_elabs_scored,openbind_d68ev3c_c2_elabs_scored_4.5plus,openbind_d68ev3c_c2_elabs,openbind_d68ev3c_c2_elabs_scored_5plus,syndirella_product,openbind_d68ev3c_c2_elabs_scored_top80percent,syndirella_placed

>  <smiles>  (1320) 
Cc1ccc(S(=O)(=O)C2(C(=O)Nc3ccc(Br)c(F)c3C)CCCC2)cc1C

>  <subsites>  (1320) 
None

>  <rmsd(smina/fragmenstein)>  (1320) 
2.341

>  <alias>  (1320) 
None

>  <energy_score>  (1320) 
-47.373502

>  <HIPPO Pose ID>  (1320) 
95872

>  <distance_score>  (1320) 
0.714125

>  <HIPPO Compound ID>  (1320) 
129827

>  <gnina_score_min>  (1320) 
5.305

>  <name>  (1320) 
P95872

>  <exports>  (1320) 
['/opt/xchem-fragalysis-2/maxwin/BulkDock/OUTPUTS/openbind_d68ev3c_c2_elabs_1LOTQJ3.sdf', '/opt/xchem-fragalysis-2/maxwin/BulkDock/OUTPUTS/openbind_d68ev3c_c2_elabs_1LSYI5W.sdf']

$$$$
P95873
     RDKit          3D

 28 30  0  0  0  0  0  0  0  0999 V2000
   20.0736   -1.5825   12.3333 C   0  0  0  0  0  0  0  0  0  0  0  0
   19.6508   -1.8168   13.7590 C   0  0  0  0  0  0  0  0  0  0  0  0
   19.7481   -0.7651   14.6829 C   0  0  0  0  0  0  0  0  0  0  0  0
   19.4013   -0.9466   16.0231 C   0  0  0  0  0  0  0  0  0  0  0  0
   18.9279   -2.1840   16.4461 C   0  0  0  0  0  0  0  0  0  0  0  0
   18.4863   -2.4817   18.1441 S   0  0  0  0  0  0  0  0  0  0  0  0
   19.7305   -2.6579   18.8667 O   0  0  0  0  0  0  0  0  0  0  0  0
   17.5073   -3.5584   18.1159 O   0  0  0  0  0  0  0  0  0  0  0  0
   17.6220   -1.0630   18.8093 C   0  0  0  0  0  0  0  0  0  0  0  0
   16.5653   -0.6025   17.7855 C   0  0  0  0  0  0  0  0  0  0  0  0
   16.6099    0.4740   17.3231 O   0  0  0  0  0  0  0  0  0  0  0  0
   15.5011   -1.7376   17.6106 N   0  0  0  0  0  0  0  0  0  0  0  0
   14.2773   -1.7380   16.9327 C   0  0  0  0  0  0  0  0  0  0  0  0
   13.8301   -0.5593   16.3268 C   0  0  0  0  0  0  0  0  0  0  0  0
   12.5773   -0.5038   15.7200 C   0  0  0  0  0  0  0  0  0  0  0  0
   11.7711   -1.6334   15.7013 C   0  0  0  0  0  0  0  0  0  0  0  0
   10.1691   -1.4826   15.1188 Cl  0  0  0  0  0  0  0  0  0  0  0  0
   12.2210   -2.8364   16.2392 C   0  0  0  0  0  0  0  0  0  0  0  0
   13.4674   -2.8868   16.8791 C   0  0  0  0  0  0  0  0  0  0  0  0
   13.8765   -4.1167   17.4885 C   0  0  0  0  0  0  0  0  0  0  0  0
   14.2422   -5.1023   17.9753 N   0  0  0  0  0  0  0  0  0  0  0  0
   18.6072    0.0837   19.1901 C   0  0  0  0  0  0  0  0  0  0  0  0
   18.2618    0.4865   20.6184 C   0  0  0  0  0  0  0  0  0  0  0  0
   17.8045   -0.8113   21.2452 C   0  0  0  0  0  0  0  0  0  0  0  0
   16.9336   -1.4196   20.1573 C   0  0  0  0  0  0  0  0  0  0  0  0
   18.8264   -3.2472   15.5378 C   0  0  0  0  0  0  0  0  0  0  0  0
   19.2093   -3.0805   14.1967 C   0  0  0  0  0  0  0  0  0  0  0  0
   19.2015   -4.2640   13.2668 C   0  0  0  0  0  0  0  0  0  0  0  0
  1  2  1  0
  2  3  2  0
  3  4  1  0
  4  5  2  0
  5  6  1  0
  6  7  2  0
  6  8  2  0
  6  9  1  0
  9 10  1  0
 10 11  2  0
 10 12  1  0
 12 13  1  0
 13 14  2  0
 14 15  1  0
 15 16  2  0
 16 17  1  0
 16 18  1  0
 18 19  2  0
 19 20  1  0
 20 21  3  0
  9 22  1  0
 22 23  1  0
 23 24  1  0
 24 25  1  0
  5 26  1  0
 26 27  2  0
 27 28  1  0
 27  2  1  0
 25  9  1  0
 19 13  1  0
M  END
>  <ref_mols>  (1321) 
B1396a

>  <gnina_score>  (1321) 
5.809

>  <smina_score_min>  (1321) 
-3.27

>  <ref_pdb>  (1321) 
B1396a

>  <inspiration_score>  (1321) 
None

>  <inchikey>  (1321) 
QDCHFOZVJYPISC-UHFFFAOYSA-N

>  <tags>  (1321) 
BulkDock Fragalysis export,openbind_d68ev3c_c2_elabs_scored,openbind_d68ev3c_c2_elabs_scored_4.5plus,openbind_d68ev3c_c2_elabs,openbind_d68ev3c_c2_elabs_scored_5plus,syndirella_product,openbind_d68ev3c_c2_elabs_scored_top80percent,syndirella_placed

>  <smiles>  (1321) 
Cc1ccc(S(=O)(=O)C2(C(=O)Nc3ccc(Cl)cc3C#N)CCCC2)cc1C

>  <subsites>  (1321) 
None

>  <rmsd(smina/fragmenstein)>  (1321) 
2.137

>  <alias>  (1321) 
None

>  <energy_score>  (1321) 
-32.129936

>  <HIPPO Pose ID>  (1321) 
95873

>  <distance_score>  (1321) 
0.597144

>  <HIPPO Compound ID>  (1321) 
129829

>  <gnina_score_min>  (1321) 
5.32

>  <name>  (1321) 
P95873

>  <exports>  (1321) 
['/opt/xchem-fragalysis-2/maxwin/BulkDock/OUTPUTS/openbind_d68ev3c_c2_elabs_1LOTQJ3.sdf', '/opt/xchem-fragalysis-2/maxwin/BulkDock/OUTPUTS/openbind_d68ev3c_c2_elabs_1LSYI5W.sdf']

$$$$
P95875
     RDKit          3D

 28 30  0  0  0  0  0  0  0  0999 V2000
   19.9730   -1.4447   12.5615 C   0  0  0  0  0  0  0  0  0  0  0  0
   19.5378   -1.7166   13.9764 C   0  0  0  0  0  0  0  0  0  0  0  0
   19.5891   -0.6793   14.9203 C   0  0  0  0  0  0  0  0  0  0  0  0
   19.2250   -0.8926   16.2526 C   0  0  0  0  0  0  0  0  0  0  0  0
   18.7805   -2.1497   16.6475 C   0  0  0  0  0  0  0  0  0  0  0  0
   18.3677   -2.5177   18.3383 S   0  0  0  0  0  0  0  0  0  0  0  0
   17.2826   -3.4904   18.2975 O   0  0  0  0  0  0  0  0  0  0  0  0
   19.6176   -2.8939   18.9723 O   0  0  0  0  0  0  0  0  0  0  0  0
   17.7178   -1.0741   19.1779 C   0  0  0  0  0  0  0  0  0  0  0  0
   16.6972   -0.3374   18.2906 C   0  0  0  0  0  0  0  0  0  0  0  0
   16.8528    0.7959   18.0328 O   0  0  0  0  0  0  0  0  0  0  0  0
   15.5084   -1.2974   17.9584 N   0  0  0  0  0  0  0  0  0  0  0  0
   14.3589   -1.0868   17.1883 C   0  0  0  0  0  0  0  0  0  0  0  0
   14.0452    0.2224   16.8031 C   0  0  0  0  0  0  0  0  0  0  0  0
   12.9621    0.4903   15.9772 C   0  0  0  0  0  0  0  0  0  0  0  0
   12.2167   -0.5594   15.4814 C   0  0  0  0  0  0  0  0  0  0  0  0
   12.5349   -1.8749   15.8392 C   0  0  0  0  0  0  0  0  0  0  0  0
   11.4970   -3.2548   14.7400 I   0  0  0  0  0  0  0  0  0  0  0  0
   13.5578   -2.1702   16.7620 C   0  0  0  0  0  0  0  0  0  0  0  0
   13.8436   -3.5645   17.2682 C   0  0  0  0  0  0  0  0  0  0  0  0
   15.1005   -3.9729   16.7489 O   0  0  0  0  0  0  0  0  0  0  0  0
   18.8729   -0.1257   19.6369 C   0  0  0  0  0  0  0  0  0  0  0  0
   18.6666    0.1116   21.1284 C   0  0  0  0  0  0  0  0  0  0  0  0
   18.0336   -1.1751   21.6087 C   0  0  0  0  0  0  0  0  0  0  0  0
   17.0287   -1.4842   20.5105 C   0  0  0  0  0  0  0  0  0  0  0  0
   18.7172   -3.1965   15.7157 C   0  0  0  0  0  0  0  0  0  0  0  0
   19.1183   -2.9972   14.3837 C   0  0  0  0  0  0  0  0  0  0  0  0
   19.1519   -4.1630   13.4332 C   0  0  0  0  0  0  0  0  0  0  0  0
  1  2  1  0
  2  3  2  0
  3  4  1  0
  4  5  2  0
  5  6  1  0
  6  7  2  0
  6  8  2  0
  6  9  1  0
  9 10  1  0
 10 11  2  0
 10 12  1  0
 12 13  1  0
 13 14  2  0
 14 15  1  0
 15 16  2  0
 16 17  1  0
 17 18  1  0
 17 19  2  0
 19 20  1  0
 20 21  1  0
  9 22  1  0
 22 23  1  0
 23 24  1  0
 24 25  1  0
  5 26  1  0
 26 27  2  0
 27 28  1  0
 27  2  1  0
 25  9  1  0
 19 13  1  0
M  END
>  <ref_mols>  (1322) 
B1396a

>  <gnina_score>  (1322) 
5.163

>  <smina_score_min>  (1322) 
-3.142

>  <ref_pdb>  (1322) 
B1396a

>  <inspiration_score>  (1322) 
None

>  <inchikey>  (1322) 
BPMXUWOOVRELDG-UHFFFAOYSA-N

>  <tags>  (1322) 
BulkDock Fragalysis export,openbind_d68ev3c_c2_elabs_scored,openbind_d68ev3c_c2_elabs_scored_4.5plus,openbind_d68ev3c_c2_elabs,openbind_d68ev3c_c2_elabs_scored_5plus,syndirella_product,openbind_d68ev3c_c2_elabs_scored_top80percent,syndirella_placed

>  <smiles>  (1322) 
Cc1ccc(S(=O)(=O)C2(C(=O)Nc3cccc(I)c3CO)CCCC2)cc1C

>  <subsites>  (1322) 
None

>  <rmsd(smina/fragmenstein)>  (1322) 
2.765

>  <alias>  (1322) 
None

>  <energy_score>  (1322) 
-57.674853

>  <HIPPO Pose ID>  (1322) 
95875

>  <distance_score>  (1322) 
1.094834

>  <HIPPO Compound ID>  (1322) 
129831

>  <gnina_score_min>  (1322) 
5.243

>  <name>  (1322) 
P95875

>  <exports>  (1322) 
['/opt/xchem-fragalysis-2/maxwin/BulkDock/OUTPUTS/openbind_d68ev3c_c2_elabs_1LOTQJ3.sdf', '/opt/xchem-fragalysis-2/maxwin/BulkDock/OUTPUTS/openbind_d68ev3c_c2_elabs_1LSYI5W.sdf']

$$$$
P95876
     RDKit          3D

 28 30  0  0  0  0  0  0  0  0999 V2000
   19.9548   -1.5616   12.2761 C   0  0  0  0  0  0  0  0  0  0  0  0
   19.5553   -1.7470   13.7161 C   0  0  0  0  0  0  0  0  0  0  0  0
   18.4277   -2.5273   14.0171 C   0  0  0  0  0  0  0  0  0  0  0  0
   18.0246   -2.7195   15.3380 C   0  0  0  0  0  0  0  0  0  0  0  0
   18.7462   -2.1167   16.3696 C   0  0  0  0  0  0  0  0  0  0  0  0
   18.2585   -2.3915   18.0598 S   0  0  0  0  0  0  0  0  0  0  0  0
   17.3274   -3.5058   18.0424 O   0  0  0  0  0  0  0  0  0  0  0  0
   19.4807   -2.5063   18.8366 O   0  0  0  0  0  0  0  0  0  0  0  0
   17.3674   -0.9193   18.5872 C   0  0  0  0  0  0  0  0  0  0  0  0
   16.3142   -0.5959   17.5018 C   0  0  0  0  0  0  0  0  0  0  0  0
   16.4824    0.2919   16.7558 O   0  0  0  0  0  0  0  0  0  0  0  0
   15.1030   -1.5741   17.6554 N   0  0  0  0  0  0  0  0  0  0  0  0
   13.9322   -1.7107   16.8804 C   0  0  0  0  0  0  0  0  0  0  0  0
   13.3612   -0.7174   16.0655 C   0  0  0  0  0  0  0  0  0  0  0  0
   13.7984    0.9514   16.1080 Cl  0  0  0  0  0  0  0  0  0  0  0  0
   12.2471   -1.0072   15.2568 C   0  0  0  0  0  0  0  0  0  0  0  0
   11.6602   -2.2672   15.2681 C   0  0  0  0  0  0  0  0  0  0  0  0
   12.1600   -3.2376   16.1258 C   0  0  0  0  0  0  0  0  0  0  0  0
   13.2690   -2.9591   16.9376 C   0  0  0  0  0  0  0  0  0  0  0  0
   13.6921   -4.0321   17.8691 C   0  0  0  0  0  0  0  0  0  0  0  0
   14.4217   -3.7931   18.8247 O   0  0  0  0  0  0  0  0  0  0  0  0
   16.7421   -1.1104   19.9935 C   0  0  0  0  0  0  0  0  0  0  0  0
   17.5686   -0.2586   20.9469 C   0  0  0  0  0  0  0  0  0  0  0  0
   17.9575    0.9279   20.0917 C   0  0  0  0  0  0  0  0  0  0  0  0
   18.3544    0.2745   18.7754 C   0  0  0  0  0  0  0  0  0  0  0  0
   19.8870   -1.3612   16.0921 C   0  0  0  0  0  0  0  0  0  0  0  0
   20.2942   -1.1596   14.7641 C   0  0  0  0  0  0  0  0  0  0  0  0
   21.5214   -0.3333   14.4885 C   0  0  0  0  0  0  0  0  0  0  0  0
  1  2  1  0
  2  3  2  0
  3  4  1  0
  4  5  2  0
  5  6  1  0
  6  7  2  0
  6  8  2  0
  6  9  1  0
  9 10  1  0
 10 11  2  0
 10 12  1  0
 12 13  1  0
 13 14  2  0
 14 15  1  0
 14 16  1  0
 16 17  2  0
 17 18  1  0
 18 19  2  0
 19 20  1  0
 20 21  2  0
  9 22  1  0
 22 23  1  0
 23 24  1  0
 24 25  1  0
  5 26  1  0
 26 27  2  0
 27 28  1  0
 27  2  1  0
 25  9  1  0
 19 13  1  0
M  END
>  <ref_mols>  (1323) 
B1396a

>  <gnina_score>  (1323) 
5.287

>  <smina_score_min>  (1323) 
-3.734

>  <ref_pdb>  (1323) 
B1396a

>  <inspiration_score>  (1323) 
None

>  <inchikey>  (1323) 
YNWYATMRMXZCNT-UHFFFAOYSA-N

>  <tags>  (1323) 
BulkDock Fragalysis export,openbind_d68ev3c_c2_elabs_scored,openbind_d68ev3c_c2_elabs_scored_4.5plus,openbind_d68ev3c_c2_elabs,openbind_d68ev3c_c2_elabs_scored_5plus,syndirella_product,openbind_d68ev3c_c2_elabs_scored_top80percent,syndirella_placed

>  <smiles>  (1323) 
Cc1ccc(S(=O)(=O)C2(C(=O)Nc3c(Cl)cccc3C=O)CCCC2)cc1C

>  <subsites>  (1323) 
None

>  <rmsd(smina/fragmenstein)>  (1323) 
1.774

>  <alias>  (1323) 
None

>  <energy_score>  (1323) 
-60.697204

>  <HIPPO Pose ID>  (1323) 
95876

>  <distance_score>  (1323) 
0.376364

>  <HIPPO Compound ID>  (1323) 
129832

>  <gnina_score_min>  (1323) 
5.038

>  <name>  (1323) 
P95876

>  <exports>  (1323) 
['/opt/xchem-fragalysis-2/maxwin/BulkDock/OUTPUTS/openbind_d68ev3c_c2_elabs_1LOTQJ3.sdf', '/opt/xchem-fragalysis-2/maxwin/BulkDock/OUTPUTS/openbind_d68ev3c_c2_elabs_1LSYI5W.sdf']

$$$$
P95877
     RDKit          3D

 28 30  0  0  0  0  0  0  0  0999 V2000
   10.7583   -2.2106   14.6575 C   0  0  0  0  0  0  0  0  0  0  0  0
   11.8994   -2.0058   15.5910 C   0  0  0  0  0  0  0  0  0  0  0  0
   12.4450   -3.0781   16.2861 C   0  0  0  0  0  0  0  0  0  0  0  0
   13.5956   -2.9171   17.0713 C   0  0  0  0  0  0  0  0  0  0  0  0
   14.1338   -4.1477   17.7585 C   0  0  0  0  0  0  0  0  0  0  0  0
   14.2300   -1.6492   17.1474 C   0  0  0  0  0  0  0  0  0  0  0  0
   15.4535   -1.6151   17.8398 N   0  0  0  0  0  0  0  0  0  0  0  0
   16.6229   -0.5756   17.7862 C   0  0  0  0  0  0  0  0  0  0  0  0
   16.7727    0.3634   17.1011 O   0  0  0  0  0  0  0  0  0  0  0  0
   17.6739   -0.9573   18.8417 C   0  0  0  0  0  0  0  0  0  0  0  0
   18.5018   -2.4365   18.2532 S   0  0  0  0  0  0  0  0  0  0  0  0
   17.5166   -3.5073   18.3197 O   0  0  0  0  0  0  0  0  0  0  0  0
   19.7545   -2.5848   18.9697 O   0  0  0  0  0  0  0  0  0  0  0  0
   18.9335   -2.2579   16.5327 C   0  0  0  0  0  0  0  0  0  0  0  0
   19.3983   -1.0516   16.0169 C   0  0  0  0  0  0  0  0  0  0  0  0
   19.7467   -0.9642   14.6675 C   0  0  0  0  0  0  0  0  0  0  0  0
   19.6686   -2.0831   13.8258 C   0  0  0  0  0  0  0  0  0  0  0  0
   20.0900   -1.9518   12.3869 C   0  0  0  0  0  0  0  0  0  0  0  0
   19.2296   -3.3127   14.3543 C   0  0  0  0  0  0  0  0  0  0  0  0
   19.2549   -4.5679   13.5235 C   0  0  0  0  0  0  0  0  0  0  0  0
   18.8434   -3.3842   15.7041 C   0  0  0  0  0  0  0  0  0  0  0  0
   18.6853    0.2005   19.1065 C   0  0  0  0  0  0  0  0  0  0  0  0
   18.4471    0.6672   20.5383 C   0  0  0  0  0  0  0  0  0  0  0  0
   17.9785   -0.5834   21.2458 C   0  0  0  0  0  0  0  0  0  0  0  0
   17.0274   -1.1987   20.2327 C   0  0  0  0  0  0  0  0  0  0  0  0
   13.6079   -0.5533   16.5205 C   0  0  0  0  0  0  0  0  0  0  0  0
   14.0206    1.2779   16.8291 Br  0  0  0  0  0  0  0  0  0  0  0  0
   12.4725   -0.7454   15.7237 C   0  0  0  0  0  0  0  0  0  0  0  0
  1  2  1  0
  2  3  2  0
  3  4  1  0
  4  5  1  0
  4  6  2  0
  6  7  1  0
  7  8  1  0
  8  9  2  0
  8 10  1  0
 10 11  1  0
 11 12  2  0
 11 13  2  0
 11 14  1  0
 14 15  2  0
 15 16  1  0
 16 17  2  0
 17 18  1  0
 17 19  1  0
 19 20  1  0
 19 21  2  0
 10 22  1  0
 22 23  1  0
 23 24  1  0
 24 25  1  0
  6 26  1  0
 26 27  1  0
 26 28  2  0
 28  2  1  0
 25 10  1  0
 21 14  1  0
M  END
>  <ref_mols>  (1324) 
B1396a

>  <gnina_score>  (1324) 
5.525

>  <smina_score_min>  (1324) 
-3.841

>  <ref_pdb>  (1324) 
B1396a

>  <inspiration_score>  (1324) 
None

>  <inchikey>  (1324) 
LTWLDPOGEDMNTA-UHFFFAOYSA-N

>  <tags>  (1324) 
BulkDock Fragalysis export,openbind_d68ev3c_c2_elabs_scored,openbind_d68ev3c_c2_elabs_scored_4.5plus,openbind_d68ev3c_c2_elabs,openbind_d68ev3c_c2_elabs_scored_5plus,syndirella_product,openbind_d68ev3c_c2_elabs_scored_top80percent,syndirella_placed

>  <smiles>  (1324) 
Cc1cc(C)c(NC(=O)C2(S(=O)(=O)c3ccc(C)c(C)c3)CCCC2)c(Br)c1

>  <subsites>  (1324) 
None

>  <rmsd(smina/fragmenstein)>  (1324) 
2.194

>  <alias>  (1324) 
None

>  <energy_score>  (1324) 
-30.648888

>  <HIPPO Pose ID>  (1324) 
95877

>  <distance_score>  (1324) 
0.582771

>  <HIPPO Compound ID>  (1324) 
129834

>  <gnina_score_min>  (1324) 
5.236

>  <name>  (1324) 
P95877

>  <exports>  (1324) 
['/opt/xchem-fragalysis-2/maxwin/BulkDock/OUTPUTS/openbind_d68ev3c_c2_elabs_1LOTQJ3.sdf', '/opt/xchem-fragalysis-2/maxwin/BulkDock/OUTPUTS/openbind_d68ev3c_c2_elabs_1LSYI5W.sdf']

$$$$
P95878
     RDKit          3D

 28 30  0  0  0  0  0  0  0  0999 V2000
   19.9104   -1.6887   12.2305 C   0  0  0  0  0  0  0  0  0  0  0  0
   19.5032   -1.8107   13.6752 C   0  0  0  0  0  0  0  0  0  0  0  0
   18.3379   -2.5243   13.9983 C   0  0  0  0  0  0  0  0  0  0  0  0
   17.9258   -2.6620   15.3238 C   0  0  0  0  0  0  0  0  0  0  0  0
   18.6735   -2.0622   16.3369 C   0  0  0  0  0  0  0  0  0  0  0  0
   18.1785   -2.2495   18.0355 S   0  0  0  0  0  0  0  0  0  0  0  0
   17.2711   -3.3859   18.0937 O   0  0  0  0  0  0  0  0  0  0  0  0
   19.3975   -2.2791   18.8229 O   0  0  0  0  0  0  0  0  0  0  0  0
   17.2264   -0.7888   18.4616 C   0  0  0  0  0  0  0  0  0  0  0  0
   16.1957   -0.5086   17.3487 C   0  0  0  0  0  0  0  0  0  0  0  0
   16.2404    0.4756   16.7141 O   0  0  0  0  0  0  0  0  0  0  0  0
   15.1549   -1.6751   17.3357 N   0  0  0  0  0  0  0  0  0  0  0  0
   13.9559   -1.8120   16.6334 C   0  0  0  0  0  0  0  0  0  0  0  0
   13.4525   -0.7692   15.8418 C   0  0  0  0  0  0  0  0  0  0  0  0
   12.2166   -0.8827   15.1732 C   0  0  0  0  0  0  0  0  0  0  0  0
   11.6975    0.2615   14.3538 C   0  0  0  0  0  0  0  0  0  0  0  0
   11.5061   -2.0720   15.3027 C   0  0  0  0  0  0  0  0  0  0  0  0
   10.2722   -2.2744   14.7589 O   0  0  0  0  0  0  0  0  0  0  0  0
   12.0154   -3.1224   16.0637 C   0  0  0  0  0  0  0  0  0  0  0  0
   13.2361   -3.0094   16.7427 C   0  0  0  0  0  0  0  0  0  0  0  0
   13.7137   -4.1678   17.5756 C   0  0  0  0  0  0  0  0  0  0  0  0
   16.5329   -0.9383   19.8286 C   0  0  0  0  0  0  0  0  0  0  0  0
   17.5903   -0.5880   20.8665 C   0  0  0  0  0  0  0  0  0  0  0  0
   18.5407    0.3854   20.1839 C   0  0  0  0  0  0  0  0  0  0  0  0
   18.1262    0.4384   18.7144 C   0  0  0  0  0  0  0  0  0  0  0  0
   19.8533   -1.3759   16.0376 C   0  0  0  0  0  0  0  0  0  0  0  0
   20.2725   -1.2344   14.7061 C   0  0  0  0  0  0  0  0  0  0  0  0
   21.5424   -0.4836   14.4090 C   0  0  0  0  0  0  0  0  0  0  0  0
  1  2  1  0
  2  3  2  0
  3  4  1  0
  4  5  2  0
  5  6  1  0
  6  7  2  0
  6  8  2  0
  6  9  1  0
  9 10  1  0
 10 11  2  0
 10 12  1  0
 12 13  1  0
 13 14  2  0
 14 15  1  0
 15 16  1  0
 15 17  2  0
 17 18  1  0
 17 19  1  0
 19 20  2  0
 20 21  1  0
  9 22  1  0
 22 23  1  0
 23 24  1  0
 24 25  1  0
  5 26  1  0
 26 27  2  0
 27 28  1  0
 27  2  1  0
 25  9  1  0
 20 13  1  0
M  END
>  <ref_mols>  (1325) 
B1396a

>  <gnina_score>  (1325) 
5.158

>  <smina_score_min>  (1325) 
-4.247

>  <ref_pdb>  (1325) 
B1396a

>  <inspiration_score>  (1325) 
None

>  <inchikey>  (1325) 
MVWOPZVONCJXAL-UHFFFAOYSA-N

>  <tags>  (1325) 
BulkDock Fragalysis export,openbind_d68ev3c_c2_elabs_scored,openbind_d68ev3c_c2_elabs_scored_4.5plus,openbind_d68ev3c_c2_elabs,openbind_d68ev3c_c2_elabs_scored_5plus,syndirella_product,openbind_d68ev3c_c2_elabs_scored_top80percent,syndirella_placed

>  <smiles>  (1325) 
Cc1ccc(S(=O)(=O)C2(C(=O)Nc3cc(C)c(O)cc3C)CCCC2)cc1C

>  <subsites>  (1325) 
None

>  <rmsd(smina/fragmenstein)>  (1325) 
1.451

>  <alias>  (1325) 
None

>  <energy_score>  (1325) 
-41.716012

>  <HIPPO Pose ID>  (1325) 
95878

>  <distance_score>  (1325) 
0.401142

>  <HIPPO Compound ID>  (1325) 
129836

>  <gnina_score_min>  (1325) 
5.03

>  <name>  (1325) 
P95878

>  <exports>  (1325) 
['/opt/xchem-fragalysis-2/maxwin/BulkDock/OUTPUTS/openbind_d68ev3c_c2_elabs_1LOTQJ3.sdf', '/opt/xchem-fragalysis-2/maxwin/BulkDock/OUTPUTS/openbind_d68ev3c_c2_elabs_1LSYI5W.sdf']

$$$$
P95879
     RDKit          3D

 28 30  0  0  0  0  0  0  0  0999 V2000
   13.7866   -4.1315   17.4899 C   0  0  0  0  0  0  0  0  0  0  0  0
   13.4102   -2.8636   16.7693 C   0  0  0  0  0  0  0  0  0  0  0  0
   12.1426   -2.7774   16.1630 C   0  0  0  0  0  0  0  0  0  0  0  0
   11.6949   -1.5709   15.6091 C   0  0  0  0  0  0  0  0  0  0  0  0
   10.3056   -1.3635   15.3308 C   0  0  0  0  0  0  0  0  0  0  0  0
    9.1674   -1.1368   15.3367 N   0  0  0  0  0  0  0  0  0  0  0  0
   12.5575   -0.4813   15.5411 C   0  0  0  0  0  0  0  0  0  0  0  0
   13.8270   -0.5657   16.1097 C   0  0  0  0  0  0  0  0  0  0  0  0
   14.2396   -1.7286   16.7671 C   0  0  0  0  0  0  0  0  0  0  0  0
   15.4337   -1.7240   17.4870 N   0  0  0  0  0  0  0  0  0  0  0  0
   16.5041   -0.5963   17.6724 C   0  0  0  0  0  0  0  0  0  0  0  0
   16.5782    0.4677   17.1848 O   0  0  0  0  0  0  0  0  0  0  0  0
   17.5316   -1.0311   18.7559 C   0  0  0  0  0  0  0  0  0  0  0  0
   18.3874   -2.4919   18.1210 S   0  0  0  0  0  0  0  0  0  0  0  0
   19.6380   -2.6534   18.8376 O   0  0  0  0  0  0  0  0  0  0  0  0
   17.4201   -3.5799   18.1166 O   0  0  0  0  0  0  0  0  0  0  0  0
   18.8103   -2.1760   16.4159 C   0  0  0  0  0  0  0  0  0  0  0  0
   18.0041   -2.6898   15.3904 C   0  0  0  0  0  0  0  0  0  0  0  0
   18.3631   -2.4715   14.0586 C   0  0  0  0  0  0  0  0  0  0  0  0
   19.5248   -1.7646   13.7661 C   0  0  0  0  0  0  0  0  0  0  0  0
   19.8652   -1.5538   12.4888 F   0  0  0  0  0  0  0  0  0  0  0  0
   20.3448   -1.2814   14.7795 C   0  0  0  0  0  0  0  0  0  0  0  0
   19.9968   -1.4990   16.1130 C   0  0  0  0  0  0  0  0  0  0  0  0
   16.8172   -1.4014   20.0931 C   0  0  0  0  0  0  0  0  0  0  0  0
   16.6287   -0.1923   21.0052 C   0  0  0  0  0  0  0  0  0  0  0  0
   17.9672    0.3876   21.4553 C   0  0  0  0  0  0  0  0  0  0  0  0
   19.0866    0.1545   20.4437 C   0  0  0  0  0  0  0  0  0  0  0  0
   18.5507    0.1275   19.0133 C   0  0  0  0  0  0  0  0  0  0  0  0
  1  2  1  0
  2  3  2  0
  3  4  1  0
  4  5  1  0
  5  6  3  0
  4  7  2  0
  7  8  1  0
  8  9  2  0
  9 10  1  0
 10 11  1  0
 11 12  2  0
 11 13  1  0
 13 14  1  0
 14 15  2  0
 14 16  2  0
 14 17  1  0
 17 18  2  0
 18 19  1  0
 19 20  2  0
 20 21  1  0
 20 22  1  0
 22 23  2  0
 13 24  1  0
 24 25  1  0
 25 26  1  0
 26 27  1  0
 27 28  1  0
  9  2  1  0
 28 13  1  0
 23 17  1  0
M  END
>  <ref_mols>  (1326) 
B1396a

>  <gnina_score>  (1326) 
5.371

>  <smina_score_min>  (1326) 
-3.499

>  <ref_pdb>  (1326) 
B1396a

>  <inspiration_score>  (1326) 
None

>  <inchikey>  (1326) 
GKTZPPNNXWCZKH-UHFFFAOYSA-N

>  <tags>  (1326) 
BulkDock Fragalysis export,openbind_d68ev3c_c2_elabs_scored,openbind_d68ev3c_c2_elabs_scored_4.5plus,openbind_d68ev3c_c2_elabs,openbind_d68ev3c_c2_elabs_scored_5plus,syndirella_product,openbind_d68ev3c_c2_elabs_scored_top80percent,syndirella_placed

>  <smiles>  (1326) 
Cc1cc(C#N)ccc1NC(=O)C1(S(=O)(=O)c2ccc(F)cc2)CCCCC1

>  <subsites>  (1326) 
None

>  <rmsd(smina/fragmenstein)>  (1326) 
1.315

>  <alias>  (1326) 
None

>  <energy_score>  (1326) 
-16.688408

>  <HIPPO Pose ID>  (1326) 
95879

>  <distance_score>  (1326) 
0.549819

>  <HIPPO Compound ID>  (1326) 
129837

>  <gnina_score_min>  (1326) 
5.089

>  <name>  (1326) 
P95879

>  <exports>  (1326) 
['/opt/xchem-fragalysis-2/maxwin/BulkDock/OUTPUTS/openbind_d68ev3c_c2_elabs_1LOTQJ3.sdf', '/opt/xchem-fragalysis-2/maxwin/BulkDock/OUTPUTS/openbind_d68ev3c_c2_elabs_1LSYI5W.sdf']

$$$$
P95880
     RDKit          3D

 28 30  0  0  0  0  0  0  0  0999 V2000
   10.7881   -2.1799   14.6471 C   0  0  0  0  0  0  0  0  0  0  0  0
   11.9402   -2.0188   15.5768 C   0  0  0  0  0  0  0  0  0  0  0  0
   12.4245   -3.1054   16.3063 C   0  0  0  0  0  0  0  0  0  0  0  0
   13.5757   -2.9907   17.1025 C   0  0  0  0  0  0  0  0  0  0  0  0
   14.0483   -4.2137   17.8409 C   0  0  0  0  0  0  0  0  0  0  0  0
   14.2606   -1.7589   17.1500 C   0  0  0  0  0  0  0  0  0  0  0  0
   15.4441   -1.6687   17.8952 N   0  0  0  0  0  0  0  0  0  0  0  0
   16.5469   -0.5578   17.9200 C   0  0  0  0  0  0  0  0  0  0  0  0
   16.5899    0.4811   17.3790 O   0  0  0  0  0  0  0  0  0  0  0  0
   17.6672   -0.9828   18.8900 C   0  0  0  0  0  0  0  0  0  0  0  0
   18.4476   -2.4515   18.2491 S   0  0  0  0  0  0  0  0  0  0  0  0
   19.7221   -2.6359   18.9181 O   0  0  0  0  0  0  0  0  0  0  0  0
   17.4574   -3.5169   18.3069 O   0  0  0  0  0  0  0  0  0  0  0  0
   18.8059   -2.1478   16.5341 C   0  0  0  0  0  0  0  0  0  0  0  0
   18.0205   -2.7333   15.5410 C   0  0  0  0  0  0  0  0  0  0  0  0
   18.3400   -2.5149   14.2003 C   0  0  0  0  0  0  0  0  0  0  0  0
   19.4460   -1.7285   13.8402 C   0  0  0  0  0  0  0  0  0  0  0  0
   19.7565   -1.5219   12.3816 C   0  0  0  0  0  0  0  0  0  0  0  0
   20.2461   -1.1541   14.8487 C   0  0  0  0  0  0  0  0  0  0  0  0
   21.4522   -0.3195   14.5115 C   0  0  0  0  0  0  0  0  0  0  0  0
   19.9227   -1.3796   16.1958 C   0  0  0  0  0  0  0  0  0  0  0  0
   17.1522   -1.1937   20.3224 C   0  0  0  0  0  0  0  0  0  0  0  0
   17.0133    0.2132   20.8937 C   0  0  0  0  0  0  0  0  0  0  0  0
   18.0504    1.0640   20.1678 C   0  0  0  0  0  0  0  0  0  0  0  0
   18.6811    0.1587   19.1098 C   0  0  0  0  0  0  0  0  0  0  0  0
   13.7391   -0.6703   16.4391 C   0  0  0  0  0  0  0  0  0  0  0  0
   14.2946    0.5449   16.5018 F   0  0  0  0  0  0  0  0  0  0  0  0
   12.5993   -0.7962   15.6544 C   0  0  0  0  0  0  0  0  0  0  0  0
  1  2  1  0
  2  3  2  0
  3  4  1  0
  4  5  1  0
  4  6  2  0
  6  7  1  0
  7  8  1  0
  8  9  2  0
  8 10  1  0
 10 11  1  0
 11 12  2  0
 11 13  2  0
 11 14  1  0
 14 15  2  0
 15 16  1  0
 16 17  2  0
 17 18  1  0
 17 19  1  0
 19 20  1  0
 19 21  2  0
 10 22  1  0
 22 23  1  0
 23 24  1  0
 24 25  1  0
  6 26  1  0
 26 27  1  0
 26 28  2  0
 28  2  1  0
 25 10  1  0
 21 14  1  0
M  END
>  <ref_mols>  (1327) 
B1396a

>  <gnina_score>  (1327) 
5.427

>  <smina_score_min>  (1327) 
-3.641

>  <ref_pdb>  (1327) 
B1396a

>  <inspiration_score>  (1327) 
None

>  <inchikey>  (1327) 
GJYOTKBBTSWHSE-UHFFFAOYSA-N

>  <tags>  (1327) 
BulkDock Fragalysis export,openbind_d68ev3c_c2_elabs_scored,openbind_d68ev3c_c2_elabs_scored_4.5plus,openbind_d68ev3c_c2_elabs,openbind_d68ev3c_c2_elabs_scored_5plus,syndirella_product,openbind_d68ev3c_c2_elabs_scored_top80percent,syndirella_placed

>  <smiles>  (1327) 
Cc1cc(C)c(NC(=O)C2(S(=O)(=O)c3ccc(C)c(C)c3)CCCC2)c(F)c1

>  <subsites>  (1327) 
None

>  <rmsd(smina/fragmenstein)>  (1327) 
1.988

>  <alias>  (1327) 
None

>  <energy_score>  (1327) 
-39.331365

>  <HIPPO Pose ID>  (1327) 
95880

>  <distance_score>  (1327) 
0.587537

>  <HIPPO Compound ID>  (1327) 
129838

>  <gnina_score_min>  (1327) 
5.197

>  <name>  (1327) 
P95880

>  <exports>  (1327) 
['/opt/xchem-fragalysis-2/maxwin/BulkDock/OUTPUTS/openbind_d68ev3c_c2_elabs_1LOTQJ3.sdf', '/opt/xchem-fragalysis-2/maxwin/BulkDock/OUTPUTS/openbind_d68ev3c_c2_elabs_1LSYI5W.sdf']

$$$$
P95882
     RDKit          3D

 28 30  0  0  0  0  0  0  0  0999 V2000
   19.8541   -1.2251   12.3593 C   0  0  0  0  0  0  0  0  0  0  0  0
   19.4675   -1.5974   13.7659 C   0  0  0  0  0  0  0  0  0  0  0  0
   20.3851   -1.3790   14.8053 C   0  0  0  0  0  0  0  0  0  0  0  0
   20.0602   -1.6894   16.1251 C   0  0  0  0  0  0  0  0  0  0  0  0
   18.8067   -2.2228   16.4152 C   0  0  0  0  0  0  0  0  0  0  0  0
   18.4012   -2.6383   18.0998 S   0  0  0  0  0  0  0  0  0  0  0  0
   17.3828   -3.6759   18.0501 O   0  0  0  0  0  0  0  0  0  0  0  0
   19.6547   -2.9013   18.7819 O   0  0  0  0  0  0  0  0  0  0  0  0
   17.6439   -1.1936   18.8272 C   0  0  0  0  0  0  0  0  0  0  0  0
   16.6486   -0.6186   17.8133 C   0  0  0  0  0  0  0  0  0  0  0  0
   16.8532    0.4120   17.2920 O   0  0  0  0  0  0  0  0  0  0  0  0
   15.4296   -1.5976   17.6848 N   0  0  0  0  0  0  0  0  0  0  0  0
   14.2146   -1.4591   16.9826 C   0  0  0  0  0  0  0  0  0  0  0  0
   13.7168   -0.2521   16.4487 C   0  0  0  0  0  0  0  0  0  0  0  0
   14.3724    1.0962   16.5475 C   0  0  0  0  0  0  0  0  0  0  0  0
   12.4593   -0.2468   15.8177 C   0  0  0  0  0  0  0  0  0  0  0  0
   11.6838   -1.3908   15.7444 C   0  0  0  0  0  0  0  0  0  0  0  0
    9.9010   -1.1968   15.1731 Br  0  0  0  0  0  0  0  0  0  0  0  0
   12.1701   -2.5962   16.2238 C   0  0  0  0  0  0  0  0  0  0  0  0
   13.4214   -2.6401   16.8673 C   0  0  0  0  0  0  0  0  0  0  0  0
   13.8452   -3.9642   17.4631 C   0  0  0  0  0  0  0  0  0  0  0  0
   16.9766   -1.4982   20.1789 C   0  0  0  0  0  0  0  0  0  0  0  0
   18.1006   -1.4612   21.2048 C   0  0  0  0  0  0  0  0  0  0  0  0
   19.1256   -0.4754   20.6633 C   0  0  0  0  0  0  0  0  0  0  0  0
   18.6920   -0.1368   19.2375 C   0  0  0  0  0  0  0  0  0  0  0  0
   17.8891   -2.4774   15.3895 C   0  0  0  0  0  0  0  0  0  0  0  0
   18.1965   -2.1303   14.0635 C   0  0  0  0  0  0  0  0  0  0  0  0
   17.1589   -2.3023   12.9869 C   0  0  0  0  0  0  0  0  0  0  0  0
  1  2  1  0
  2  3  2  0
  3  4  1  0
  4  5  2  0
  5  6  1  0
  6  7  2  0
  6  8  2  0
  6  9  1  0
  9 10  1  0
 10 11  2  0
 10 12  1  0
 12 13  1  0
 13 14  2  0
 14 15  1  0
 14 16  1  0
 16 17  2  0
 17 18  1  0
 17 19  1  0
 19 20  2  0
 20 21  1  0
  9 22  1  0
 22 23  1  0
 23 24  1  0
 24 25  1  0
  5 26  1  0
 26 27  2  0
 27 28  1  0
 27  2  1  0
 25  9  1  0
 20 13  1  0
M  END
>  <ref_mols>  (1328) 
B1396a

>  <gnina_score>  (1328) 
5.649

>  <smina_score_min>  (1328) 
-3.597

>  <ref_pdb>  (1328) 
B1396a

>  <inspiration_score>  (1328) 
None

>  <inchikey>  (1328) 
PDXJOIOEAPMHLF-UHFFFAOYSA-N

>  <tags>  (1328) 
BulkDock Fragalysis export,openbind_d68ev3c_c2_elabs_scored,openbind_d68ev3c_c2_elabs_scored_4.5plus,openbind_d68ev3c_c2_elabs,openbind_d68ev3c_c2_elabs_scored_5plus,syndirella_product,openbind_d68ev3c_c2_elabs_scored_top80percent,syndirella_placed

>  <smiles>  (1328) 
Cc1ccc(S(=O)(=O)C2(C(=O)Nc3c(C)cc(Br)cc3C)CCCC2)cc1C

>  <subsites>  (1328) 
None

>  <rmsd(smina/fragmenstein)>  (1328) 
2.099

>  <alias>  (1328) 
None

>  <energy_score>  (1328) 
-38.648364

>  <HIPPO Pose ID>  (1328) 
95882

>  <distance_score>  (1328) 
0.701602

>  <HIPPO Compound ID>  (1328) 
129840

>  <gnina_score_min>  (1328) 
5.194

>  <name>  (1328) 
P95882

>  <exports>  (1328) 
['/opt/xchem-fragalysis-2/maxwin/BulkDock/OUTPUTS/openbind_d68ev3c_c2_elabs_1LOTQJ3.sdf', '/opt/xchem-fragalysis-2/maxwin/BulkDock/OUTPUTS/openbind_d68ev3c_c2_elabs_1LSYI5W.sdf']

$$$$
P95883
     RDKit          3D

 28 30  0  0  0  0  0  0  0  0999 V2000
   20.1774   -1.9152   12.3385 C   0  0  0  0  0  0  0  0  0  0  0  0
   19.6428   -1.9898   13.7438 C   0  0  0  0  0  0  0  0  0  0  0  0
   19.6767   -0.8431   14.5506 C   0  0  0  0  0  0  0  0  0  0  0  0
   19.2260   -0.8783   15.8711 C   0  0  0  0  0  0  0  0  0  0  0  0
   18.7045   -2.0600   16.3888 C   0  0  0  0  0  0  0  0  0  0  0  0
   18.1763   -2.1636   18.0848 S   0  0  0  0  0  0  0  0  0  0  0  0
   19.3879   -2.1421   18.8836 O   0  0  0  0  0  0  0  0  0  0  0  0
   17.2935   -3.3185   18.1747 O   0  0  0  0  0  0  0  0  0  0  0  0
   17.1783   -0.7242   18.4942 C   0  0  0  0  0  0  0  0  0  0  0  0
   16.1185   -0.4825   17.3921 C   0  0  0  0  0  0  0  0  0  0  0  0
   16.0749    0.5308   16.8052 O   0  0  0  0  0  0  0  0  0  0  0  0
   15.1693   -1.7219   17.3421 N   0  0  0  0  0  0  0  0  0  0  0  0
   13.9678   -1.9170   16.6561 C   0  0  0  0  0  0  0  0  0  0  0  0
   13.4194   -0.9231   15.8318 C   0  0  0  0  0  0  0  0  0  0  0  0
   12.1968   -1.1267   15.1624 C   0  0  0  0  0  0  0  0  0  0  0  0
   11.6222   -0.0783   14.2445 C   0  0  0  0  0  0  0  0  0  0  0  0
   10.2034   -0.0169   14.3754 O   0  0  0  0  0  0  0  0  0  0  0  0
   11.5532   -2.3568   15.3073 C   0  0  0  0  0  0  0  0  0  0  0  0
   12.0922   -3.3406   16.1315 C   0  0  0  0  0  0  0  0  0  0  0  0
   13.2971   -3.1391   16.8140 C   0  0  0  0  0  0  0  0  0  0  0  0
   13.8266   -4.2468   17.6840 C   0  0  0  0  0  0  0  0  0  0  0  0
   16.4678   -0.9315   19.8656 C   0  0  0  0  0  0  0  0  0  0  0  0
   17.1952   -0.0401   20.8608 C   0  0  0  0  0  0  0  0  0  0  0  0
   17.5683    1.1634   20.0251 C   0  0  0  0  0  0  0  0  0  0  0  0
   18.0618    0.5378   18.7273 C   0  0  0  0  0  0  0  0  0  0  0  0
   18.6652   -3.2163   15.5988 C   0  0  0  0  0  0  0  0  0  0  0  0
   19.1548   -3.1970   14.2817 C   0  0  0  0  0  0  0  0  0  0  0  0
   19.2262   -4.4791   13.4957 C   0  0  0  0  0  0  0  0  0  0  0  0
  1  2  1  0
  2  3  2  0
  3  4  1  0
  4  5  2  0
  5  6  1  0
  6  7  2  0
  6  8  2  0
  6  9  1  0
  9 10  1  0
 10 11  2  0
 10 12  1  0
 12 13  1  0
 13 14  2  0
 14 15  1  0
 15 16  1  0
 16 17  1  0
 15 18  2  0
 18 19  1  0
 19 20  2  0
 20 21  1  0
  9 22  1  0
 22 23  1  0
 23 24  1  0
 24 25  1  0
  5 26  1  0
 26 27  2  0
 27 28  1  0
 27  2  1  0
 25  9  1  0
 20 13  1  0
M  END
>  <ref_mols>  (1329) 
B1396a

>  <gnina_score>  (1329) 
5.105

>  <smina_score_min>  (1329) 
-4.117

>  <ref_pdb>  (1329) 
B1396a

>  <inspiration_score>  (1329) 
None

>  <inchikey>  (1329) 
NREMZKQIVOHJQL-UHFFFAOYSA-N

>  <tags>  (1329) 
BulkDock Fragalysis export,openbind_d68ev3c_c2_elabs_scored,openbind_d68ev3c_c2_elabs_scored_4.5plus,openbind_d68ev3c_c2_elabs,openbind_d68ev3c_c2_elabs_scored_5plus,syndirella_product,openbind_d68ev3c_c2_elabs_scored_top80percent,syndirella_placed

>  <smiles>  (1329) 
Cc1ccc(S(=O)(=O)C2(C(=O)Nc3cc(CO)ccc3C)CCCC2)cc1C

>  <subsites>  (1329) 
None

>  <rmsd(smina/fragmenstein)>  (1329) 
1.965

>  <alias>  (1329) 
None

>  <energy_score>  (1329) 
-49.91136

>  <HIPPO Pose ID>  (1329) 
95883

>  <distance_score>  (1329) 
0.445874

>  <HIPPO Compound ID>  (1329) 
129841

>  <gnina_score_min>  (1329) 
5.086

>  <name>  (1329) 
P95883

>  <exports>  (1329) 
['/opt/xchem-fragalysis-2/maxwin/BulkDock/OUTPUTS/openbind_d68ev3c_c2_elabs_1LOTQJ3.sdf', '/opt/xchem-fragalysis-2/maxwin/BulkDock/OUTPUTS/openbind_d68ev3c_c2_elabs_1LSYI5W.sdf']

$$$$
P95884
     RDKit          3D

 28 30  0  0  0  0  0  0  0  0999 V2000
   20.0092   -1.2562   12.3698 C   0  0  0  0  0  0  0  0  0  0  0  0
   19.5169   -1.5551   13.7611 C   0  0  0  0  0  0  0  0  0  0  0  0
   20.3369   -1.2382   14.8552 C   0  0  0  0  0  0  0  0  0  0  0  0
   19.9125   -1.4775   16.1610 C   0  0  0  0  0  0  0  0  0  0  0  0
   18.6578   -2.0421   16.3813 C   0  0  0  0  0  0  0  0  0  0  0  0
   18.1359   -2.3689   18.0495 S   0  0  0  0  0  0  0  0  0  0  0  0
   19.3392   -2.5179   18.8492 O   0  0  0  0  0  0  0  0  0  0  0  0
   17.1827   -3.4666   18.0060 O   0  0  0  0  0  0  0  0  0  0  0  0
   17.2562   -0.9123   18.6003 C   0  0  0  0  0  0  0  0  0  0  0  0
   16.1817   -0.5141   17.5573 C   0  0  0  0  0  0  0  0  0  0  0  0
   16.1949    0.5505   17.0673 O   0  0  0  0  0  0  0  0  0  0  0  0
   15.1693   -1.6929   17.3895 N   0  0  0  0  0  0  0  0  0  0  0  0
   13.9645   -1.7602   16.6852 C   0  0  0  0  0  0  0  0  0  0  0  0
   13.5125   -0.6657   15.9389 C   0  0  0  0  0  0  0  0  0  0  0  0
   12.3224   -0.7440   15.2029 C   0  0  0  0  0  0  0  0  0  0  0  0
   11.8564    0.3943   14.4617 C   0  0  0  0  0  0  0  0  0  0  0  0
   11.4731    1.3290   13.8887 N   0  0  0  0  0  0  0  0  0  0  0  0
   11.5897   -1.9304   15.1991 C   0  0  0  0  0  0  0  0  0  0  0  0
   12.0370   -3.0229   15.9435 C   0  0  0  0  0  0  0  0  0  0  0  0
   13.2159   -2.9492   16.7040 C   0  0  0  0  0  0  0  0  0  0  0  0
   13.6397   -4.1495   17.5084 C   0  0  0  0  0  0  0  0  0  0  0  0
   18.2240    0.2579   18.8751 C   0  0  0  0  0  0  0  0  0  0  0  0
   17.5073    1.1521   19.8873 C   0  0  0  0  0  0  0  0  0  0  0  0
   16.4318    0.2872   20.5371 C   0  0  0  0  0  0  0  0  0  0  0  0
   16.6430   -1.1219   19.9940 C   0  0  0  0  0  0  0  0  0  0  0  0
   17.8370   -2.3928   15.3041 C   0  0  0  0  0  0  0  0  0  0  0  0
   18.2415   -2.1121   13.9882 C   0  0  0  0  0  0  0  0  0  0  0  0
   17.3062   -2.3906   12.8424 C   0  0  0  0  0  0  0  0  0  0  0  0
  1  2  1  0
  2  3  2  0
  3  4  1  0
  4  5  2  0
  5  6  1  0
  6  7  2  0
  6  8  2  0
  6  9  1  0
  9 10  1  0
 10 11  2  0
 10 12  1  0
 12 13  1  0
 13 14  2  0
 14 15  1  0
 15 16  1  0
 16 17  3  0
 15 18  2  0
 18 19  1  0
 19 20  2  0
 20 21  1  0
  9 22  1  0
 22 23  1  0
 23 24  1  0
 24 25  1  0
  5 26  1  0
 26 27  2  0
 27 28  1  0
 27  2  1  0
 25  9  1  0
 20 13  1  0
M  END
>  <ref_mols>  (1330) 
B1396a

>  <gnina_score>  (1330) 
5.177

>  <smina_score_min>  (1330) 
-3.973

>  <ref_pdb>  (1330) 
B1396a

>  <inspiration_score>  (1330) 
None

>  <inchikey>  (1330) 
KMOGNJNCYYWTII-UHFFFAOYSA-N

>  <tags>  (1330) 
BulkDock Fragalysis export,openbind_d68ev3c_c2_elabs_scored,openbind_d68ev3c_c2_elabs_scored_4.5plus,openbind_d68ev3c_c2_elabs,openbind_d68ev3c_c2_elabs_scored_5plus,syndirella_product,openbind_d68ev3c_c2_elabs_scored_top80percent,syndirella_placed

>  <smiles>  (1330) 
Cc1ccc(S(=O)(=O)C2(C(=O)Nc3cc(C#N)ccc3C)CCCC2)cc1C

>  <subsites>  (1330) 
None

>  <rmsd(smina/fragmenstein)>  (1330) 
1.482

>  <alias>  (1330) 
None

>  <energy_score>  (1330) 
-50.885741

>  <HIPPO Pose ID>  (1330) 
95884

>  <distance_score>  (1330) 
0.520651

>  <HIPPO Compound ID>  (1330) 
129844

>  <gnina_score_min>  (1330) 
5.176

>  <name>  (1330) 
P95884

>  <exports>  (1330) 
['/opt/xchem-fragalysis-2/maxwin/BulkDock/OUTPUTS/openbind_d68ev3c_c2_elabs_1LOTQJ3.sdf', '/opt/xchem-fragalysis-2/maxwin/BulkDock/OUTPUTS/openbind_d68ev3c_c2_elabs_1LSYI5W.sdf']

$$$$
P95885
     RDKit          3D

 28 31  0  0  0  0  0  0  0  0999 V2000
   20.1873   -2.0086   12.3981 C   0  0  0  0  0  0  0  0  0  0  0  0
   19.7816   -2.0782   13.8463 C   0  0  0  0  0  0  0  0  0  0  0  0
   19.0007   -3.1597   14.2852 C   0  0  0  0  0  0  0  0  0  0  0  0
   18.6012   -3.2570   15.6177 C   0  0  0  0  0  0  0  0  0  0  0  0
   18.9798   -2.2619   16.5217 C   0  0  0  0  0  0  0  0  0  0  0  0
   18.4563   -2.3612   18.2211 S   0  0  0  0  0  0  0  0  0  0  0  0
   19.6178   -2.0161   19.0226 O   0  0  0  0  0  0  0  0  0  0  0  0
   17.8656   -3.6784   18.3924 O   0  0  0  0  0  0  0  0  0  0  0  0
   17.1677   -1.1316   18.4954 C   0  0  0  0  0  0  0  0  0  0  0  0
   16.2689   -1.0924   17.2428 C   0  0  0  0  0  0  0  0  0  0  0  0
   16.6770   -0.6029   16.2510 O   0  0  0  0  0  0  0  0  0  0  0  0
   14.9208   -1.7264   17.5431 N   0  0  0  0  0  0  0  0  0  0  0  0
   14.9318   -3.2803   17.2272 C   0  0  0  0  0  0  0  0  0  0  0  0
   13.6122   -3.9839   17.4614 C   0  0  0  0  0  0  0  0  0  0  0  0
   12.9278   -2.9703   16.6777 C   0  0  0  0  0  0  0  0  0  0  0  0
   11.7883   -3.0684   15.9001 C   0  0  0  0  0  0  0  0  0  0  0  0
   11.3706   -1.9494   15.1841 C   0  0  0  0  0  0  0  0  0  0  0  0
   12.1148   -0.7690   15.2450 C   0  0  0  0  0  0  0  0  0  0  0  0
   11.5823    0.6133   14.3692 Cl  0  0  0  0  0  0  0  0  0  0  0  0
   13.2834   -0.7014   16.0056 C   0  0  0  0  0  0  0  0  0  0  0  0
   13.7021   -1.8252   16.7198 C   0  0  0  0  0  0  0  0  0  0  0  0
   16.4745   -1.3574   19.8485 C   0  0  0  0  0  0  0  0  0  0  0  0
   15.8570   -0.0100   20.2173 C   0  0  0  0  0  0  0  0  0  0  0  0
   16.6460    1.0402   19.4404 C   0  0  0  0  0  0  0  0  0  0  0  0
   17.7566    0.2777   18.7215 C   0  0  0  0  0  0  0  0  0  0  0  0
   19.7962   -1.2039   16.1147 C   0  0  0  0  0  0  0  0  0  0  0  0
   20.1960   -1.0979   14.7731 C   0  0  0  0  0  0  0  0  0  0  0  0
   21.0547    0.0637   14.3519 C   0  0  0  0  0  0  0  0  0  0  0  0
  1  2  1  0
  2  3  2  0
  3  4  1  0
  4  5  2  0
  5  6  1  0
  6  7  2  0
  6  8  2  0
  6  9  1  0
  9 10  1  0
 10 11  2  0
 10 12  1  0
 12 13  1  0
 13 14  1  0
 14 15  1  0
 15 16  2  0
 16 17  1  0
 17 18  2  0
 18 19  1  0
 18 20  1  0
 20 21  2  0
  9 22  1  0
 22 23  1  0
 23 24  1  0
 24 25  1  0
  5 26  1  0
 26 27  2  0
 27 28  1  0
 27  2  1  0
 25  9  1  0
 21 12  1  0
 21 15  1  0
M  END
>  <ref_mols>  (1331) 
B1396a

>  <gnina_score>  (1331) 
5.408

>  <smina_score_min>  (1331) 
-4.11

>  <ref_pdb>  (1331) 
B1396a

>  <inspiration_score>  (1331) 
None

>  <inchikey>  (1331) 
DCLBYCWHEALMPL-UHFFFAOYSA-N

>  <tags>  (1331) 
BulkDock Fragalysis export,openbind_d68ev3c_c2_elabs_scored,openbind_d68ev3c_c2_elabs_scored_4.5plus,openbind_d68ev3c_c2_elabs,openbind_d68ev3c_c2_elabs_scored_5plus,syndirella_product,openbind_d68ev3c_c2_elabs_scored_top80percent,syndirella_placed

>  <smiles>  (1331) 
Cc1ccc(S(=O)(=O)C2(C(=O)N3CCc4ccc(Cl)cc43)CCCC2)cc1C

>  <subsites>  (1331) 
None

>  <rmsd(smina/fragmenstein)>  (1331) 
1.158

>  <alias>  (1331) 
None

>  <energy_score>  (1331) 
-8.56553

>  <HIPPO Pose ID>  (1331) 
95885

>  <distance_score>  (1331) 
0.3224

>  <HIPPO Compound ID>  (1331) 
129846

>  <gnina_score_min>  (1331) 
5.271

>  <name>  (1331) 
P95885

>  <exports>  (1331) 
['/opt/xchem-fragalysis-2/maxwin/BulkDock/OUTPUTS/openbind_d68ev3c_c2_elabs_1LOTQJ3.sdf', '/opt/xchem-fragalysis-2/maxwin/BulkDock/OUTPUTS/openbind_d68ev3c_c2_elabs_1LSYI5W.sdf']

$$$$
P95886
     RDKit          3D

 28 31  0  0  0  0  0  0  0  0999 V2000
   19.9967   -1.8769   12.4597 C   0  0  0  0  0  0  0  0  0  0  0  0
   19.6330   -1.9892   13.9163 C   0  0  0  0  0  0  0  0  0  0  0  0
   18.8536   -3.0756   14.3438 C   0  0  0  0  0  0  0  0  0  0  0  0
   18.4920   -3.2133   15.6846 C   0  0  0  0  0  0  0  0  0  0  0  0
   18.9119   -2.2583   16.6131 C   0  0  0  0  0  0  0  0  0  0  0  0
   18.4873   -2.4469   18.3380 S   0  0  0  0  0  0  0  0  0  0  0  0
   17.8419   -3.7456   18.4488 O   0  0  0  0  0  0  0  0  0  0  0  0
   19.7222   -2.2236   19.0701 O   0  0  0  0  0  0  0  0  0  0  0  0
   17.2810   -1.1802   18.8109 C   0  0  0  0  0  0  0  0  0  0  0  0
   16.4341   -0.8282   17.5851 C   0  0  0  0  0  0  0  0  0  0  0  0
   16.8999   -0.1731   16.7220 O   0  0  0  0  0  0  0  0  0  0  0  0
   15.0428   -1.4327   17.7211 N   0  0  0  0  0  0  0  0  0  0  0  0
   14.9842   -2.8889   17.0974 C   0  0  0  0  0  0  0  0  0  0  0  0
   13.6187   -3.5356   17.1708 C   0  0  0  0  0  0  0  0  0  0  0  0
   13.0368   -2.3639   16.5395 C   0  0  0  0  0  0  0  0  0  0  0  0
   12.0021   -2.2174   15.6341 C   0  0  0  0  0  0  0  0  0  0  0  0
   11.2484   -3.5579   14.9167 Cl  0  0  0  0  0  0  0  0  0  0  0  0
   11.6619   -0.9530   15.1660 C   0  0  0  0  0  0  0  0  0  0  0  0
   12.4164    0.1499   15.5561 C   0  0  0  0  0  0  0  0  0  0  0  0
   13.5244   -0.0235   16.3873 C   0  0  0  0  0  0  0  0  0  0  0  0
   13.8484   -1.2938   16.8675 C   0  0  0  0  0  0  0  0  0  0  0  0
   17.9889    0.1051   19.3051 C   0  0  0  0  0  0  0  0  0  0  0  0
   18.1819   -0.0403   20.8162 C   0  0  0  0  0  0  0  0  0  0  0  0
   17.4328   -1.2983   21.2281 C   0  0  0  0  0  0  0  0  0  0  0  0
   16.4931   -1.5883   20.0687 C   0  0  0  0  0  0  0  0  0  0  0  0
   19.7342   -1.2010   16.2139 C   0  0  0  0  0  0  0  0  0  0  0  0
   20.0901   -1.0496   14.8633 C   0  0  0  0  0  0  0  0  0  0  0  0
   20.9508    0.1159   14.4566 C   0  0  0  0  0  0  0  0  0  0  0  0
  1  2  1  0
  2  3  2  0
  3  4  1  0
  4  5  2  0
  5  6  1  0
  6  7  2  0
  6  8  2  0
  6  9  1  0
  9 10  1  0
 10 11  2  0
 10 12  1  0
 12 13  1  0
 13 14  1  0
 14 15  1  0
 15 16  2  0
 16 17  1  0
 16 18  1  0
 18 19  2  0
 19 20  1  0
 20 21  2  0
  9 22  1  0
 22 23  1  0
 23 24  1  0
 24 25  1  0
  5 26  1  0
 26 27  2  0
 27 28  1  0
 27  2  1  0
 25  9  1  0
 21 12  1  0
 21 15  1  0
M  END
>  <ref_mols>  (1332) 
B1396a

>  <gnina_score>  (1332) 
5.363

>  <smina_score_min>  (1332) 
-4.396

>  <ref_pdb>  (1332) 
B1396a

>  <inspiration_score>  (1332) 
None

>  <inchikey>  (1332) 
RZSVKGBLLPWXSY-UHFFFAOYSA-N

>  <tags>  (1332) 
BulkDock Fragalysis export,openbind_d68ev3c_c2_elabs_scored,openbind_d68ev3c_c2_elabs_scored_4.5plus,openbind_d68ev3c_c2_elabs,openbind_d68ev3c_c2_elabs_scored_5plus,syndirella_product,openbind_d68ev3c_c2_elabs_scored_top80percent,syndirella_placed

>  <smiles>  (1332) 
Cc1ccc(S(=O)(=O)C2(C(=O)N3CCc4c(Cl)cccc43)CCCC2)cc1C

>  <subsites>  (1332) 
None

>  <rmsd(smina/fragmenstein)>  (1332) 
2.91

>  <alias>  (1332) 
None

>  <energy_score>  (1332) 
-2.840906

>  <HIPPO Pose ID>  (1332) 
95886

>  <distance_score>  (1332) 
0.667624

>  <HIPPO Compound ID>  (1332) 
129848

>  <gnina_score_min>  (1332) 
5.209

>  <name>  (1332) 
P95886

>  <exports>  (1332) 
['/opt/xchem-fragalysis-2/maxwin/BulkDock/OUTPUTS/openbind_d68ev3c_c2_elabs_1LOTQJ3.sdf', '/opt/xchem-fragalysis-2/maxwin/BulkDock/OUTPUTS/openbind_d68ev3c_c2_elabs_1LSYI5W.sdf']

$$$$
P95887
     RDKit          3D

 28 30  0  0  0  0  0  0  0  0999 V2000
   19.7971   -1.6732   12.3165 C   0  0  0  0  0  0  0  0  0  0  0  0
   19.4230   -1.8198   13.7678 C   0  0  0  0  0  0  0  0  0  0  0  0
   18.2393   -2.4968   14.1031 C   0  0  0  0  0  0  0  0  0  0  0  0
   17.8532   -2.6541   15.4349 C   0  0  0  0  0  0  0  0  0  0  0  0
   18.6474   -2.1092   16.4426 C   0  0  0  0  0  0  0  0  0  0  0  0
   18.1832   -2.2982   18.1469 S   0  0  0  0  0  0  0  0  0  0  0  0
   17.1791   -3.3533   18.2279 O   0  0  0  0  0  0  0  0  0  0  0  0
   19.4084   -2.4529   18.9104 O   0  0  0  0  0  0  0  0  0  0  0  0
   17.3929   -0.7578   18.6265 C   0  0  0  0  0  0  0  0  0  0  0  0
   16.2772   -0.3980   17.6145 C   0  0  0  0  0  0  0  0  0  0  0  0
   16.2781    0.6344   17.0606 O   0  0  0  0  0  0  0  0  0  0  0  0
   15.2221   -1.5537   17.6019 N   0  0  0  0  0  0  0  0  0  0  0  0
   14.0416   -1.7032   16.8536 C   0  0  0  0  0  0  0  0  0  0  0  0
   13.5134   -0.6908   16.0406 C   0  0  0  0  0  0  0  0  0  0  0  0
   14.0770    0.5197   15.9690 F   0  0  0  0  0  0  0  0  0  0  0  0
   12.3519   -0.8853   15.2916 C   0  0  0  0  0  0  0  0  0  0  0  0
   11.6932   -2.1060   15.3322 C   0  0  0  0  0  0  0  0  0  0  0  0
   12.1951   -3.1231   16.1408 C   0  0  0  0  0  0  0  0  0  0  0  0
   13.3576   -2.9379   16.9181 C   0  0  0  0  0  0  0  0  0  0  0  0
   13.8459   -4.0921   17.7575 C   0  0  0  0  0  0  0  0  0  0  0  0
   15.0016   -4.6451   17.1517 O   0  0  0  0  0  0  0  0  0  0  0  0
   18.4364    0.3876   18.7319 C   0  0  0  0  0  0  0  0  0  0  0  0
   18.0012    1.2018   19.9410 C   0  0  0  0  0  0  0  0  0  0  0  0
   17.5686    0.1288   20.9192 C   0  0  0  0  0  0  0  0  0  0  0  0
   16.7940   -0.8614   20.0557 C   0  0  0  0  0  0  0  0  0  0  0  0
   19.8422   -1.4539   16.1301 C   0  0  0  0  0  0  0  0  0  0  0  0
   20.2355   -1.2951   14.7925 C   0  0  0  0  0  0  0  0  0  0  0  0
   21.5218   -0.5785   14.4819 C   0  0  0  0  0  0  0  0  0  0  0  0
  1  2  1  0
  2  3  2  0
  3  4  1  0
  4  5  2  0
  5  6  1  0
  6  7  2  0
  6  8  2  0
  6  9  1  0
  9 10  1  0
 10 11  2  0
 10 12  1  0
 12 13  1  0
 13 14  2  0
 14 15  1  0
 14 16  1  0
 16 17  2  0
 17 18  1  0
 18 19  2  0
 19 20  1  0
 20 21  1  0
  9 22  1  0
 22 23  1  0
 23 24  1  0
 24 25  1  0
  5 26  1  0
 26 27  2  0
 27 28  1  0
 27  2  1  0
 25  9  1  0
 19 13  1  0
M  END
>  <ref_mols>  (1333) 
B1396a

>  <gnina_score>  (1333) 
5.133

>  <smina_score_min>  (1333) 
-3.468

>  <ref_pdb>  (1333) 
B1396a

>  <inspiration_score>  (1333) 
None

>  <inchikey>  (1333) 
BREWFYDXHACJBX-UHFFFAOYSA-N

>  <tags>  (1333) 
BulkDock Fragalysis export,openbind_d68ev3c_c2_elabs_scored,openbind_d68ev3c_c2_elabs_scored_4.5plus,openbind_d68ev3c_c2_elabs,openbind_d68ev3c_c2_elabs_scored_5plus,syndirella_product,openbind_d68ev3c_c2_elabs_scored_top80percent,syndirella_placed

>  <smiles>  (1333) 
Cc1ccc(S(=O)(=O)C2(C(=O)Nc3c(F)cccc3CO)CCCC2)cc1C

>  <subsites>  (1333) 
None

>  <rmsd(smina/fragmenstein)>  (1333) 
1.618

>  <alias>  (1333) 
None

>  <energy_score>  (1333) 
-46.370776

>  <HIPPO Pose ID>  (1333) 
95887

>  <distance_score>  (1333) 
0.479029

>  <HIPPO Compound ID>  (1333) 
129850

>  <gnina_score_min>  (1333) 
5.022

>  <name>  (1333) 
P95887

>  <exports>  (1333) 
['/opt/xchem-fragalysis-2/maxwin/BulkDock/OUTPUTS/openbind_d68ev3c_c2_elabs_1LOTQJ3.sdf', '/opt/xchem-fragalysis-2/maxwin/BulkDock/OUTPUTS/openbind_d68ev3c_c2_elabs_1LSYI5W.sdf']

$$$$
P95890
     RDKit          3D

 28 30  0  0  0  0  0  0  0  0999 V2000
   19.6981   -1.5148   12.3300 C   0  0  0  0  0  0  0  0  0  0  0  0
   19.4085   -1.7326   13.7916 C   0  0  0  0  0  0  0  0  0  0  0  0
   18.2856   -2.4906   14.1598 C   0  0  0  0  0  0  0  0  0  0  0  0
   17.9809   -2.7179   15.5024 C   0  0  0  0  0  0  0  0  0  0  0  0
   18.7964   -2.1669   16.4897 C   0  0  0  0  0  0  0  0  0  0  0  0
   18.4461   -2.4618   18.2062 S   0  0  0  0  0  0  0  0  0  0  0  0
   19.7199   -2.6507   18.8756 O   0  0  0  0  0  0  0  0  0  0  0  0
   17.4515   -3.5220   18.2897 O   0  0  0  0  0  0  0  0  0  0  0  0
   17.6827   -0.9727   18.8344 C   0  0  0  0  0  0  0  0  0  0  0  0
   16.5546   -0.5107   17.8835 C   0  0  0  0  0  0  0  0  0  0  0  0
   16.5724    0.5685   17.4252 O   0  0  0  0  0  0  0  0  0  0  0  0
   15.4705   -1.6350   17.7860 N   0  0  0  0  0  0  0  0  0  0  0  0
   14.2821   -1.6871   17.0545 C   0  0  0  0  0  0  0  0  0  0  0  0
   13.8250   -0.5338   16.4086 C   0  0  0  0  0  0  0  0  0  0  0  0
   12.5999   -0.5282   15.7490 C   0  0  0  0  0  0  0  0  0  0  0  0
   11.8341   -1.6836   15.7220 C   0  0  0  0  0  0  0  0  0  0  0  0
   10.2597   -1.6048   15.0601 Cl  0  0  0  0  0  0  0  0  0  0  0  0
   12.2983   -2.8605   16.3059 C   0  0  0  0  0  0  0  0  0  0  0  0
   13.5214   -2.8731   16.9997 C   0  0  0  0  0  0  0  0  0  0  0  0
   13.9623   -4.1453   17.6735 C   0  0  0  0  0  0  0  0  0  0  0  0
   15.1716   -4.5609   17.0617 O   0  0  0  0  0  0  0  0  0  0  0  0
   18.7364    0.1540   19.0256 C   0  0  0  0  0  0  0  0  0  0  0  0
   18.3132    0.8716   20.2983 C   0  0  0  0  0  0  0  0  0  0  0  0
   17.8855   -0.2744   21.1918 C   0  0  0  0  0  0  0  0  0  0  0  0
   17.1055   -1.1963   20.2595 C   0  0  0  0  0  0  0  0  0  0  0  0
   19.9304   -1.4271   16.1429 C   0  0  0  0  0  0  0  0  0  0  0  0
   20.2409   -1.1952   14.7939 C   0  0  0  0  0  0  0  0  0  0  0  0
   21.4660   -0.3931   14.4467 C   0  0  0  0  0  0  0  0  0  0  0  0
  1  2  1  0
  2  3  2  0
  3  4  1  0
  4  5  2  0
  5  6  1  0
  6  7  2  0
  6  8  2  0
  6  9  1  0
  9 10  1  0
 10 11  2  0
 10 12  1  0
 12 13  1  0
 13 14  2  0
 14 15  1  0
 15 16  2  0
 16 17  1  0
 16 18  1  0
 18 19  2  0
 19 20  1  0
 20 21  1  0
  9 22  1  0
 22 23  1  0
 23 24  1  0
 24 25  1  0
  5 26  1  0
 26 27  2  0
 27 28  1  0
 27  2  1  0
 25  9  1  0
 19 13  1  0
M  END
>  <ref_mols>  (1334) 
B1396a

>  <gnina_score>  (1334) 
5.297

>  <smina_score_min>  (1334) 
-3.009

>  <ref_pdb>  (1334) 
B1396a

>  <inspiration_score>  (1334) 
None

>  <inchikey>  (1334) 
RQLBDIKPMVLWSE-UHFFFAOYSA-N

>  <tags>  (1334) 
BulkDock Fragalysis export,openbind_d68ev3c_c2_elabs_scored,openbind_d68ev3c_c2_elabs_scored_4.5plus,openbind_d68ev3c_c2_elabs,openbind_d68ev3c_c2_elabs_scored_5plus,syndirella_product,openbind_d68ev3c_c2_elabs_scored_top80percent,syndirella_placed

>  <smiles>  (1334) 
Cc1ccc(S(=O)(=O)C2(C(=O)Nc3ccc(Cl)cc3CO)CCCC2)cc1C

>  <subsites>  (1334) 
None

>  <rmsd(smina/fragmenstein)>  (1334) 
0.685

>  <alias>  (1334) 
None

>  <energy_score>  (1334) 
-50.362203

>  <HIPPO Pose ID>  (1334) 
95890

>  <distance_score>  (1334) 
0.616066

>  <HIPPO Compound ID>  (1334) 
129852

>  <gnina_score_min>  (1334) 
5.144

>  <name>  (1334) 
P95890

>  <exports>  (1334) 
['/opt/xchem-fragalysis-2/maxwin/BulkDock/OUTPUTS/openbind_d68ev3c_c2_elabs_1LOTQJ3.sdf', '/opt/xchem-fragalysis-2/maxwin/BulkDock/OUTPUTS/openbind_d68ev3c_c2_elabs_1LSYI5W.sdf']

$$$$
P95891
     RDKit          3D

 28 30  0  0  0  0  0  0  0  0999 V2000
   11.0145   -3.4509   14.9538 C   0  0  0  0  0  0  0  0  0  0  0  0
   12.4970   -2.8435   14.1907 S   0  0  0  0  0  0  0  0  0  0  0  0
   12.9465   -1.7357   15.5022 C   0  0  0  0  0  0  0  0  0  0  0  0
   12.5547   -0.4134   15.2713 C   0  0  0  0  0  0  0  0  0  0  0  0
   13.1028    0.6061   16.0220 C   0  0  0  0  0  0  0  0  0  0  0  0
   14.0986    0.3050   16.9431 C   0  0  0  0  0  0  0  0  0  0  0  0
   14.4600   -1.0194   17.2110 C   0  0  0  0  0  0  0  0  0  0  0  0
   15.5875   -1.2685   17.9946 N   0  0  0  0  0  0  0  0  0  0  0  0
   16.7361   -0.3126   18.4521 C   0  0  0  0  0  0  0  0  0  0  0  0
   16.8660    0.8431   18.3041 O   0  0  0  0  0  0  0  0  0  0  0  0
   17.7721   -1.1088   19.2696 C   0  0  0  0  0  0  0  0  0  0  0  0
   18.3638   -2.5220   18.3436 S   0  0  0  0  0  0  0  0  0  0  0  0
   17.2622   -3.4730   18.2862 O   0  0  0  0  0  0  0  0  0  0  0  0
   19.6326   -2.9483   18.9038 O   0  0  0  0  0  0  0  0  0  0  0  0
   18.7011   -2.0354   16.6659 C   0  0  0  0  0  0  0  0  0  0  0  0
   17.9756   -2.6144   15.6217 C   0  0  0  0  0  0  0  0  0  0  0  0
   18.3008   -2.3107   14.2998 C   0  0  0  0  0  0  0  0  0  0  0  0
   19.3582   -1.4376   14.0053 C   0  0  0  0  0  0  0  0  0  0  0  0
   19.6788   -1.1334   12.5661 C   0  0  0  0  0  0  0  0  0  0  0  0
   20.0962   -0.8621   15.0613 C   0  0  0  0  0  0  0  0  0  0  0  0
   21.2515    0.0647   14.7917 C   0  0  0  0  0  0  0  0  0  0  0  0
   19.7668   -1.1775   16.3911 C   0  0  0  0  0  0  0  0  0  0  0  0
   17.1273   -1.5525   20.6131 C   0  0  0  0  0  0  0  0  0  0  0  0
   17.9768   -0.9432   21.7244 C   0  0  0  0  0  0  0  0  0  0  0  0
   18.5738    0.2975   21.0935 C   0  0  0  0  0  0  0  0  0  0  0  0
   18.9490   -0.1896   19.7019 C   0  0  0  0  0  0  0  0  0  0  0  0
   13.7836   -2.0788   16.5853 C   0  0  0  0  0  0  0  0  0  0  0  0
   14.0432   -3.5033   17.0072 C   0  0  0  0  0  0  0  0  0  0  0  0
  1  2  1  0
  2  3  1  0
  3  4  2  0
  4  5  1  0
  5  6  2  0
  6  7  1  0
  7  8  1  0
  8  9  1  0
  9 10  2  0
  9 11  1  0
 11 12  1  0
 12 13  2  0
 12 14  2  0
 12 15  1  0
 15 16  2  0
 16 17  1  0
 17 18  2  0
 18 19  1  0
 18 20  1  0
 20 21  1  0
 20 22  2  0
 11 23  1  0
 23 24  1  0
 24 25  1  0
 25 26  1  0
  7 27  2  0
 27 28  1  0
 27  3  1  0
 26 11  1  0
 22 15  1  0
M  END
>  <ref_mols>  (1335) 
B1396a

>  <gnina_score>  (1335) 
5.374

>  <smina_score_min>  (1335) 
-3.158

>  <ref_pdb>  (1335) 
B1396a

>  <inspiration_score>  (1335) 
None

>  <inchikey>  (1335) 
QWRLKLGHUAUUAA-UHFFFAOYSA-N

>  <tags>  (1335) 
BulkDock Fragalysis export,openbind_d68ev3c_c2_elabs_scored,openbind_d68ev3c_c2_elabs_scored_4.5plus,openbind_d68ev3c_c2_elabs,openbind_d68ev3c_c2_elabs_scored_5plus,syndirella_product,openbind_d68ev3c_c2_elabs_scored_top80percent,syndirella_placed

>  <smiles>  (1335) 
CSc1cccc(NC(=O)C2(S(=O)(=O)c3ccc(C)c(C)c3)CCCC2)c1C

>  <subsites>  (1335) 
None

>  <rmsd(smina/fragmenstein)>  (1335) 
2.383

>  <alias>  (1335) 
None

>  <energy_score>  (1335) 
-31.137106

>  <HIPPO Pose ID>  (1335) 
95891

>  <distance_score>  (1335) 
1.239853

>  <HIPPO Compound ID>  (1335) 
129855

>  <gnina_score_min>  (1335) 
5.259

>  <name>  (1335) 
P95891

>  <exports>  (1335) 
['/opt/xchem-fragalysis-2/maxwin/BulkDock/OUTPUTS/openbind_d68ev3c_c2_elabs_1LOTQJ3.sdf', '/opt/xchem-fragalysis-2/maxwin/BulkDock/OUTPUTS/openbind_d68ev3c_c2_elabs_1LSYI5W.sdf']

$$$$
P95892
     RDKit          3D

 28 30  0  0  0  0  0  0  0  0999 V2000
   13.2472    0.5440   12.9930 C   0  0  0  0  0  0  0  0  0  0  0  0
   11.8636    0.4766   14.1639 S   0  0  0  0  0  0  0  0  0  0  0  0
   12.4285   -0.8713   15.1881 C   0  0  0  0  0  0  0  0  0  0  0  0
   11.6984   -2.0572   15.2118 C   0  0  0  0  0  0  0  0  0  0  0  0
   12.1316   -3.1238   15.9989 C   0  0  0  0  0  0  0  0  0  0  0  0
   13.2946   -3.0244   16.7795 C   0  0  0  0  0  0  0  0  0  0  0  0
   13.7115   -4.2036   17.6160 C   0  0  0  0  0  0  0  0  0  0  0  0
   14.0221   -1.8232   16.7641 C   0  0  0  0  0  0  0  0  0  0  0  0
   15.1568   -1.6902   17.5692 N   0  0  0  0  0  0  0  0  0  0  0  0
   16.2191   -0.5463   17.6440 C   0  0  0  0  0  0  0  0  0  0  0  0
   16.2587    0.4898   17.0970 O   0  0  0  0  0  0  0  0  0  0  0  0
   17.2796   -0.9141   18.7078 C   0  0  0  0  0  0  0  0  0  0  0  0
   18.2149   -2.3274   18.1502 S   0  0  0  0  0  0  0  0  0  0  0  0
   17.2852   -3.4487   18.1735 O   0  0  0  0  0  0  0  0  0  0  0  0
   19.4445   -2.4101   18.9165 O   0  0  0  0  0  0  0  0  0  0  0  0
   18.7140   -2.1214   16.4550 C   0  0  0  0  0  0  0  0  0  0  0  0
   19.2501   -0.9201   16.0029 C   0  0  0  0  0  0  0  0  0  0  0  0
   19.6834   -0.8104   14.6802 C   0  0  0  0  0  0  0  0  0  0  0  0
   19.6231   -1.9049   13.8058 C   0  0  0  0  0  0  0  0  0  0  0  0
   20.1454   -1.7521   12.4022 C   0  0  0  0  0  0  0  0  0  0  0  0
   19.1314   -3.1372   14.2786 C   0  0  0  0  0  0  0  0  0  0  0  0
   19.1846   -4.3708   13.4175 C   0  0  0  0  0  0  0  0  0  0  0  0
   18.6517   -3.2278   15.5970 C   0  0  0  0  0  0  0  0  0  0  0  0
   16.6449   -1.1990   20.0873 C   0  0  0  0  0  0  0  0  0  0  0  0
   16.3156    0.1761   20.6453 C   0  0  0  0  0  0  0  0  0  0  0  0
   17.4417    1.0752   20.1600 C   0  0  0  0  0  0  0  0  0  0  0  0
   18.1711    0.3018   19.0565 C   0  0  0  0  0  0  0  0  0  0  0  0
   13.5819   -0.7552   15.9736 C   0  0  0  0  0  0  0  0  0  0  0  0
  1  2  1  0
  2  3  1  0
  3  4  2  0
  4  5  1  0
  5  6  2  0
  6  7  1  0
  6  8  1  0
  8  9  1  0
  9 10  1  0
 10 11  2  0
 10 12  1  0
 12 13  1  0
 13 14  2  0
 13 15  2  0
 13 16  1  0
 16 17  2  0
 17 18  1  0
 18 19  2  0
 19 20  1  0
 19 21  1  0
 21 22  1  0
 21 23  2  0
 12 24  1  0
 24 25  1  0
 25 26  1  0
 26 27  1  0
  8 28  2  0
 28  3  1  0
 27 12  1  0
 23 16  1  0
M  END
>  <ref_mols>  (1336) 
B1396a

>  <gnina_score>  (1336) 
5.264

>  <smina_score_min>  (1336) 
-3.884

>  <ref_pdb>  (1336) 
B1396a

>  <inspiration_score>  (1336) 
None

>  <inchikey>  (1336) 
IOSVQWCDEHYWRE-UHFFFAOYSA-N

>  <tags>  (1336) 
BulkDock Fragalysis export,openbind_d68ev3c_c2_elabs_scored,openbind_d68ev3c_c2_elabs_scored_4.5plus,openbind_d68ev3c_c2_elabs,openbind_d68ev3c_c2_elabs_scored_5plus,syndirella_product,openbind_d68ev3c_c2_elabs_scored_top80percent,syndirella_placed

>  <smiles>  (1336) 
CSc1ccc(C)c(NC(=O)C2(S(=O)(=O)c3ccc(C)c(C)c3)CCCC2)c1

>  <subsites>  (1336) 
None

>  <rmsd(smina/fragmenstein)>  (1336) 
1.658

>  <alias>  (1336) 
None

>  <energy_score>  (1336) 
-48.524431

>  <HIPPO Pose ID>  (1336) 
95892

>  <distance_score>  (1336) 
0.447694

>  <HIPPO Compound ID>  (1336) 
129856

>  <gnina_score_min>  (1336) 
5.236

>  <name>  (1336) 
P95892

>  <exports>  (1336) 
['/opt/xchem-fragalysis-2/maxwin/BulkDock/OUTPUTS/openbind_d68ev3c_c2_elabs_1LOTQJ3.sdf', '/opt/xchem-fragalysis-2/maxwin/BulkDock/OUTPUTS/openbind_d68ev3c_c2_elabs_1LSYI5W.sdf']

$$$$
P95893
     RDKit          3D

 28 30  0  0  0  0  0  0  0  0999 V2000
   19.6949   -1.2720   12.3839 C   0  0  0  0  0  0  0  0  0  0  0  0
   19.3882   -1.5725   13.8273 C   0  0  0  0  0  0  0  0  0  0  0  0
   18.3534   -2.4703   14.1330 C   0  0  0  0  0  0  0  0  0  0  0  0
   18.0410   -2.7765   15.4573 C   0  0  0  0  0  0  0  0  0  0  0  0
   18.7613   -2.1727   16.4890 C   0  0  0  0  0  0  0  0  0  0  0  0
   18.4214   -2.6086   18.1773 S   0  0  0  0  0  0  0  0  0  0  0  0
   17.4395   -3.6835   18.1564 O   0  0  0  0  0  0  0  0  0  0  0  0
   19.7044   -2.8300   18.8171 O   0  0  0  0  0  0  0  0  0  0  0  0
   17.6266   -1.2166   18.9476 C   0  0  0  0  0  0  0  0  0  0  0  0
   16.5422   -0.6426   18.0138 C   0  0  0  0  0  0  0  0  0  0  0  0
   16.5486    0.4980   17.7394 O   0  0  0  0  0  0  0  0  0  0  0  0
   15.5066   -1.7649   17.6623 N   0  0  0  0  0  0  0  0  0  0  0  0
   14.3572   -1.7265   16.8474 C   0  0  0  0  0  0  0  0  0  0  0  0
   13.5188   -2.8752   16.9028 C   0  0  0  0  0  0  0  0  0  0  0  0
   13.8934   -4.1215   17.6693 C   0  0  0  0  0  0  0  0  0  0  0  0
   12.2599   -2.8605   16.2789 C   0  0  0  0  0  0  0  0  0  0  0  0
   11.8184   -1.7162   15.6371 C   0  0  0  0  0  0  0  0  0  0  0  0
   10.2033   -1.5822   15.0922 Cl  0  0  0  0  0  0  0  0  0  0  0  0
   12.6663   -0.6331   15.4875 C   0  0  0  0  0  0  0  0  0  0  0  0
   13.9603   -0.6396   16.0418 C   0  0  0  0  0  0  0  0  0  0  0  0
   14.8071    0.5502   15.6906 C   0  0  0  0  0  0  0  0  0  0  0  0
   18.6389   -0.1282   19.3643 C   0  0  0  0  0  0  0  0  0  0  0  0
   17.9876    0.6233   20.5267 C   0  0  0  0  0  0  0  0  0  0  0  0
   16.8814   -0.2816   21.0576 C   0  0  0  0  0  0  0  0  0  0  0  0
   17.0316   -1.6028   20.3129 C   0  0  0  0  0  0  0  0  0  0  0  0
   19.8079   -1.2931   16.2047 C   0  0  0  0  0  0  0  0  0  0  0  0
   20.1228   -0.9767   14.8737 C   0  0  0  0  0  0  0  0  0  0  0  0
   21.2555   -0.0265   14.5915 C   0  0  0  0  0  0  0  0  0  0  0  0
  1  2  1  0
  2  3  2  0
  3  4  1  0
  4  5  2  0
  5  6  1  0
  6  7  2  0
  6  8  2  0
  6  9  1  0
  9 10  1  0
 10 11  2  0
 10 12  1  0
 12 13  1  0
 13 14  2  0
 14 15  1  0
 14 16  1  0
 16 17  2  0
 17 18  1  0
 17 19  1  0
 19 20  2  0
 20 21  1  0
  9 22  1  0
 22 23  1  0
 23 24  1  0
 24 25  1  0
  5 26  1  0
 26 27  2  0
 27 28  1  0
 27  2  1  0
 25  9  1  0
 20 13  1  0
M  END
>  <ref_mols>  (1337) 
B1396a

>  <gnina_score>  (1337) 
5.517

>  <smina_score_min>  (1337) 
-3.218

>  <ref_pdb>  (1337) 
B1396a

>  <inspiration_score>  (1337) 
None

>  <inchikey>  (1337) 
HMKLMBRMGLXJRS-UHFFFAOYSA-N

>  <tags>  (1337) 
BulkDock Fragalysis export,openbind_d68ev3c_c2_elabs_scored,openbind_d68ev3c_c2_elabs_scored_4.5plus,openbind_d68ev3c_c2_elabs,openbind_d68ev3c_c2_elabs_scored_5plus,syndirella_product,openbind_d68ev3c_c2_elabs_scored_top80percent,syndirella_placed

>  <smiles>  (1337) 
Cc1ccc(S(=O)(=O)C2(C(=O)Nc3c(C)cc(Cl)cc3C)CCCC2)cc1C

>  <subsites>  (1337) 
None

>  <rmsd(smina/fragmenstein)>  (1337) 
1.267

>  <alias>  (1337) 
None

>  <energy_score>  (1337) 
-39.776708

>  <HIPPO Pose ID>  (1337) 
95893

>  <distance_score>  (1337) 
0.647009

>  <HIPPO Compound ID>  (1337) 
129857

>  <gnina_score_min>  (1337) 
5.354

>  <name>  (1337) 
P95893

>  <exports>  (1337) 
['/opt/xchem-fragalysis-2/maxwin/BulkDock/OUTPUTS/openbind_d68ev3c_c2_elabs_1LOTQJ3.sdf', '/opt/xchem-fragalysis-2/maxwin/BulkDock/OUTPUTS/openbind_d68ev3c_c2_elabs_1LSYI5W.sdf']

$$$$
P95895
     RDKit          3D

 28 30  0  0  0  0  0  0  0  0999 V2000
   13.3468   -4.4692   20.5494 C   0  0  0  0  0  0  0  0  0  0  0  0
   14.7746   -4.1560   19.4964 S   0  0  0  0  0  0  0  0  0  0  0  0
   14.0609   -4.4040   17.8385 C   0  0  0  0  0  0  0  0  0  0  0  0
   13.5178   -3.1807   17.1226 C   0  0  0  0  0  0  0  0  0  0  0  0
   12.3020   -3.3189   16.4199 C   0  0  0  0  0  0  0  0  0  0  0  0
   11.7873   -2.2886   15.6300 C   0  0  0  0  0  0  0  0  0  0  0  0
   12.4806   -1.0912   15.5302 C   0  0  0  0  0  0  0  0  0  0  0  0
   13.6954   -0.9356   16.2003 C   0  0  0  0  0  0  0  0  0  0  0  0
   14.2247   -1.9712   16.9819 C   0  0  0  0  0  0  0  0  0  0  0  0
   15.4620   -1.8160   17.6067 N   0  0  0  0  0  0  0  0  0  0  0  0
   16.4415   -0.5978   17.6298 C   0  0  0  0  0  0  0  0  0  0  0  0
   16.3906    0.4277   17.0644 O   0  0  0  0  0  0  0  0  0  0  0  0
   17.5778   -0.8944   18.6319 C   0  0  0  0  0  0  0  0  0  0  0  0
   18.5225   -2.3128   18.0435 S   0  0  0  0  0  0  0  0  0  0  0  0
   17.6735   -3.4895   18.1130 O   0  0  0  0  0  0  0  0  0  0  0  0
   19.8043   -2.3323   18.7257 O   0  0  0  0  0  0  0  0  0  0  0  0
   18.8583   -2.0398   16.3174 C   0  0  0  0  0  0  0  0  0  0  0  0
   18.0298   -2.6152   15.3527 C   0  0  0  0  0  0  0  0  0  0  0  0
   18.3257   -2.4378   14.0017 C   0  0  0  0  0  0  0  0  0  0  0  0
   19.4555   -1.7067   13.6025 C   0  0  0  0  0  0  0  0  0  0  0  0
   19.7381   -1.5400   12.1328 C   0  0  0  0  0  0  0  0  0  0  0  0
   20.3049   -1.1516   14.5813 C   0  0  0  0  0  0  0  0  0  0  0  0
   21.5415   -0.3835   14.1995 C   0  0  0  0  0  0  0  0  0  0  0  0
   20.0034   -1.3361   15.9394 C   0  0  0  0  0  0  0  0  0  0  0  0
   17.0268   -1.1576   20.0611 C   0  0  0  0  0  0  0  0  0  0  0  0
   17.5632   -0.0436   20.9546 C   0  0  0  0  0  0  0  0  0  0  0  0
   18.8608    0.3662   20.2953 C   0  0  0  0  0  0  0  0  0  0  0  0
   18.5029    0.3409   18.8167 C   0  0  0  0  0  0  0  0  0  0  0  0
  1  2  1  0
  2  3  1  0
  3  4  1  0
  4  5  2  0
  5  6  1  0
  6  7  2  0
  7  8  1  0
  8  9  2  0
  9 10  1  0
 10 11  1  0
 11 12  2  0
 11 13  1  0
 13 14  1  0
 14 15  2  0
 14 16  2  0
 14 17  1  0
 17 18  2  0
 18 19  1  0
 19 20  2  0
 20 21  1  0
 20 22  1  0
 22 23  1  0
 22 24  2  0
 13 25  1  0
 25 26  1  0
 26 27  1  0
 27 28  1  0
  9  4  1  0
 28 13  1  0
 24 17  1  0
M  END
>  <ref_mols>  (1338) 
B1396a

>  <gnina_score>  (1338) 
5.177

>  <smina_score_min>  (1338) 
-3.221

>  <ref_pdb>  (1338) 
B1396a

>  <inspiration_score>  (1338) 
None

>  <inchikey>  (1338) 
VPCQNWWHEGLXKI-UHFFFAOYSA-N

>  <tags>  (1338) 
BulkDock Fragalysis export,openbind_d68ev3c_c2_elabs_scored,openbind_d68ev3c_c2_elabs_scored_4.5plus,openbind_d68ev3c_c2_elabs,openbind_d68ev3c_c2_elabs_scored_5plus,syndirella_product,openbind_d68ev3c_c2_elabs_scored_top80percent,syndirella_placed

>  <smiles>  (1338) 
CSCc1ccccc1NC(=O)C1(S(=O)(=O)c2ccc(C)c(C)c2)CCCC1

>  <subsites>  (1338) 
None

>  <rmsd(smina/fragmenstein)>  (1338) 
2.035

>  <alias>  (1338) 
None

>  <energy_score>  (1338) 
-52.158723

>  <HIPPO Pose ID>  (1338) 
95895

>  <distance_score>  (1338) 
0.510696

>  <HIPPO Compound ID>  (1338) 
129860

>  <gnina_score_min>  (1338) 
5.073

>  <name>  (1338) 
P95895

>  <exports>  (1338) 
['/opt/xchem-fragalysis-2/maxwin/BulkDock/OUTPUTS/openbind_d68ev3c_c2_elabs_1LOTQJ3.sdf', '/opt/xchem-fragalysis-2/maxwin/BulkDock/OUTPUTS/openbind_d68ev3c_c2_elabs_1LSYI5W.sdf']

$$$$
P95896
     RDKit          3D

 28 30  0  0  0  0  0  0  0  0999 V2000
   19.8832   -1.5486   12.2776 C   0  0  0  0  0  0  0  0  0  0  0  0
   19.4958   -1.7137   13.7236 C   0  0  0  0  0  0  0  0  0  0  0  0
   18.4137   -2.5467   14.0500 C   0  0  0  0  0  0  0  0  0  0  0  0
   18.0241   -2.7275   15.3771 C   0  0  0  0  0  0  0  0  0  0  0  0
   18.7149   -2.0593   16.3882 C   0  0  0  0  0  0  0  0  0  0  0  0
   18.2579   -2.3072   18.0866 S   0  0  0  0  0  0  0  0  0  0  0  0
   17.2940   -3.3954   18.1188 O   0  0  0  0  0  0  0  0  0  0  0  0
   19.4916   -2.4236   18.8418 O   0  0  0  0  0  0  0  0  0  0  0  0
   17.3884   -0.8396   18.6088 C   0  0  0  0  0  0  0  0  0  0  0  0
   16.2750   -0.5063   17.5841 C   0  0  0  0  0  0  0  0  0  0  0  0
   16.2836    0.5161   17.0110 O   0  0  0  0  0  0  0  0  0  0  0  0
   15.2164   -1.6576   17.5850 N   0  0  0  0  0  0  0  0  0  0  0  0
   14.0427   -1.8163   16.8321 C   0  0  0  0  0  0  0  0  0  0  0  0
   13.5656   -0.7616   16.0440 C   0  0  0  0  0  0  0  0  0  0  0  0
   12.3944   -0.9120   15.2957 C   0  0  0  0  0  0  0  0  0  0  0  0
   11.7588    0.5230   14.2416 Br  0  0  0  0  0  0  0  0  0  0  0  0
   11.6873   -2.1096   15.3152 C   0  0  0  0  0  0  0  0  0  0  0  0
   12.1531   -3.1624   16.1015 C   0  0  0  0  0  0  0  0  0  0  0  0
   13.3212   -3.0219   16.8666 C   0  0  0  0  0  0  0  0  0  0  0  0
   13.7635   -4.1320   17.6566 C   0  0  0  0  0  0  0  0  0  0  0  0
   14.1650   -5.0130   18.2926 N   0  0  0  0  0  0  0  0  0  0  0  0
   18.3445    0.3557   18.8027 C   0  0  0  0  0  0  0  0  0  0  0  0
   17.6461    1.2819   19.7990 C   0  0  0  0  0  0  0  0  0  0  0  0
   16.6069    0.4297   20.5196 C   0  0  0  0  0  0  0  0  0  0  0  0
   16.8300   -0.9975   20.0331 C   0  0  0  0  0  0  0  0  0  0  0  0
   19.8132   -1.2509   16.0862 C   0  0  0  0  0  0  0  0  0  0  0  0
   20.2064   -1.0623   14.7525 C   0  0  0  0  0  0  0  0  0  0  0  0
   21.3891   -0.1818   14.4507 C   0  0  0  0  0  0  0  0  0  0  0  0
  1  2  1  0
  2  3  2  0
  3  4  1  0
  4  5  2  0
  5  6  1  0
  6  7  2  0
  6  8  2  0
  6  9  1  0
  9 10  1  0
 10 11  2  0
 10 12  1  0
 12 13  1  0
 13 14  2  0
 14 15  1  0
 15 16  1  0
 15 17  2  0
 17 18  1  0
 18 19  2  0
 19 20  1  0
 20 21  3  0
  9 22  1  0
 22 23  1  0
 23 24  1  0
 24 25  1  0
  5 26  1  0
 26 27  2  0
 27 28  1  0
 27  2  1  0
 25  9  1  0
 19 13  1  0
M  END
>  <ref_mols>  (1339) 
B1396a

>  <gnina_score>  (1339) 
5.472

>  <smina_score_min>  (1339) 
-3.834

>  <ref_pdb>  (1339) 
B1396a

>  <inspiration_score>  (1339) 
None

>  <inchikey>  (1339) 
LBLMAEVCLPYQLP-UHFFFAOYSA-N

>  <tags>  (1339) 
BulkDock Fragalysis export,openbind_d68ev3c_c2_elabs_scored,openbind_d68ev3c_c2_elabs_scored_4.5plus,openbind_d68ev3c_c2_elabs,openbind_d68ev3c_c2_elabs_scored_5plus,syndirella_product,openbind_d68ev3c_c2_elabs_scored_top80percent,syndirella_placed

>  <smiles>  (1339) 
Cc1ccc(S(=O)(=O)C2(C(=O)Nc3cc(Br)ccc3C#N)CCCC2)cc1C

>  <subsites>  (1339) 
None

>  <rmsd(smina/fragmenstein)>  (1339) 
1.472

>  <alias>  (1339) 
None

>  <energy_score>  (1339) 
-23.074153

>  <HIPPO Pose ID>  (1339) 
95896

>  <distance_score>  (1339) 
0.41903

>  <HIPPO Compound ID>  (1339) 
129861

>  <gnina_score_min>  (1339) 
5.51

>  <name>  (1339) 
P95896

>  <exports>  (1339) 
['/opt/xchem-fragalysis-2/maxwin/BulkDock/OUTPUTS/openbind_d68ev3c_c2_elabs_1LOTQJ3.sdf', '/opt/xchem-fragalysis-2/maxwin/BulkDock/OUTPUTS/openbind_d68ev3c_c2_elabs_1LSYI5W.sdf']

$$$$
P95897
     RDKit          3D

 28 30  0  0  0  0  0  0  0  0999 V2000
   19.9263   -1.5493   12.3048 C   0  0  0  0  0  0  0  0  0  0  0  0
   19.5532   -1.7168   13.7542 C   0  0  0  0  0  0  0  0  0  0  0  0
   18.5327   -2.6176   14.0971 C   0  0  0  0  0  0  0  0  0  0  0  0
   18.1595   -2.8025   15.4281 C   0  0  0  0  0  0  0  0  0  0  0  0
   18.8071   -2.0753   16.4281 C   0  0  0  0  0  0  0  0  0  0  0  0
   18.3610   -2.3240   18.1309 S   0  0  0  0  0  0  0  0  0  0  0  0
   17.3879   -3.4044   18.1595 O   0  0  0  0  0  0  0  0  0  0  0  0
   19.5968   -2.4558   18.8789 O   0  0  0  0  0  0  0  0  0  0  0  0
   17.4994   -0.8470   18.6681 C   0  0  0  0  0  0  0  0  0  0  0  0
   16.4306   -0.4772   17.6117 C   0  0  0  0  0  0  0  0  0  0  0  0
   16.4752    0.5503   17.0495 O   0  0  0  0  0  0  0  0  0  0  0  0
   15.3785   -1.6327   17.5285 N   0  0  0  0  0  0  0  0  0  0  0  0
   14.1649   -1.7090   16.8324 C   0  0  0  0  0  0  0  0  0  0  0  0
   13.7039   -0.6042   16.1024 C   0  0  0  0  0  0  0  0  0  0  0  0
   12.5111   -0.6680   15.3733 C   0  0  0  0  0  0  0  0  0  0  0  0
   11.7719   -1.8426   15.3584 C   0  0  0  0  0  0  0  0  0  0  0  0
   12.2286   -2.9351   16.0871 C   0  0  0  0  0  0  0  0  0  0  0  0
   11.5068   -4.0569   16.0561 F   0  0  0  0  0  0  0  0  0  0  0  0
   13.4038   -2.8857   16.8356 C   0  0  0  0  0  0  0  0  0  0  0  0
   13.8104   -4.0486   17.5603 C   0  0  0  0  0  0  0  0  0  0  0  0
   14.2070   -4.9632   18.1514 N   0  0  0  0  0  0  0  0  0  0  0  0
   16.8341   -1.0552   20.0561 C   0  0  0  0  0  0  0  0  0  0  0  0
   17.5161   -0.0822   21.0125 C   0  0  0  0  0  0  0  0  0  0  0  0
   17.9537    1.0584   20.1174 C   0  0  0  0  0  0  0  0  0  0  0  0
   18.4888    0.3281   18.8951 C   0  0  0  0  0  0  0  0  0  0  0  0
   19.8467   -1.1994   16.1098 C   0  0  0  0  0  0  0  0  0  0  0  0
   20.2213   -1.0043   14.7713 C   0  0  0  0  0  0  0  0  0  0  0  0
   21.3406   -0.0501   14.4517 C   0  0  0  0  0  0  0  0  0  0  0  0
  1  2  1  0
  2  3  2  0
  3  4  1  0
  4  5  2  0
  5  6  1  0
  6  7  2  0
  6  8  2  0
  6  9  1  0
  9 10  1  0
 10 11  2  0
 10 12  1  0
 12 13  1  0
 13 14  2  0
 14 15  1  0
 15 16  2  0
 16 17  1  0
 17 18  1  0
 17 19  2  0
 19 20  1  0
 20 21  3  0
  9 22  1  0
 22 23  1  0
 23 24  1  0
 24 25  1  0
  5 26  1  0
 26 27  2  0
 27 28  1  0
 27  2  1  0
 25  9  1  0
 19 13  1  0
M  END
>  <ref_mols>  (1340) 
B1396a

>  <gnina_score>  (1340) 
5.444

>  <smina_score_min>  (1340) 
-3.907

>  <ref_pdb>  (1340) 
B1396a

>  <inspiration_score>  (1340) 
None

>  <inchikey>  (1340) 
MIXBXQIPDYFHSZ-UHFFFAOYSA-N

>  <tags>  (1340) 
BulkDock Fragalysis export,openbind_d68ev3c_c2_elabs_scored,openbind_d68ev3c_c2_elabs_scored_4.5plus,openbind_d68ev3c_c2_elabs,openbind_d68ev3c_c2_elabs_scored_5plus,syndirella_product,openbind_d68ev3c_c2_elabs_scored_top80percent,syndirella_placed

>  <smiles>  (1340) 
Cc1ccc(S(=O)(=O)C2(C(=O)Nc3cccc(F)c3C#N)CCCC2)cc1C

>  <subsites>  (1340) 
None

>  <rmsd(smina/fragmenstein)>  (1340) 
2.612

>  <alias>  (1340) 
None

>  <energy_score>  (1340) 
-35.69232

>  <HIPPO Pose ID>  (1340) 
95897

>  <distance_score>  (1340) 
0.482616

>  <HIPPO Compound ID>  (1340) 
129862

>  <gnina_score_min>  (1340) 
5.43

>  <name>  (1340) 
P95897

>  <exports>  (1340) 
['/opt/xchem-fragalysis-2/maxwin/BulkDock/OUTPUTS/openbind_d68ev3c_c2_elabs_1LOTQJ3.sdf', '/opt/xchem-fragalysis-2/maxwin/BulkDock/OUTPUTS/openbind_d68ev3c_c2_elabs_1LSYI5W.sdf']

$$$$
P95898
     RDKit          3D

 28 30  0  0  0  0  0  0  0  0999 V2000
   14.4347    1.4561   14.6640 C   0  0  0  0  0  0  0  0  0  0  0  0
   13.7015    1.1589   16.2960 S   0  0  0  0  0  0  0  0  0  0  0  0
   13.2971   -0.5795   16.1092 C   0  0  0  0  0  0  0  0  0  0  0  0
   12.1558   -0.8275   15.3206 C   0  0  0  0  0  0  0  0  0  0  0  0
   11.5859   -2.0914   15.2545 C   0  0  0  0  0  0  0  0  0  0  0  0
   12.1304   -3.1199   16.0086 C   0  0  0  0  0  0  0  0  0  0  0  0
   13.2706   -2.9127   16.8053 C   0  0  0  0  0  0  0  0  0  0  0  0
   13.7935   -4.0888   17.5936 C   0  0  0  0  0  0  0  0  0  0  0  0
   13.8936   -1.6384   16.8321 C   0  0  0  0  0  0  0  0  0  0  0  0
   15.0546   -1.5218   17.6262 N   0  0  0  0  0  0  0  0  0  0  0  0
   16.2877   -0.5630   17.4909 C   0  0  0  0  0  0  0  0  0  0  0  0
   16.4836    0.3219   16.7464 O   0  0  0  0  0  0  0  0  0  0  0  0
   17.3003   -0.8875   18.6028 C   0  0  0  0  0  0  0  0  0  0  0  0
   18.1822   -2.3707   18.1224 S   0  0  0  0  0  0  0  0  0  0  0  0
   17.2340   -3.4727   18.1682 O   0  0  0  0  0  0  0  0  0  0  0  0
   19.4112   -2.4668   18.8897 O   0  0  0  0  0  0  0  0  0  0  0  0
   18.6603   -2.1608   16.4194 C   0  0  0  0  0  0  0  0  0  0  0  0
   17.8566   -2.6761   15.4025 C   0  0  0  0  0  0  0  0  0  0  0  0
   18.2467   -2.5092   14.0733 C   0  0  0  0  0  0  0  0  0  0  0  0
   19.4454   -1.8534   13.7490 C   0  0  0  0  0  0  0  0  0  0  0  0
   19.8253   -1.6950   12.3006 C   0  0  0  0  0  0  0  0  0  0  0  0
   20.2689   -1.3626   14.7821 C   0  0  0  0  0  0  0  0  0  0  0  0
   21.5719   -0.6718   14.4834 C   0  0  0  0  0  0  0  0  0  0  0  0
   19.8712   -1.5318   16.1173 C   0  0  0  0  0  0  0  0  0  0  0  0
   16.6516   -1.0183   19.9912 C   0  0  0  0  0  0  0  0  0  0  0  0
   17.7527   -0.7044   20.9955 C   0  0  0  0  0  0  0  0  0  0  0  0
   18.7186    0.2297   20.2823 C   0  0  0  0  0  0  0  0  0  0  0  0
   18.2513    0.3074   18.8310 C   0  0  0  0  0  0  0  0  0  0  0  0
  1  2  1  0
  2  3  1  0
  3  4  2  0
  4  5  1  0
  5  6  2  0
  6  7  1  0
  7  8  1  0
  7  9  2  0
  9 10  1  0
 10 11  1  0
 11 12  2  0
 11 13  1  0
 13 14  1  0
 14 15  2  0
 14 16  2  0
 14 17  1  0
 17 18  2  0
 18 19  1  0
 19 20  2  0
 20 21  1  0
 20 22  1  0
 22 23  1  0
 22 24  2  0
 13 25  1  0
 25 26  1  0
 26 27  1  0
 27 28  1  0
  9  3  1  0
 28 13  1  0
 24 17  1  0
M  END
>  <ref_mols>  (1341) 
B1396a

>  <gnina_score>  (1341) 
5.255

>  <smina_score_min>  (1341) 
-3.719

>  <ref_pdb>  (1341) 
B1396a

>  <inspiration_score>  (1341) 
None

>  <inchikey>  (1341) 
VVWHCSBSIGGIFO-UHFFFAOYSA-N

>  <tags>  (1341) 
BulkDock Fragalysis export,openbind_d68ev3c_c2_elabs_scored,openbind_d68ev3c_c2_elabs_scored_4.5plus,openbind_d68ev3c_c2_elabs,openbind_d68ev3c_c2_elabs_scored_5plus,syndirella_product,openbind_d68ev3c_c2_elabs_scored_top80percent,syndirella_placed

>  <smiles>  (1341) 
CSc1cccc(C)c1NC(=O)C1(S(=O)(=O)c2ccc(C)c(C)c2)CCCC1

>  <subsites>  (1341) 
None

>  <rmsd(smina/fragmenstein)>  (1341) 
1.843

>  <alias>  (1341) 
None

>  <energy_score>  (1341) 
-35.770536

>  <HIPPO Pose ID>  (1341) 
95898

>  <distance_score>  (1341) 
0.386068

>  <HIPPO Compound ID>  (1341) 
129863

>  <gnina_score_min>  (1341) 
5.305

>  <name>  (1341) 
P95898

>  <exports>  (1341) 
['/opt/xchem-fragalysis-2/maxwin/BulkDock/OUTPUTS/openbind_d68ev3c_c2_elabs_1LOTQJ3.sdf', '/opt/xchem-fragalysis-2/maxwin/BulkDock/OUTPUTS/openbind_d68ev3c_c2_elabs_1LSYI5W.sdf']

$$$$
P95899
     RDKit          3D

 28 30  0  0  0  0  0  0  0  0999 V2000
   19.7933   -1.5917   12.2969 C   0  0  0  0  0  0  0  0  0  0  0  0
   19.4874   -1.8300   13.7520 C   0  0  0  0  0  0  0  0  0  0  0  0
   18.3234   -2.5340   14.0993 C   0  0  0  0  0  0  0  0  0  0  0  0
   18.0026   -2.7734   15.4357 C   0  0  0  0  0  0  0  0  0  0  0  0
   18.8429   -2.2883   16.4384 C   0  0  0  0  0  0  0  0  0  0  0  0
   18.4478   -2.5874   18.1493 S   0  0  0  0  0  0  0  0  0  0  0  0
   17.4327   -3.6305   18.1767 O   0  0  0  0  0  0  0  0  0  0  0  0
   19.7057   -2.7970   18.8406 O   0  0  0  0  0  0  0  0  0  0  0  0
   17.6786   -1.1042   18.7759 C   0  0  0  0  0  0  0  0  0  0  0  0
   16.6865   -0.6178   17.7135 C   0  0  0  0  0  0  0  0  0  0  0  0
   16.9070    0.3492   17.0882 O   0  0  0  0  0  0  0  0  0  0  0  0
   15.4396   -1.5682   17.7075 N   0  0  0  0  0  0  0  0  0  0  0  0
   14.2156   -1.4647   17.0207 C   0  0  0  0  0  0  0  0  0  0  0  0
   13.4489   -2.6535   16.8781 C   0  0  0  0  0  0  0  0  0  0  0  0
   13.8931   -3.9752   17.4597 C   0  0  0  0  0  0  0  0  0  0  0  0
   12.2045   -2.6109   16.2188 C   0  0  0  0  0  0  0  0  0  0  0  0
   11.7048   -1.4002   15.7531 C   0  0  0  0  0  0  0  0  0  0  0  0
    9.9276   -1.2289   15.1589 Br  0  0  0  0  0  0  0  0  0  0  0  0
   12.4459   -0.2385   15.8751 C   0  0  0  0  0  0  0  0  0  0  0  0
   13.6799   -0.2573   16.5274 C   0  0  0  0  0  0  0  0  0  0  0  0
   14.2888    1.3193   16.8934 Cl  0  0  0  0  0  0  0  0  0  0  0  0
   18.7067   -0.0039   19.1151 C   0  0  0  0  0  0  0  0  0  0  0  0
   19.1573   -0.2485   20.5539 C   0  0  0  0  0  0  0  0  0  0  0  0
   18.1376   -1.1954   21.1688 C   0  0  0  0  0  0  0  0  0  0  0  0
   17.0153   -1.3198   20.1474 C   0  0  0  0  0  0  0  0  0  0  0  0
   20.0205   -1.6122   16.1112 C   0  0  0  0  0  0  0  0  0  0  0  0
   20.3467   -1.3662   14.7684 C   0  0  0  0  0  0  0  0  0  0  0  0
   21.6157   -0.6257   14.4427 C   0  0  0  0  0  0  0  0  0  0  0  0
  1  2  1  0
  2  3  2  0
  3  4  1  0
  4  5  2  0
  5  6  1  0
  6  7  2  0
  6  8  2  0
  6  9  1  0
  9 10  1  0
 10 11  2  0
 10 12  1  0
 12 13  1  0
 13 14  2  0
 14 15  1  0
 14 16  1  0
 16 17  2  0
 17 18  1  0
 17 19  1  0
 19 20  2  0
 20 21  1  0
  9 22  1  0
 22 23  1  0
 23 24  1  0
 24 25  1  0
  5 26  1  0
 26 27  2  0
 27 28  1  0
 27  2  1  0
 25  9  1  0
 20 13  1  0
M  END
>  <ref_mols>  (1342) 
B1396a

>  <gnina_score>  (1342) 
5.848

>  <smina_score_min>  (1342) 
-2.806

>  <ref_pdb>  (1342) 
B1396a

>  <inspiration_score>  (1342) 
None

>  <inchikey>  (1342) 
SMKPCPUUKOVCJI-UHFFFAOYSA-N

>  <tags>  (1342) 
BulkDock Fragalysis export,openbind_d68ev3c_c2_elabs_scored,openbind_d68ev3c_c2_elabs_scored_4.5plus,openbind_d68ev3c_c2_elabs,openbind_d68ev3c_c2_elabs_scored_5plus,syndirella_product,openbind_d68ev3c_c2_elabs_scored_top80percent,syndirella_placed

>  <smiles>  (1342) 
Cc1ccc(S(=O)(=O)C2(C(=O)Nc3c(C)cc(Br)cc3Cl)CCCC2)cc1C

>  <subsites>  (1342) 
None

>  <rmsd(smina/fragmenstein)>  (1342) 
1.044

>  <alias>  (1342) 
None

>  <energy_score>  (1342) 
-30.258281

>  <HIPPO Pose ID>  (1342) 
95899

>  <distance_score>  (1342) 
0.634313

>  <HIPPO Compound ID>  (1342) 
129864

>  <gnina_score_min>  (1342) 
5.59

>  <name>  (1342) 
P95899

>  <exports>  (1342) 
['/opt/xchem-fragalysis-2/maxwin/BulkDock/OUTPUTS/openbind_d68ev3c_c2_elabs_1LOTQJ3.sdf', '/opt/xchem-fragalysis-2/maxwin/BulkDock/OUTPUTS/openbind_d68ev3c_c2_elabs_1LSYI5W.sdf']

$$$$
P95900
     RDKit          3D

 28 30  0  0  0  0  0  0  0  0999 V2000
   14.7787   -5.0741   17.5593 C   0  0  0  0  0  0  0  0  0  0  0  0
   13.8851   -4.0015   18.1486 C   0  0  0  0  0  0  0  0  0  0  0  0
   13.6016   -2.8372   17.2229 C   0  0  0  0  0  0  0  0  0  0  0  0
   12.4050   -2.8380   16.4842 C   0  0  0  0  0  0  0  0  0  0  0  0
   12.0191   -1.6991   15.7770 C   0  0  0  0  0  0  0  0  0  0  0  0
   10.2903   -1.5417   15.0675 Br  0  0  0  0  0  0  0  0  0  0  0  0
   12.8517   -0.5951   15.6918 C   0  0  0  0  0  0  0  0  0  0  0  0
   14.0651   -0.6060   16.3664 C   0  0  0  0  0  0  0  0  0  0  0  0
   14.4377   -1.7039   17.1486 C   0  0  0  0  0  0  0  0  0  0  0  0
   15.6274   -1.6446   17.8729 N   0  0  0  0  0  0  0  0  0  0  0  0
   16.7393   -0.5437   17.9114 C   0  0  0  0  0  0  0  0  0  0  0  0
   16.7821    0.5104   17.3995 O   0  0  0  0  0  0  0  0  0  0  0  0
   17.8751   -1.0102   18.8443 C   0  0  0  0  0  0  0  0  0  0  0  0
   18.6048   -2.4838   18.1573 S   0  0  0  0  0  0  0  0  0  0  0  0
   19.8806   -2.7143   18.8085 O   0  0  0  0  0  0  0  0  0  0  0  0
   17.5915   -3.5255   18.1997 O   0  0  0  0  0  0  0  0  0  0  0  0
   18.9403   -2.1269   16.4472 C   0  0  0  0  0  0  0  0  0  0  0  0
   20.1701   -1.5739   16.0993 C   0  0  0  0  0  0  0  0  0  0  0  0
   20.4411   -1.2917   14.7615 C   0  0  0  0  0  0  0  0  0  0  0  0
   19.4901   -1.5512   13.7625 C   0  0  0  0  0  0  0  0  0  0  0  0
   19.8168   -1.2038   12.3344 C   0  0  0  0  0  0  0  0  0  0  0  0
   18.2412   -2.0994   14.1198 C   0  0  0  0  0  0  0  0  0  0  0  0
   17.1644   -2.3029   13.0885 C   0  0  0  0  0  0  0  0  0  0  0  0
   17.9908   -2.4243   15.4633 C   0  0  0  0  0  0  0  0  0  0  0  0
   17.3907   -1.2324   20.2843 C   0  0  0  0  0  0  0  0  0  0  0  0
   17.3081    0.1678   20.8833 C   0  0  0  0  0  0  0  0  0  0  0  0
   18.3433    1.0057   20.1388 C   0  0  0  0  0  0  0  0  0  0  0  0
   18.9233    0.1015   19.0516 C   0  0  0  0  0  0  0  0  0  0  0  0
  1  2  1  0
  2  3  1  0
  3  4  2  0
  4  5  1  0
  5  6  1  0
  5  7  2  0
  7  8  1  0
  8  9  2  0
  9 10  1  0
 10 11  1  0
 11 12  2  0
 11 13  1  0
 13 14  1  0
 14 15  2  0
 14 16  2  0
 14 17  1  0
 17 18  2  0
 18 19  1  0
 19 20  2  0
 20 21  1  0
 20 22  1  0
 22 23  1  0
 22 24  2  0
 13 25  1  0
 25 26  1  0
 26 27  1  0
 27 28  1  0
  9  3  1  0
 28 13  1  0
 24 17  1  0
M  END
>  <ref_mols>  (1343) 
B1396a

>  <gnina_score>  (1343) 
5.57

>  <smina_score_min>  (1343) 
-2.826

>  <ref_pdb>  (1343) 
B1396a

>  <inspiration_score>  (1343) 
None

>  <inchikey>  (1343) 
YAEAJEOKASPZCY-UHFFFAOYSA-N

>  <tags>  (1343) 
BulkDock Fragalysis export,openbind_d68ev3c_c2_elabs_scored,openbind_d68ev3c_c2_elabs_scored_4.5plus,openbind_d68ev3c_c2_elabs,openbind_d68ev3c_c2_elabs_scored_5plus,syndirella_product,openbind_d68ev3c_c2_elabs_scored_top80percent,syndirella_placed

>  <smiles>  (1343) 
CCc1cc(Br)ccc1NC(=O)C1(S(=O)(=O)c2ccc(C)c(C)c2)CCCC1

>  <subsites>  (1343) 
None

>  <rmsd(smina/fragmenstein)>  (1343) 
1.023

>  <alias>  (1343) 
None

>  <energy_score>  (1343) 
-44.847124

>  <HIPPO Pose ID>  (1343) 
95900

>  <distance_score>  (1343) 
0.768798

>  <HIPPO Compound ID>  (1343) 
129865

>  <gnina_score_min>  (1343) 
5.375

>  <name>  (1343) 
P95900

>  <exports>  (1343) 
['/opt/xchem-fragalysis-2/maxwin/BulkDock/OUTPUTS/openbind_d68ev3c_c2_elabs_1LOTQJ3.sdf', '/opt/xchem-fragalysis-2/maxwin/BulkDock/OUTPUTS/openbind_d68ev3c_c2_elabs_1LSYI5W.sdf']

$$$$
P95901
     RDKit          3D

 28 30  0  0  0  0  0  0  0  0999 V2000
   19.9976   -2.0895   12.3395 C   0  0  0  0  0  0  0  0  0  0  0  0
   19.5518   -2.1690   13.7750 C   0  0  0  0  0  0  0  0  0  0  0  0
   19.5293   -1.0016   14.5516 C   0  0  0  0  0  0  0  0  0  0  0  0
   19.1477   -1.0355   15.8948 C   0  0  0  0  0  0  0  0  0  0  0  0
   18.7619   -2.2418   16.4723 C   0  0  0  0  0  0  0  0  0  0  0  0
   18.3032   -2.3678   18.1907 S   0  0  0  0  0  0  0  0  0  0  0  0
   17.3460   -3.4625   18.2767 O   0  0  0  0  0  0  0  0  0  0  0  0
   19.5470   -2.4481   18.9332 O   0  0  0  0  0  0  0  0  0  0  0  0
   17.4150   -0.8997   18.7129 C   0  0  0  0  0  0  0  0  0  0  0  0
   16.3877   -0.5555   17.6118 C   0  0  0  0  0  0  0  0  0  0  0  0
   16.5064    0.4144   16.9633 O   0  0  0  0  0  0  0  0  0  0  0  0
   15.2675   -1.6501   17.6034 N   0  0  0  0  0  0  0  0  0  0  0  0
   14.0547   -1.7163   16.8808 C   0  0  0  0  0  0  0  0  0  0  0  0
   13.4249   -2.9944   16.8799 C   0  0  0  0  0  0  0  0  0  0  0  0
   13.9877   -4.1866   17.6172 C   0  0  0  0  0  0  0  0  0  0  0  0
   12.2286   -3.1909   16.1743 C   0  0  0  0  0  0  0  0  0  0  0  0
   11.6455   -2.1477   15.4852 C   0  0  0  0  0  0  0  0  0  0  0  0
   10.4829   -2.3463   14.8558 F   0  0  0  0  0  0  0  0  0  0  0  0
   12.2143   -0.8886   15.5024 C   0  0  0  0  0  0  0  0  0  0  0  0
   13.4082   -0.6481   16.2094 C   0  0  0  0  0  0  0  0  0  0  0  0
   13.8061    1.0936   16.2974 S   0  0  0  0  0  0  0  0  0  0  0  0
   16.7254   -1.1360   20.0910 C   0  0  0  0  0  0  0  0  0  0  0  0
   17.0811    0.0621   20.9599 C   0  0  0  0  0  0  0  0  0  0  0  0
   18.4817    0.4050   20.5124 C   0  0  0  0  0  0  0  0  0  0  0  0
   18.3957    0.2769   18.9975 C   0  0  0  0  0  0  0  0  0  0  0  0
   18.7697   -3.4154   15.7068 C   0  0  0  0  0  0  0  0  0  0  0  0
   19.1758   -3.3927   14.3614 C   0  0  0  0  0  0  0  0  0  0  0  0
   19.2943   -4.6894   13.6047 C   0  0  0  0  0  0  0  0  0  0  0  0
  1  2  1  0
  2  3  2  0
  3  4  1  0
  4  5  2  0
  5  6  1  0
  6  7  2  0
  6  8  2  0
  6  9  1  0
  9 10  1  0
 10 11  2  0
 10 12  1  0
 12 13  1  0
 13 14  2  0
 14 15  1  0
 14 16  1  0
 16 17  2  0
 17 18  1  0
 17 19  1  0
 19 20  2  0
 20 21  1  0
  9 22  1  0
 22 23  1  0
 23 24  1  0
 24 25  1  0
  5 26  1  0
 26 27  2  0
 27 28  1  0
 27  2  1  0
 25  9  1  0
 20 13  1  0
M  END
>  <ref_mols>  (1344) 
B1396a

>  <gnina_score>  (1344) 
5.512

>  <smina_score_min>  (1344) 
-4.028

>  <ref_pdb>  (1344) 
B1396a

>  <inspiration_score>  (1344) 
None

>  <inchikey>  (1344) 
HSXRCPFBWCGXJM-UHFFFAOYSA-N

>  <tags>  (1344) 
BulkDock Fragalysis export,openbind_d68ev3c_c2_elabs_scored,openbind_d68ev3c_c2_elabs_scored_4.5plus,openbind_d68ev3c_c2_elabs,openbind_d68ev3c_c2_elabs_scored_5plus,syndirella_product,openbind_d68ev3c_c2_elabs_scored_top80percent,syndirella_placed

>  <smiles>  (1344) 
Cc1ccc(S(=O)(=O)C2(C(=O)Nc3c(C)cc(F)cc3S)CCCC2)cc1C

>  <subsites>  (1344) 
None

>  <rmsd(smina/fragmenstein)>  (1344) 
2.03

>  <alias>  (1344) 
None

>  <energy_score>  (1344) 
-54.225843

>  <HIPPO Pose ID>  (1344) 
95901

>  <distance_score>  (1344) 
0.459394

>  <HIPPO Compound ID>  (1344) 
129867

>  <gnina_score_min>  (1344) 
5.434

>  <name>  (1344) 
P95901

>  <exports>  (1344) 
['/opt/xchem-fragalysis-2/maxwin/BulkDock/OUTPUTS/openbind_d68ev3c_c2_elabs_1LOTQJ3.sdf', '/opt/xchem-fragalysis-2/maxwin/BulkDock/OUTPUTS/openbind_d68ev3c_c2_elabs_1LSYI5W.sdf']

$$$$
P95902
     RDKit          3D

 28 30  0  0  0  0  0  0  0  0999 V2000
   19.8786   -1.6609   12.3239 C   0  0  0  0  0  0  0  0  0  0  0  0
   19.4972   -1.8272   13.7713 C   0  0  0  0  0  0  0  0  0  0  0  0
   18.3326   -2.5429   14.0933 C   0  0  0  0  0  0  0  0  0  0  0  0
   17.9417   -2.7172   15.4212 C   0  0  0  0  0  0  0  0  0  0  0  0
   18.7132   -2.1550   16.4377 C   0  0  0  0  0  0  0  0  0  0  0  0
   18.2354   -2.3637   18.1374 S   0  0  0  0  0  0  0  0  0  0  0  0
   19.4569   -2.5469   18.9000 O   0  0  0  0  0  0  0  0  0  0  0  0
   17.2099   -3.3946   18.1829 O   0  0  0  0  0  0  0  0  0  0  0  0
   17.4636   -0.8357   18.6355 C   0  0  0  0  0  0  0  0  0  0  0  0
   16.4070   -0.4558   17.5730 C   0  0  0  0  0  0  0  0  0  0  0  0
   16.5544    0.4992   16.9091 O   0  0  0  0  0  0  0  0  0  0  0  0
   15.2005   -1.4514   17.6644 N   0  0  0  0  0  0  0  0  0  0  0  0
   14.0105   -1.5201   16.9088 C   0  0  0  0  0  0  0  0  0  0  0  0
   13.4106   -0.4221   16.2511 C   0  0  0  0  0  0  0  0  0  0  0  0
   13.8430    1.2285   16.5233 Cl  0  0  0  0  0  0  0  0  0  0  0  0
   12.2739   -0.5967   15.4446 C   0  0  0  0  0  0  0  0  0  0  0  0
   11.6927   -1.8471   15.3117 C   0  0  0  0  0  0  0  0  0  0  0  0
   12.2322   -2.9103   16.0168 C   0  0  0  0  0  0  0  0  0  0  0  0
   11.6250   -4.0941   15.9140 F   0  0  0  0  0  0  0  0  0  0  0  0
   13.3683   -2.7785   16.8292 C   0  0  0  0  0  0  0  0  0  0  0  0
   13.8642   -4.0001   17.5600 C   0  0  0  0  0  0  0  0  0  0  0  0
   18.4995    0.2954   18.8135 C   0  0  0  0  0  0  0  0  0  0  0  0
   17.8381    1.3022   19.7544 C   0  0  0  0  0  0  0  0  0  0  0  0
   16.7574    0.5325   20.5067 C   0  0  0  0  0  0  0  0  0  0  0  0
   16.8914   -0.9192   20.0592 C   0  0  0  0  0  0  0  0  0  0  0  0
   19.8894   -1.4624   16.1391 C   0  0  0  0  0  0  0  0  0  0  0  0
   20.2862   -1.2836   14.8051 C   0  0  0  0  0  0  0  0  0  0  0  0
   21.5511   -0.5243   14.5081 C   0  0  0  0  0  0  0  0  0  0  0  0
  1  2  1  0
  2  3  2  0
  3  4  1  0
  4  5  2  0
  5  6  1  0
  6  7  2  0
  6  8  2  0
  6  9  1  0
  9 10  1  0
 10 11  2  0
 10 12  1  0
 12 13  1  0
 13 14  2  0
 14 15  1  0
 14 16  1  0
 16 17  2  0
 17 18  1  0
 18 19  1  0
 18 20  2  0
 20 21  1  0
  9 22  1  0
 22 23  1  0
 23 24  1  0
 24 25  1  0
  5 26  1  0
 26 27  2  0
 27 28  1  0
 27  2  1  0
 25  9  1  0
 20 13  1  0
M  END
>  <ref_mols>  (1345) 
B1396a

>  <gnina_score>  (1345) 
5.526

>  <smina_score_min>  (1345) 
-3.969

>  <ref_pdb>  (1345) 
B1396a

>  <inspiration_score>  (1345) 
None

>  <inchikey>  (1345) 
ROHGOVDMUGJOSE-UHFFFAOYSA-N

>  <tags>  (1345) 
BulkDock Fragalysis export,openbind_d68ev3c_c2_elabs_scored,openbind_d68ev3c_c2_elabs_scored_4.5plus,openbind_d68ev3c_c2_elabs,openbind_d68ev3c_c2_elabs_scored_5plus,syndirella_product,openbind_d68ev3c_c2_elabs_scored_top80percent,syndirella_placed

>  <smiles>  (1345) 
Cc1ccc(S(=O)(=O)C2(C(=O)Nc3c(Cl)ccc(F)c3C)CCCC2)cc1C

>  <subsites>  (1345) 
None

>  <rmsd(smina/fragmenstein)>  (1345) 
1.884

>  <alias>  (1345) 
None

>  <energy_score>  (1345) 
-42.688327

>  <HIPPO Pose ID>  (1345) 
95902

>  <distance_score>  (1345) 
0.47797

>  <HIPPO Compound ID>  (1345) 
129868

>  <gnina_score_min>  (1345) 
5.593

>  <name>  (1345) 
P95902

>  <exports>  (1345) 
['/opt/xchem-fragalysis-2/maxwin/BulkDock/OUTPUTS/openbind_d68ev3c_c2_elabs_1LOTQJ3.sdf', '/opt/xchem-fragalysis-2/maxwin/BulkDock/OUTPUTS/openbind_d68ev3c_c2_elabs_1LSYI5W.sdf']

$$$$
P95903
     RDKit          3D

 28 30  0  0  0  0  0  0  0  0999 V2000
   14.3650    1.0915   16.6599 C   0  0  0  0  0  0  0  0  0  0  0  0
   13.7498   -0.2730   16.5186 C   0  0  0  0  0  0  0  0  0  0  0  0
   12.5162   -0.2919   15.8446 C   0  0  0  0  0  0  0  0  0  0  0  0
   11.7635   -1.4495   15.7575 C   0  0  0  0  0  0  0  0  0  0  0  0
    9.9957   -1.2878   15.1393 Br  0  0  0  0  0  0  0  0  0  0  0  0
   12.2553   -2.6447   16.2571 C   0  0  0  0  0  0  0  0  0  0  0  0
   13.4917   -2.6667   16.9311 C   0  0  0  0  0  0  0  0  0  0  0  0
   13.9238   -3.9826   17.5362 C   0  0  0  0  0  0  0  0  0  0  0  0
   14.2571   -1.4710   17.0672 C   0  0  0  0  0  0  0  0  0  0  0  0
   15.4347   -1.5536   17.8404 N   0  0  0  0  0  0  0  0  0  0  0  0
   16.6755   -0.5960   17.9115 C   0  0  0  0  0  0  0  0  0  0  0  0
   16.8656    0.4408   17.3955 O   0  0  0  0  0  0  0  0  0  0  0  0
   17.7138   -1.1519   18.9239 C   0  0  0  0  0  0  0  0  0  0  0  0
   18.4162   -2.6244   18.1719 S   0  0  0  0  0  0  0  0  0  0  0  0
   19.6850   -2.9284   18.8029 O   0  0  0  0  0  0  0  0  0  0  0  0
   17.3711   -3.6365   18.1571 O   0  0  0  0  0  0  0  0  0  0  0  0
   18.7847   -2.2430   16.4677 C   0  0  0  0  0  0  0  0  0  0  0  0
   19.9947   -1.6155   16.1498 C   0  0  0  0  0  0  0  0  0  0  0  0
   20.3040   -1.3526   14.8150 C   0  0  0  0  0  0  0  0  0  0  0  0
   19.4198   -1.7405   13.8144 C   0  0  0  0  0  0  0  0  0  0  0  0
   19.7222   -1.4858   12.5355 F   0  0  0  0  0  0  0  0  0  0  0  0
   18.2299   -2.3932   14.1209 C   0  0  0  0  0  0  0  0  0  0  0  0
   17.9090   -2.6558   15.4544 C   0  0  0  0  0  0  0  0  0  0  0  0
   17.0289   -1.4776   20.2778 C   0  0  0  0  0  0  0  0  0  0  0  0
   17.9976   -1.7269   21.4328 C   0  0  0  0  0  0  0  0  0  0  0  0
   18.9546   -0.5630   21.6285 C   0  0  0  0  0  0  0  0  0  0  0  0
   19.7231   -0.2610   20.3527 C   0  0  0  0  0  0  0  0  0  0  0  0
   18.7897   -0.0477   19.1619 C   0  0  0  0  0  0  0  0  0  0  0  0
  1  2  1  0
  2  3  2  0
  3  4  1  0
  4  5  1  0
  4  6  2  0
  6  7  1  0
  7  8  1  0
  7  9  2  0
  9 10  1  0
 10 11  1  0
 11 12  2  0
 11 13  1  0
 13 14  1  0
 14 15  2  0
 14 16  2  0
 14 17  1  0
 17 18  2  0
 18 19  1  0
 19 20  2  0
 20 21  1  0
 20 22  1  0
 22 23  2  0
 13 24  1  0
 24 25  1  0
 25 26  1  0
 26 27  1  0
 27 28  1  0
  9  2  1  0
 28 13  1  0
 23 17  1  0
M  END
>  <ref_mols>  (1346) 
B1396a

>  <gnina_score>  (1346) 
5.626

>  <smina_score_min>  (1346) 
-3.825

>  <ref_pdb>  (1346) 
B1396a

>  <inspiration_score>  (1346) 
None

>  <inchikey>  (1346) 
YOXNFHPOUABLPG-UHFFFAOYSA-N

>  <tags>  (1346) 
BulkDock Fragalysis export,openbind_d68ev3c_c2_elabs_scored,openbind_d68ev3c_c2_elabs_scored_4.5plus,openbind_d68ev3c_c2_elabs,openbind_d68ev3c_c2_elabs_scored_5plus,syndirella_product,openbind_d68ev3c_c2_elabs_scored_top80percent,syndirella_placed

>  <smiles>  (1346) 
Cc1cc(Br)cc(C)c1NC(=O)C1(S(=O)(=O)c2ccc(F)cc2)CCCCC1

>  <subsites>  (1346) 
None

>  <rmsd(smina/fragmenstein)>  (1346) 
2.81

>  <alias>  (1346) 
None

>  <energy_score>  (1346) 
-33.051103

>  <HIPPO Pose ID>  (1346) 
95903

>  <distance_score>  (1346) 
0.695695

>  <HIPPO Compound ID>  (1346) 
129869

>  <gnina_score_min>  (1346) 
5.092

>  <name>  (1346) 
P95903

>  <exports>  (1346) 
['/opt/xchem-fragalysis-2/maxwin/BulkDock/OUTPUTS/openbind_d68ev3c_c2_elabs_1LOTQJ3.sdf', '/opt/xchem-fragalysis-2/maxwin/BulkDock/OUTPUTS/openbind_d68ev3c_c2_elabs_1LSYI5W.sdf']

$$$$
P95905
     RDKit          3D

 28 30  0  0  0  0  0  0  0  0999 V2000
   13.8055   -4.0804   17.5804 C   0  0  0  0  0  0  0  0  0  0  0  0
   13.2809   -2.8975   16.8021 C   0  0  0  0  0  0  0  0  0  0  0  0
   12.1435   -3.1024   15.9983 C   0  0  0  0  0  0  0  0  0  0  0  0
   11.6030   -2.0672   15.2496 C   0  0  0  0  0  0  0  0  0  0  0  0
   12.1687   -0.8060   15.3384 C   0  0  0  0  0  0  0  0  0  0  0  0
   11.5712    0.1921   14.6684 F   0  0  0  0  0  0  0  0  0  0  0  0
   13.2932   -0.5598   16.1404 C   0  0  0  0  0  0  0  0  0  0  0  0
   13.7097    1.2807   16.3928 Br  0  0  0  0  0  0  0  0  0  0  0  0
   13.9019   -1.6214   16.8420 C   0  0  0  0  0  0  0  0  0  0  0  0
   15.0712   -1.5097   17.6231 N   0  0  0  0  0  0  0  0  0  0  0  0
   16.2968   -0.5456   17.4854 C   0  0  0  0  0  0  0  0  0  0  0  0
   16.4800    0.3488   16.7502 O   0  0  0  0  0  0  0  0  0  0  0  0
   17.3321   -0.8429   18.6075 C   0  0  0  0  0  0  0  0  0  0  0  0
   18.1803   -2.3646   18.1237 S   0  0  0  0  0  0  0  0  0  0  0  0
   19.3889   -2.4988   18.9171 O   0  0  0  0  0  0  0  0  0  0  0  0
   17.1992   -3.4378   18.1432 O   0  0  0  0  0  0  0  0  0  0  0  0
   18.7001   -2.1574   16.4310 C   0  0  0  0  0  0  0  0  0  0  0  0
   19.9196   -1.5250   16.1614 C   0  0  0  0  0  0  0  0  0  0  0  0
   20.3370   -1.3717   14.8395 C   0  0  0  0  0  0  0  0  0  0  0  0
   19.5495   -1.8700   13.8078 C   0  0  0  0  0  0  0  0  0  0  0  0
   19.9556   -1.7211   12.5409 F   0  0  0  0  0  0  0  0  0  0  0  0
   18.3512   -2.5271   14.0709 C   0  0  0  0  0  0  0  0  0  0  0  0
   17.9227   -2.6834   15.3910 C   0  0  0  0  0  0  0  0  0  0  0  0
   18.3644    0.3216   18.6963 C   0  0  0  0  0  0  0  0  0  0  0  0
   17.7799    1.6124   19.2811 C   0  0  0  0  0  0  0  0  0  0  0  0
   17.1093    1.3817   20.6282 C   0  0  0  0  0  0  0  0  0  0  0  0
   16.0865    0.2558   20.5582 C   0  0  0  0  0  0  0  0  0  0  0  0
   16.7163   -1.0261   20.0175 C   0  0  0  0  0  0  0  0  0  0  0  0
  1  2  1  0
  2  3  2  0
  3  4  1  0
  4  5  2  0
  5  6  1  0
  5  7  1  0
  7  8  1  0
  7  9  2  0
  9 10  1  0
 10 11  1  0
 11 12  2  0
 11 13  1  0
 13 14  1  0
 14 15  2  0
 14 16  2  0
 14 17  1  0
 17 18  2  0
 18 19  1  0
 19 20  2  0
 20 21  1  0
 20 22  1  0
 22 23  2  0
 13 24  1  0
 24 25  1  0
 25 26  1  0
 26 27  1  0
 27 28  1  0
  9  2  1  0
 28 13  1  0
 23 17  1  0
M  END
>  <ref_mols>  (1347) 
B1396a

>  <gnina_score>  (1347) 
5.371

>  <smina_score_min>  (1347) 
-4.176

>  <ref_pdb>  (1347) 
B1396a

>  <inspiration_score>  (1347) 
None

>  <inchikey>  (1347) 
GRUIONVQYQELSJ-UHFFFAOYSA-N

>  <tags>  (1347) 
BulkDock Fragalysis export,openbind_d68ev3c_c2_elabs_scored,openbind_d68ev3c_c2_elabs_scored_4.5plus,openbind_d68ev3c_c2_elabs,openbind_d68ev3c_c2_elabs_scored_5plus,syndirella_product,openbind_d68ev3c_c2_elabs_scored_top80percent,syndirella_placed

>  <smiles>  (1347) 
Cc1ccc(F)c(Br)c1NC(=O)C1(S(=O)(=O)c2ccc(F)cc2)CCCCC1

>  <subsites>  (1347) 
None

>  <rmsd(smina/fragmenstein)>  (1347) 
2.022

>  <alias>  (1347) 
None

>  <energy_score>  (1347) 
-52.512108

>  <HIPPO Pose ID>  (1347) 
95905

>  <distance_score>  (1347) 
0.399626

>  <HIPPO Compound ID>  (1347) 
129871

>  <gnina_score_min>  (1347) 
5.295

>  <name>  (1347) 
P95905

>  <exports>  (1347) 
['/opt/xchem-fragalysis-2/maxwin/BulkDock/OUTPUTS/openbind_d68ev3c_c2_elabs_1LOTQJ3.sdf', '/opt/xchem-fragalysis-2/maxwin/BulkDock/OUTPUTS/openbind_d68ev3c_c2_elabs_1LSYI5W.sdf']

$$$$
P95907
     RDKit          3D

 28 30  0  0  0  0  0  0  0  0999 V2000
   13.9723   -4.1706   17.7031 C   0  0  0  0  0  0  0  0  0  0  0  0
   13.4082   -2.9984   16.9400 C   0  0  0  0  0  0  0  0  0  0  0  0
   12.2437   -3.2191   16.1878 C   0  0  0  0  0  0  0  0  0  0  0  0
   11.6732   -2.1944   15.4551 C   0  0  0  0  0  0  0  0  0  0  0  0
   10.5474   -2.4269   14.7731 F   0  0  0  0  0  0  0  0  0  0  0  0
   12.2163   -0.9252   15.4764 C   0  0  0  0  0  0  0  0  0  0  0  0
   13.3665   -0.6728   16.2353 C   0  0  0  0  0  0  0  0  0  0  0  0
   13.7625    1.0013   16.3853 Cl  0  0  0  0  0  0  0  0  0  0  0  0
   14.0100   -1.7138   16.9432 C   0  0  0  0  0  0  0  0  0  0  0  0
   15.1923   -1.5704   17.6990 N   0  0  0  0  0  0  0  0  0  0  0  0
   16.3641   -0.5382   17.5681 C   0  0  0  0  0  0  0  0  0  0  0  0
   16.4818    0.3914   16.8630 O   0  0  0  0  0  0  0  0  0  0  0  0
   17.4426   -0.8286   18.6574 C   0  0  0  0  0  0  0  0  0  0  0  0
   18.2788   -2.3445   18.1447 S   0  0  0  0  0  0  0  0  0  0  0  0
   17.2974   -3.4177   18.1870 O   0  0  0  0  0  0  0  0  0  0  0  0
   19.5145   -2.4984   18.8877 O   0  0  0  0  0  0  0  0  0  0  0  0
   18.7436   -2.1360   16.4344 C   0  0  0  0  0  0  0  0  0  0  0  0
   17.9254   -2.6459   15.4179 C   0  0  0  0  0  0  0  0  0  0  0  0
   18.3148   -2.4928   14.0852 C   0  0  0  0  0  0  0  0  0  0  0  0
   19.5161   -1.8570   13.7859 C   0  0  0  0  0  0  0  0  0  0  0  0
   19.8839   -1.7106   12.5072 F   0  0  0  0  0  0  0  0  0  0  0  0
   20.3453   -1.3779   14.7934 C   0  0  0  0  0  0  0  0  0  0  0  0
   19.9669   -1.5281   16.1274 C   0  0  0  0  0  0  0  0  0  0  0  0
   16.7890   -0.9933   20.0548 C   0  0  0  0  0  0  0  0  0  0  0  0
   17.7689   -0.9501   21.2270 C   0  0  0  0  0  0  0  0  0  0  0  0
   18.6257    0.3044   21.2085 C   0  0  0  0  0  0  0  0  0  0  0  0
   19.3675    0.4457   19.8898 C   0  0  0  0  0  0  0  0  0  0  0  0
   18.4158    0.3880   18.6971 C   0  0  0  0  0  0  0  0  0  0  0  0
  1  2  1  0
  2  3  2  0
  3  4  1  0
  4  5  1  0
  4  6  2  0
  6  7  1  0
  7  8  1  0
  7  9  2  0
  9 10  1  0
 10 11  1  0
 11 12  2  0
 11 13  1  0
 13 14  1  0
 14 15  2  0
 14 16  2  0
 14 17  1  0
 17 18  2  0
 18 19  1  0
 19 20  2  0
 20 21  1  0
 20 22  1  0
 22 23  2  0
 13 24  1  0
 24 25  1  0
 25 26  1  0
 26 27  1  0
 27 28  1  0
  9  2  1  0
 28 13  1  0
 23 17  1  0
M  END
>  <ref_mols>  (1348) 
B1396a

>  <gnina_score>  (1348) 
5.505

>  <smina_score_min>  (1348) 
-3.915

>  <ref_pdb>  (1348) 
B1396a

>  <inspiration_score>  (1348) 
None

>  <inchikey>  (1348) 
IGDDGJQXWDSCGT-UHFFFAOYSA-N

>  <tags>  (1348) 
BulkDock Fragalysis export,openbind_d68ev3c_c2_elabs_scored,openbind_d68ev3c_c2_elabs_scored_4.5plus,openbind_d68ev3c_c2_elabs,openbind_d68ev3c_c2_elabs_scored_5plus,syndirella_product,openbind_d68ev3c_c2_elabs_scored_top80percent,syndirella_placed

>  <smiles>  (1348) 
Cc1cc(F)cc(Cl)c1NC(=O)C1(S(=O)(=O)c2ccc(F)cc2)CCCCC1

>  <subsites>  (1348) 
None

>  <rmsd(smina/fragmenstein)>  (1348) 
1.571

>  <alias>  (1348) 
None

>  <energy_score>  (1348) 
-33.985479

>  <HIPPO Pose ID>  (1348) 
95907

>  <distance_score>  (1348) 
0.424134

>  <HIPPO Compound ID>  (1348) 
129874

>  <gnina_score_min>  (1348) 
5.404

>  <name>  (1348) 
P95907

>  <exports>  (1348) 
['/opt/xchem-fragalysis-2/maxwin/BulkDock/OUTPUTS/openbind_d68ev3c_c2_elabs_1LOTQJ3.sdf', '/opt/xchem-fragalysis-2/maxwin/BulkDock/OUTPUTS/openbind_d68ev3c_c2_elabs_1LSYI5W.sdf']

$$$$
P95908
     RDKit          3D

 28 30  0  0  0  0  0  0  0  0999 V2000
   13.6874   -3.6639   17.2757 C   0  0  0  0  0  0  0  0  0  0  0  0
   13.4141   -2.3017   16.6775 C   0  0  0  0  0  0  0  0  0  0  0  0
   12.3774   -2.1022   15.7388 C   0  0  0  0  0  0  0  0  0  0  0  0
   11.4280   -3.4813   14.8950 Br  0  0  0  0  0  0  0  0  0  0  0  0
   12.0305   -0.8368   15.2736 C   0  0  0  0  0  0  0  0  0  0  0  0
   12.7587    0.2575   15.6855 C   0  0  0  0  0  0  0  0  0  0  0  0
   13.8590    0.0866   16.5220 C   0  0  0  0  0  0  0  0  0  0  0  0
   14.4775    1.2701   16.8113 O   0  0  0  0  0  0  0  0  0  0  0  0
   14.2193   -1.1831   17.0200 C   0  0  0  0  0  0  0  0  0  0  0  0
   15.3584   -1.3924   17.8251 N   0  0  0  0  0  0  0  0  0  0  0  0
   16.5485   -0.4415   18.1633 C   0  0  0  0  0  0  0  0  0  0  0  0
   16.7227    0.6840   17.8867 O   0  0  0  0  0  0  0  0  0  0  0  0
   17.5576   -1.1615   19.0946 C   0  0  0  0  0  0  0  0  0  0  0  0
   18.2160   -2.6047   18.2349 S   0  0  0  0  0  0  0  0  0  0  0  0
   19.4624   -2.9968   18.8651 O   0  0  0  0  0  0  0  0  0  0  0  0
   17.1369   -3.5746   18.1305 O   0  0  0  0  0  0  0  0  0  0  0  0
   18.6301   -2.1271   16.5674 C   0  0  0  0  0  0  0  0  0  0  0  0
   19.8099   -1.4153   16.3257 C   0  0  0  0  0  0  0  0  0  0  0  0
   20.1778   -1.1216   15.0112 C   0  0  0  0  0  0  0  0  0  0  0  0
   19.3823   -1.5586   13.9569 C   0  0  0  0  0  0  0  0  0  0  0  0
   19.7450   -1.2771   12.6995 F   0  0  0  0  0  0  0  0  0  0  0  0
   18.2198   -2.2863   14.1888 C   0  0  0  0  0  0  0  0  0  0  0  0
   17.8402   -2.5792   15.5003 C   0  0  0  0  0  0  0  0  0  0  0  0
   18.7350   -0.1900   19.4399 C   0  0  0  0  0  0  0  0  0  0  0  0
   18.4150    0.7023   20.6374 C   0  0  0  0  0  0  0  0  0  0  0  0
   18.2117   -0.1186   21.9091 C   0  0  0  0  0  0  0  0  0  0  0  0
   17.7117   -1.5351   21.6347 C   0  0  0  0  0  0  0  0  0  0  0  0
   16.8197   -1.5906   20.3980 C   0  0  0  0  0  0  0  0  0  0  0  0
  1  2  1  0
  2  3  2  0
  3  4  1  0
  3  5  1  0
  5  6  2  0
  6  7  1  0
  7  8  1  0
  7  9  2  0
  9 10  1  0
 10 11  1  0
 11 12  2  0
 11 13  1  0
 13 14  1  0
 14 15  2  0
 14 16  2  0
 14 17  1  0
 17 18  2  0
 18 19  1  0
 19 20  2  0
 20 21  1  0
 20 22  1  0
 22 23  2  0
 13 24  1  0
 24 25  1  0
 25 26  1  0
 26 27  1  0
 27 28  1  0
  9  2  1  0
 28 13  1  0
 23 17  1  0
M  END
>  <ref_mols>  (1349) 
B1396a

>  <gnina_score>  (1349) 
5.296

>  <smina_score_min>  (1349) 
-3.62

>  <ref_pdb>  (1349) 
B1396a

>  <inspiration_score>  (1349) 
None

>  <inchikey>  (1349) 
BPRLDPNROMUOAC-UHFFFAOYSA-N

>  <tags>  (1349) 
BulkDock Fragalysis export,openbind_d68ev3c_c2_elabs_scored,openbind_d68ev3c_c2_elabs_scored_4.5plus,openbind_d68ev3c_c2_elabs,openbind_d68ev3c_c2_elabs_scored_5plus,syndirella_product,openbind_d68ev3c_c2_elabs_scored_top80percent,syndirella_placed

>  <smiles>  (1349) 
Cc1c(Br)ccc(O)c1NC(=O)C1(S(=O)(=O)c2ccc(F)cc2)CCCCC1

>  <subsites>  (1349) 
None

>  <rmsd(smina/fragmenstein)>  (1349) 
2.103

>  <alias>  (1349) 
None

>  <energy_score>  (1349) 
-55.857625

>  <HIPPO Pose ID>  (1349) 
95908

>  <distance_score>  (1349) 
0.940683

>  <HIPPO Compound ID>  (1349) 
129876

>  <gnina_score_min>  (1349) 
5.113

>  <name>  (1349) 
P95908

>  <exports>  (1349) 
['/opt/xchem-fragalysis-2/maxwin/BulkDock/OUTPUTS/openbind_d68ev3c_c2_elabs_1LOTQJ3.sdf', '/opt/xchem-fragalysis-2/maxwin/BulkDock/OUTPUTS/openbind_d68ev3c_c2_elabs_1LSYI5W.sdf']

$$$$
P95909
     RDKit          3D

 28 31  0  0  0  0  0  0  0  0999 V2000
   16.6433    0.6905   16.3255 O   0  0  0  0  0  0  0  0  0  0  0  0
   16.5694   -0.1855   17.0993 C   0  0  0  0  0  0  0  0  0  0  0  0
   15.4972   -1.3086   17.2548 N   0  0  0  0  0  0  0  0  0  0  0  0
   14.2941   -1.5153   16.5736 C   0  0  0  0  0  0  0  0  0  0  0  0
   13.8587   -0.6441   15.5747 C   0  0  0  0  0  0  0  0  0  0  0  0
   12.6568   -0.8852   14.9044 C   0  0  0  0  0  0  0  0  0  0  0  0
   11.8945   -2.0049   15.2162 C   0  0  0  0  0  0  0  0  0  0  0  0
   12.3267   -2.8716   16.2192 C   0  0  0  0  0  0  0  0  0  0  0  0
   13.5201   -2.6402   16.9328 C   0  0  0  0  0  0  0  0  0  0  0  0
   13.9207   -3.5061   18.1029 C   0  0  0  0  0  0  0  0  0  0  0  0
   13.6208   -4.9663   18.1378 C   0  0  0  0  0  0  0  0  0  0  0  0
   15.0319   -4.5240   17.9765 C   0  0  0  0  0  0  0  0  0  0  0  0
   17.6195   -0.3426   18.2404 C   0  0  0  0  0  0  0  0  0  0  0  0
   18.4863   -1.9237   17.9848 S   0  0  0  0  0  0  0  0  0  0  0  0
   17.5315   -3.0032   18.1634 O   0  0  0  0  0  0  0  0  0  0  0  0
   19.7047   -1.9392   18.7726 O   0  0  0  0  0  0  0  0  0  0  0  0
   18.9713   -1.9400   16.2724 C   0  0  0  0  0  0  0  0  0  0  0  0
   18.2018   -2.6371   15.3313 C   0  0  0  0  0  0  0  0  0  0  0  0
   18.5933   -2.6311   13.9916 C   0  0  0  0  0  0  0  0  0  0  0  0
   19.7465   -1.9501   13.6147 C   0  0  0  0  0  0  0  0  0  0  0  0
   20.1190   -1.9457   12.3289 F   0  0  0  0  0  0  0  0  0  0  0  0
   20.5259   -1.2813   14.5522 C   0  0  0  0  0  0  0  0  0  0  0  0
   20.1463   -1.2835   15.8932 C   0  0  0  0  0  0  0  0  0  0  0  0
   16.9005   -0.3421   19.6209 C   0  0  0  0  0  0  0  0  0  0  0  0
   17.7241    0.3173   20.7232 C   0  0  0  0  0  0  0  0  0  0  0  0
   18.0137    1.7841   20.4133 C   0  0  0  0  0  0  0  0  0  0  0  0
   18.1736    2.0617   18.9200 C   0  0  0  0  0  0  0  0  0  0  0  0
   18.6540    0.8236   18.1669 C   0  0  0  0  0  0  0  0  0  0  0  0
  1  2  2  0
  2  3  1  0
  3  4  1  0
  4  5  2  0
  5  6  1  0
  6  7  2  0
  7  8  1  0
  8  9  2  0
  9 10  1  0
 10 11  1  0
 11 12  1  0
  2 13  1  0
 13 14  1  0
 14 15  2  0
 14 16  2  0
 14 17  1  0
 17 18  2  0
 18 19  1  0
 19 20  2  0
 20 21  1  0
 20 22  1  0
 22 23  2  0
 13 24  1  0
 24 25  1  0
 25 26  1  0
 26 27  1  0
 27 28  1  0
  9  4  1  0
 12 10  1  0
 28 13  1  0
 23 17  1  0
M  END
>  <ref_mols>  (1350) 
B1396a

>  <gnina_score>  (1350) 
5.343

>  <smina_score_min>  (1350) 
-3.753

>  <ref_pdb>  (1350) 
B1396a

>  <inspiration_score>  (1350) 
None

>  <inchikey>  (1350) 
VYNJSXFUPONWSH-UHFFFAOYSA-N

>  <tags>  (1350) 
BulkDock Fragalysis export,openbind_d68ev3c_c2_elabs_scored,openbind_d68ev3c_c2_elabs_scored_4.5plus,openbind_d68ev3c_c2_elabs,openbind_d68ev3c_c2_elabs_scored_5plus,syndirella_product,openbind_d68ev3c_c2_elabs_scored_top80percent,syndirella_placed

>  <smiles>  (1350) 
O=C(Nc1ccccc1C1CC1)C1(S(=O)(=O)c2ccc(F)cc2)CCCCC1

>  <subsites>  (1350) 
None

>  <rmsd(smina/fragmenstein)>  (1350) 
2.285

>  <alias>  (1350) 
None

>  <energy_score>  (1350) 
-62.312045

>  <HIPPO Pose ID>  (1350) 
95909

>  <distance_score>  (1350) 
0.718151

>  <HIPPO Compound ID>  (1350) 
129877

>  <gnina_score_min>  (1350) 
5.158

>  <name>  (1350) 
P95909

>  <exports>  (1350) 
['/opt/xchem-fragalysis-2/maxwin/BulkDock/OUTPUTS/openbind_d68ev3c_c2_elabs_1LOTQJ3.sdf', '/opt/xchem-fragalysis-2/maxwin/BulkDock/OUTPUTS/openbind_d68ev3c_c2_elabs_1LSYI5W.sdf']

$$$$
P95910
     RDKit          3D

 28 30  0  0  0  0  0  0  0  0999 V2000
   11.8850    0.0912   14.4736 C   0  0  0  0  0  0  0  0  0  0  0  0
   12.4096   -1.0013   15.3542 C   0  0  0  0  0  0  0  0  0  0  0  0
   13.6086   -0.8517   16.0668 C   0  0  0  0  0  0  0  0  0  0  0  0
   14.1014   -1.8862   16.8756 C   0  0  0  0  0  0  0  0  0  0  0  0
   15.2651   -1.7087   17.6254 N   0  0  0  0  0  0  0  0  0  0  0  0
   16.2754   -0.5163   17.6639 C   0  0  0  0  0  0  0  0  0  0  0  0
   16.2395    0.5265   17.1296 O   0  0  0  0  0  0  0  0  0  0  0  0
   17.4125   -0.8413   18.6753 C   0  0  0  0  0  0  0  0  0  0  0  0
   18.2780   -2.3321   18.1227 S   0  0  0  0  0  0  0  0  0  0  0  0
   19.5232   -2.4535   18.8590 O   0  0  0  0  0  0  0  0  0  0  0  0
   17.3342   -3.4382   18.1569 O   0  0  0  0  0  0  0  0  0  0  0  0
   18.7174   -2.0698   16.4164 C   0  0  0  0  0  0  0  0  0  0  0  0
   17.9371   -2.6330   15.3983 C   0  0  0  0  0  0  0  0  0  0  0  0
   18.3187   -2.4560   14.0666 C   0  0  0  0  0  0  0  0  0  0  0  0
   19.4744   -1.7396   13.7701 C   0  0  0  0  0  0  0  0  0  0  0  0
   19.8359   -1.5701   12.4924 F   0  0  0  0  0  0  0  0  0  0  0  0
   20.2645   -1.2008   14.7795 C   0  0  0  0  0  0  0  0  0  0  0  0
   19.8934   -1.3739   16.1128 C   0  0  0  0  0  0  0  0  0  0  0  0
   16.7844   -1.0771   20.0811 C   0  0  0  0  0  0  0  0  0  0  0  0
   17.6731   -0.5920   21.2228 C   0  0  0  0  0  0  0  0  0  0  0  0
   17.9340    0.9100   21.1409 C   0  0  0  0  0  0  0  0  0  0  0  0
   17.9882    1.4334   19.7073 C   0  0  0  0  0  0  0  0  0  0  0  0
   18.4247    0.3468   18.7272 C   0  0  0  0  0  0  0  0  0  0  0  0
   13.4064   -3.1049   16.9534 C   0  0  0  0  0  0  0  0  0  0  0  0
   13.8877   -4.2595   17.7867 C   0  0  0  0  0  0  0  0  0  0  0  0
   12.2172   -3.2511   16.2275 C   0  0  0  0  0  0  0  0  0  0  0  0
   11.7318   -2.2126   15.4443 C   0  0  0  0  0  0  0  0  0  0  0  0
   10.5782   -2.3898   14.7896 F   0  0  0  0  0  0  0  0  0  0  0  0
  1  2  1  0
  2  3  2  0
  3  4  1  0
  4  5  1  0
  5  6  1  0
  6  7  2  0
  6  8  1  0
  8  9  1  0
  9 10  2  0
  9 11  2  0
  9 12  1  0
 12 13  2  0
 13 14  1  0
 14 15  2  0
 15 16  1  0
 15 17  1  0
 17 18  2  0
  8 19  1  0
 19 20  1  0
 20 21  1  0
 21 22  1  0
 22 23  1  0
  4 24  2  0
 24 25  1  0
 24 26  1  0
 26 27  2  0
 27 28  1  0
 27  2  1  0
 23  8  1  0
 18 12  1  0
M  END
>  <ref_mols>  (1351) 
B1396a

>  <gnina_score>  (1351) 
5.375

>  <smina_score_min>  (1351) 
-3.98

>  <ref_pdb>  (1351) 
B1396a

>  <inspiration_score>  (1351) 
None

>  <inchikey>  (1351) 
KIKCBLPHUOZHFR-UHFFFAOYSA-N

>  <tags>  (1351) 
BulkDock Fragalysis export,openbind_d68ev3c_c2_elabs_scored,openbind_d68ev3c_c2_elabs_scored_4.5plus,openbind_d68ev3c_c2_elabs,openbind_d68ev3c_c2_elabs_scored_5plus,syndirella_product,openbind_d68ev3c_c2_elabs_scored_top80percent,syndirella_placed

>  <smiles>  (1351) 
Cc1cc(NC(=O)C2(S(=O)(=O)c3ccc(F)cc3)CCCCC2)c(C)cc1F

>  <subsites>  (1351) 
None

>  <rmsd(smina/fragmenstein)>  (1351) 
1.432

>  <alias>  (1351) 
None

>  <energy_score>  (1351) 
-44.807646

>  <HIPPO Pose ID>  (1351) 
95910

>  <distance_score>  (1351) 
0.459865

>  <HIPPO Compound ID>  (1351) 
129879

>  <gnina_score_min>  (1351) 
5.248

>  <name>  (1351) 
P95910

>  <exports>  (1351) 
['/opt/xchem-fragalysis-2/maxwin/BulkDock/OUTPUTS/openbind_d68ev3c_c2_elabs_1LOTQJ3.sdf', '/opt/xchem-fragalysis-2/maxwin/BulkDock/OUTPUTS/openbind_d68ev3c_c2_elabs_1LSYI5W.sdf']

$$$$
P95911
     RDKit          3D

 28 30  0  0  0  0  0  0  0  0999 V2000
   14.2849    1.1463   14.8990 C   0  0  0  0  0  0  0  0  0  0  0  0
   13.8875    0.6106   16.1629 O   0  0  0  0  0  0  0  0  0  0  0  0
   13.3859   -0.6587   16.0512 C   0  0  0  0  0  0  0  0  0  0  0  0
   12.1967   -0.8365   15.3279 C   0  0  0  0  0  0  0  0  0  0  0  0
   11.5684   -2.0735   15.2978 C   0  0  0  0  0  0  0  0  0  0  0  0
   12.1031   -3.1264   16.0307 C   0  0  0  0  0  0  0  0  0  0  0  0
   13.2794   -2.9661   16.7855 C   0  0  0  0  0  0  0  0  0  0  0  0
   13.7820   -4.1500   17.5725 C   0  0  0  0  0  0  0  0  0  0  0  0
   13.9516   -1.7222   16.7782 C   0  0  0  0  0  0  0  0  0  0  0  0
   15.1505   -1.6328   17.5111 N   0  0  0  0  0  0  0  0  0  0  0  0
   16.2739   -0.5392   17.4948 C   0  0  0  0  0  0  0  0  0  0  0  0
   16.4031    0.4070   16.8135 O   0  0  0  0  0  0  0  0  0  0  0  0
   17.2989   -0.8439   18.6207 C   0  0  0  0  0  0  0  0  0  0  0  0
   18.1817   -2.3513   18.1387 S   0  0  0  0  0  0  0  0  0  0  0  0
   17.2285   -3.4499   18.1421 O   0  0  0  0  0  0  0  0  0  0  0  0
   19.3906   -2.4693   18.9340 O   0  0  0  0  0  0  0  0  0  0  0  0
   18.7027   -2.1195   16.4486 C   0  0  0  0  0  0  0  0  0  0  0  0
   19.8886   -1.4242   16.1859 C   0  0  0  0  0  0  0  0  0  0  0  0
   20.3092   -1.2592   14.8661 C   0  0  0  0  0  0  0  0  0  0  0  0
   19.5585   -1.8056   13.8308 C   0  0  0  0  0  0  0  0  0  0  0  0
   19.9683   -1.6440   12.5665 F   0  0  0  0  0  0  0  0  0  0  0  0
   18.3936   -2.5220   14.0876 C   0  0  0  0  0  0  0  0  0  0  0  0
   17.9619   -2.6902   15.4050 C   0  0  0  0  0  0  0  0  0  0  0  0
   16.5660   -1.0487   19.9782 C   0  0  0  0  0  0  0  0  0  0  0  0
   17.3596   -0.5287   21.1734 C   0  0  0  0  0  0  0  0  0  0  0  0
   17.6169    0.9729   21.0708 C   0  0  0  0  0  0  0  0  0  0  0  0
   17.8058    1.4514   19.6327 C   0  0  0  0  0  0  0  0  0  0  0  0
   18.3218    0.3315   18.7326 C   0  0  0  0  0  0  0  0  0  0  0  0
  1  2  1  0
  2  3  1  0
  3  4  2  0
  4  5  1  0
  5  6  2  0
  6  7  1  0
  7  8  1  0
  7  9  2  0
  9 10  1  0
 10 11  1  0
 11 12  2  0
 11 13  1  0
 13 14  1  0
 14 15  2  0
 14 16  2  0
 14 17  1  0
 17 18  2  0
 18 19  1  0
 19 20  2  0
 20 21  1  0
 20 22  1  0
 22 23  2  0
 13 24  1  0
 24 25  1  0
 25 26  1  0
 26 27  1  0
 27 28  1  0
  9  3  1  0
 28 13  1  0
 23 17  1  0
M  END
>  <ref_mols>  (1352) 
B1396a

>  <gnina_score>  (1352) 
5.158

>  <smina_score_min>  (1352) 
-3.95

>  <ref_pdb>  (1352) 
B1396a

>  <inspiration_score>  (1352) 
None

>  <inchikey>  (1352) 
VHYFUMCZPLPBCT-UHFFFAOYSA-N

>  <tags>  (1352) 
BulkDock Fragalysis export,openbind_d68ev3c_c2_elabs_scored,openbind_d68ev3c_c2_elabs_scored_4.5plus,openbind_d68ev3c_c2_elabs,openbind_d68ev3c_c2_elabs_scored_5plus,syndirella_product,openbind_d68ev3c_c2_elabs_scored_top80percent,syndirella_placed

>  <smiles>  (1352) 
COc1cccc(C)c1NC(=O)C1(S(=O)(=O)c2ccc(F)cc2)CCCCC1

>  <subsites>  (1352) 
None

>  <rmsd(smina/fragmenstein)>  (1352) 
2.234

>  <alias>  (1352) 
None

>  <energy_score>  (1352) 
-38.469197

>  <HIPPO Pose ID>  (1352) 
95911

>  <distance_score>  (1352) 
0.39055

>  <HIPPO Compound ID>  (1352) 
129880

>  <gnina_score_min>  (1352) 
5.046

>  <name>  (1352) 
P95911

>  <exports>  (1352) 
['/opt/xchem-fragalysis-2/maxwin/BulkDock/OUTPUTS/openbind_d68ev3c_c2_elabs_1LOTQJ3.sdf', '/opt/xchem-fragalysis-2/maxwin/BulkDock/OUTPUTS/openbind_d68ev3c_c2_elabs_1LSYI5W.sdf']

$$$$
P95913
     RDKit          3D

 28 30  0  0  0  0  0  0  0  0999 V2000
   13.9282   -4.1561   17.6933 C   0  0  0  0  0  0  0  0  0  0  0  0
   13.4804   -2.9445   16.9258 C   0  0  0  0  0  0  0  0  0  0  0  0
   14.2109   -1.7461   16.9012 C   0  0  0  0  0  0  0  0  0  0  0  0
   15.4100   -1.6557   17.6058 N   0  0  0  0  0  0  0  0  0  0  0  0
   16.4607   -0.4994   17.6771 C   0  0  0  0  0  0  0  0  0  0  0  0
   16.5122    0.5162   17.0941 O   0  0  0  0  0  0  0  0  0  0  0  0
   17.5299   -0.8531   18.7496 C   0  0  0  0  0  0  0  0  0  0  0  0
   18.3850   -2.3436   18.1656 S   0  0  0  0  0  0  0  0  0  0  0  0
   19.6363   -2.5013   18.8800 O   0  0  0  0  0  0  0  0  0  0  0  0
   17.4202   -3.4337   18.1904 O   0  0  0  0  0  0  0  0  0  0  0  0
   18.8101   -2.0810   16.4526 C   0  0  0  0  0  0  0  0  0  0  0  0
   18.0149   -2.6374   15.4409 C   0  0  0  0  0  0  0  0  0  0  0  0
   18.3823   -2.4623   14.1050 C   0  0  0  0  0  0  0  0  0  0  0  0
   19.5403   -1.7557   13.7967 C   0  0  0  0  0  0  0  0  0  0  0  0
   19.8893   -1.5880   12.5153 F   0  0  0  0  0  0  0  0  0  0  0  0
   20.3476   -1.2279   14.7984 C   0  0  0  0  0  0  0  0  0  0  0  0
   19.9913   -1.4010   16.1360 C   0  0  0  0  0  0  0  0  0  0  0  0
   16.8313   -1.1213   20.1174 C   0  0  0  0  0  0  0  0  0  0  0  0
   17.4176   -0.3537   21.3048 C   0  0  0  0  0  0  0  0  0  0  0  0
   18.9350   -0.3843   21.2925 C   0  0  0  0  0  0  0  0  0  0  0  0
   19.5014    0.2761   20.0412 C   0  0  0  0  0  0  0  0  0  0  0  0
   18.5114    0.3436   18.8765 C   0  0  0  0  0  0  0  0  0  0  0  0
   13.7345   -0.6474   16.1704 C   0  0  0  0  0  0  0  0  0  0  0  0
   12.5285   -0.7238   15.4704 C   0  0  0  0  0  0  0  0  0  0  0  0
   11.8095   -1.9056   15.4933 C   0  0  0  0  0  0  0  0  0  0  0  0
   10.6402   -1.9824   14.8483 F   0  0  0  0  0  0  0  0  0  0  0  0
   12.2858   -2.9994   16.2025 C   0  0  0  0  0  0  0  0  0  0  0  0
   11.5722   -4.1277   16.2014 F   0  0  0  0  0  0  0  0  0  0  0  0
  1  2  1  0
  2  3  2  0
  3  4  1  0
  4  5  1  0
  5  6  2  0
  5  7  1  0
  7  8  1  0
  8  9  2  0
  8 10  2  0
  8 11  1  0
 11 12  2  0
 12 13  1  0
 13 14  2  0
 14 15  1  0
 14 16  1  0
 16 17  2  0
  7 18  1  0
 18 19  1  0
 19 20  1  0
 20 21  1  0
 21 22  1  0
  3 23  1  0
 23 24  2  0
 24 25  1  0
 25 26  1  0
 25 27  2  0
 27 28  1  0
 27  2  1  0
 22  7  1  0
 17 11  1  0
M  END
>  <ref_mols>  (1353) 
B1396a

>  <gnina_score>  (1353) 
5.375

>  <smina_score_min>  (1353) 
-4.246

>  <ref_pdb>  (1353) 
B1396a

>  <inspiration_score>  (1353) 
None

>  <inchikey>  (1353) 
DUZGQCKZKMTJNL-UHFFFAOYSA-N

>  <tags>  (1353) 
BulkDock Fragalysis export,openbind_d68ev3c_c2_elabs_scored,openbind_d68ev3c_c2_elabs_scored_4.5plus,openbind_d68ev3c_c2_elabs,openbind_d68ev3c_c2_elabs_scored_5plus,syndirella_product,openbind_d68ev3c_c2_elabs_scored_top80percent,syndirella_placed

>  <smiles>  (1353) 
Cc1c(NC(=O)C2(S(=O)(=O)c3ccc(F)cc3)CCCCC2)ccc(F)c1F

>  <subsites>  (1353) 
None

>  <rmsd(smina/fragmenstein)>  (1353) 
3.264

>  <alias>  (1353) 
None

>  <energy_score>  (1353) 
-33.083009

>  <HIPPO Pose ID>  (1353) 
95913

>  <distance_score>  (1353) 
0.516949

>  <HIPPO Compound ID>  (1353) 
129882

>  <gnina_score_min>  (1353) 
5.009

>  <name>  (1353) 
P95913

>  <exports>  (1353) 
['/opt/xchem-fragalysis-2/maxwin/BulkDock/OUTPUTS/openbind_d68ev3c_c2_elabs_1LOTQJ3.sdf', '/opt/xchem-fragalysis-2/maxwin/BulkDock/OUTPUTS/openbind_d68ev3c_c2_elabs_1LSYI5W.sdf']

$$$$
P95914
     RDKit          3D

 28 30  0  0  0  0  0  0  0  0999 V2000
   13.5244   -5.2599   17.3543 O   0  0  0  0  0  0  0  0  0  0  0  0
   13.8138   -4.1241   17.7049 C   0  0  0  0  0  0  0  0  0  0  0  0
   13.3647   -2.9514   16.9252 C   0  0  0  0  0  0  0  0  0  0  0  0
   12.2203   -3.1228   16.1217 C   0  0  0  0  0  0  0  0  0  0  0  0
   11.7168   -2.0712   15.3625 C   0  0  0  0  0  0  0  0  0  0  0  0
   12.3536   -0.8393   15.4159 C   0  0  0  0  0  0  0  0  0  0  0  0
   13.4975   -0.6716   16.2024 C   0  0  0  0  0  0  0  0  0  0  0  0
   14.0212    0.5584   16.2389 F   0  0  0  0  0  0  0  0  0  0  0  0
   14.0444   -1.7209   16.9564 C   0  0  0  0  0  0  0  0  0  0  0  0
   15.2307   -1.5683   17.7035 N   0  0  0  0  0  0  0  0  0  0  0  0
   16.3167   -0.4399   17.6674 C   0  0  0  0  0  0  0  0  0  0  0  0
   16.3456    0.5667   17.0673 O   0  0  0  0  0  0  0  0  0  0  0  0
   17.4381   -0.7690   18.7024 C   0  0  0  0  0  0  0  0  0  0  0  0
   18.2479   -2.2876   18.1497 S   0  0  0  0  0  0  0  0  0  0  0  0
   19.4864   -2.4792   18.8778 O   0  0  0  0  0  0  0  0  0  0  0  0
   17.2414   -3.3398   18.1830 O   0  0  0  0  0  0  0  0  0  0  0  0
   18.7010   -2.0620   16.4396 C   0  0  0  0  0  0  0  0  0  0  0  0
   19.9172   -1.4404   16.1314 C   0  0  0  0  0  0  0  0  0  0  0  0
   20.2977   -1.2940   14.7975 C   0  0  0  0  0  0  0  0  0  0  0  0
   19.4787   -1.7917   13.7906 C   0  0  0  0  0  0  0  0  0  0  0  0
   19.8488   -1.6493   12.5121 F   0  0  0  0  0  0  0  0  0  0  0  0
   18.2861   -2.4428   14.0909 C   0  0  0  0  0  0  0  0  0  0  0  0
   17.8945   -2.5913   15.4235 C   0  0  0  0  0  0  0  0  0  0  0  0
   18.4229    0.4348   18.7535 C   0  0  0  0  0  0  0  0  0  0  0  0
   19.3997    0.4456   19.9275 C   0  0  0  0  0  0  0  0  0  0  0  0
   18.6834    0.2746   21.2578 C   0  0  0  0  0  0  0  0  0  0  0  0
   17.8037   -0.9651   21.2607 C   0  0  0  0  0  0  0  0  0  0  0  0
   16.8028   -0.9598   20.1060 C   0  0  0  0  0  0  0  0  0  0  0  0
  1  2  2  0
  2  3  1  0
  3  4  2  0
  4  5  1  0
  5  6  2  0
  6  7  1  0
  7  8  1  0
  7  9  2  0
  9 10  1  0
 10 11  1  0
 11 12  2  0
 11 13  1  0
 13 14  1  0
 14 15  2  0
 14 16  2  0
 14 17  1  0
 17 18  2  0
 18 19  1  0
 19 20  2  0
 20 21  1  0
 20 22  1  0
 22 23  2  0
 13 24  1  0
 24 25  1  0
 25 26  1  0
 26 27  1  0
 27 28  1  0
  9  3  1  0
 28 13  1  0
 23 17  1  0
M  END
>  <ref_mols>  (1354) 
B1396a

>  <gnina_score>  (1354) 
5.405

>  <smina_score_min>  (1354) 
-3.735

>  <ref_pdb>  (1354) 
B1396a

>  <inspiration_score>  (1354) 
None

>  <inchikey>  (1354) 
PMFUYMSNPNEWRB-UHFFFAOYSA-N

>  <tags>  (1354) 
BulkDock Fragalysis export,openbind_d68ev3c_c2_elabs_scored,openbind_d68ev3c_c2_elabs_scored_4.5plus,openbind_d68ev3c_c2_elabs,openbind_d68ev3c_c2_elabs_scored_5plus,syndirella_product,openbind_d68ev3c_c2_elabs_scored_top80percent,syndirella_placed

>  <smiles>  (1354) 
O=Cc1cccc(F)c1NC(=O)C1(S(=O)(=O)c2ccc(F)cc2)CCCCC1

>  <subsites>  (1354) 
None

>  <rmsd(smina/fragmenstein)>  (1354) 
1.838

>  <alias>  (1354) 
None

>  <energy_score>  (1354) 
-49.769997

>  <HIPPO Pose ID>  (1354) 
95914

>  <distance_score>  (1354) 
0.479732

>  <HIPPO Compound ID>  (1354) 
129883

>  <gnina_score_min>  (1354) 
5.0

>  <name>  (1354) 
P95914

>  <exports>  (1354) 
['/opt/xchem-fragalysis-2/maxwin/BulkDock/OUTPUTS/openbind_d68ev3c_c2_elabs_1LOTQJ3.sdf', '/opt/xchem-fragalysis-2/maxwin/BulkDock/OUTPUTS/openbind_d68ev3c_c2_elabs_1LSYI5W.sdf']

$$$$
P95915
     RDKit          3D

 28 30  0  0  0  0  0  0  0  0999 V2000
   13.8668   -4.0684   17.5647 C   0  0  0  0  0  0  0  0  0  0  0  0
   13.5094   -2.7568   16.9230 C   0  0  0  0  0  0  0  0  0  0  0  0
   14.3270   -1.6188   17.0216 C   0  0  0  0  0  0  0  0  0  0  0  0
   15.4955   -1.6358   17.7835 N   0  0  0  0  0  0  0  0  0  0  0  0
   16.6332   -0.5702   17.9218 C   0  0  0  0  0  0  0  0  0  0  0  0
   16.7189    0.5110   17.4762 O   0  0  0  0  0  0  0  0  0  0  0  0
   17.7204   -1.0928   18.9001 C   0  0  0  0  0  0  0  0  0  0  0  0
   18.4474   -2.5679   18.1621 S   0  0  0  0  0  0  0  0  0  0  0  0
   17.4127   -3.5911   18.1425 O   0  0  0  0  0  0  0  0  0  0  0  0
   19.7098   -2.8485   18.8183 O   0  0  0  0  0  0  0  0  0  0  0  0
   18.8248   -2.1807   16.4644 C   0  0  0  0  0  0  0  0  0  0  0  0
   18.0286   -2.7057   15.4368 C   0  0  0  0  0  0  0  0  0  0  0  0
   18.3599   -2.4381   14.1072 C   0  0  0  0  0  0  0  0  0  0  0  0
   19.4804   -1.6650   13.8201 C   0  0  0  0  0  0  0  0  0  0  0  0
   19.7948   -1.4075   12.5447 F   0  0  0  0  0  0  0  0  0  0  0  0
   20.2837   -1.1589   14.8365 C   0  0  0  0  0  0  0  0  0  0  0  0
   19.9640   -1.4250   16.1684 C   0  0  0  0  0  0  0  0  0  0  0  0
   17.1087   -1.4524   20.2742 C   0  0  0  0  0  0  0  0  0  0  0  0
   16.4378   -0.2610   20.9635 C   0  0  0  0  0  0  0  0  0  0  0  0
   17.1381    1.0706   20.7047 C   0  0  0  0  0  0  0  0  0  0  0  0
   18.6052    0.8833   20.3561 C   0  0  0  0  0  0  0  0  0  0  0  0
   18.8255   -0.0111   19.1271 C   0  0  0  0  0  0  0  0  0  0  0  0
   13.9332   -0.4187   16.4166 C   0  0  0  0  0  0  0  0  0  0  0  0
   12.6968   -0.3057   15.7888 C   0  0  0  0  0  0  0  0  0  0  0  0
   11.8547   -1.4049   15.7475 C   0  0  0  0  0  0  0  0  0  0  0  0
   10.0868   -1.1335   15.1585 Br  0  0  0  0  0  0  0  0  0  0  0  0
   12.2810   -2.6303   16.2578 C   0  0  0  0  0  0  0  0  0  0  0  0
   11.4782   -3.6978   16.1673 F   0  0  0  0  0  0  0  0  0  0  0  0
  1  2  1  0
  2  3  2  0
  3  4  1  0
  4  5  1  0
  5  6  2  0
  5  7  1  0
  7  8  1  0
  8  9  2  0
  8 10  2  0
  8 11  1  0
 11 12  2  0
 12 13  1  0
 13 14  2  0
 14 15  1  0
 14 16  1  0
 16 17  2  0
  7 18  1  0
 18 19  1  0
 19 20  1  0
 20 21  1  0
 21 22  1  0
  3 23  1  0
 23 24  2  0
 24 25  1  0
 25 26  1  0
 25 27  2  0
 27 28  1  0
 27  2  1  0
 22  7  1  0
 17 11  1  0
M  END
>  <ref_mols>  (1355) 
B1396a

>  <gnina_score>  (1355) 
5.6

>  <smina_score_min>  (1355) 
-4.176

>  <ref_pdb>  (1355) 
B1396a

>  <inspiration_score>  (1355) 
None

>  <inchikey>  (1355) 
XIVYMCBXNWDSRG-UHFFFAOYSA-N

>  <tags>  (1355) 
BulkDock Fragalysis export,openbind_d68ev3c_c2_elabs_scored,openbind_d68ev3c_c2_elabs_scored_4.5plus,openbind_d68ev3c_c2_elabs,openbind_d68ev3c_c2_elabs_scored_5plus,syndirella_product,openbind_d68ev3c_c2_elabs_scored_top80percent,syndirella_placed

>  <smiles>  (1355) 
Cc1c(NC(=O)C2(S(=O)(=O)c3ccc(F)cc3)CCCCC2)ccc(Br)c1F

>  <subsites>  (1355) 
None

>  <rmsd(smina/fragmenstein)>  (1355) 
3.362

>  <alias>  (1355) 
None

>  <energy_score>  (1355) 
-44.744678

>  <HIPPO Pose ID>  (1355) 
95915

>  <distance_score>  (1355) 
0.689175

>  <HIPPO Compound ID>  (1355) 
129884

>  <gnina_score_min>  (1355) 
5.136

>  <name>  (1355) 
P95915

>  <exports>  (1355) 
['/opt/xchem-fragalysis-2/maxwin/BulkDock/OUTPUTS/openbind_d68ev3c_c2_elabs_1LOTQJ3.sdf', '/opt/xchem-fragalysis-2/maxwin/BulkDock/OUTPUTS/openbind_d68ev3c_c2_elabs_1LSYI5W.sdf']

$$$$
P95916
     RDKit          3D

 28 30  0  0  0  0  0  0  0  0999 V2000
   14.3147   -5.1153   18.0892 N   0  0  0  0  0  0  0  0  0  0  0  0
   13.9385   -4.1356   17.5992 C   0  0  0  0  0  0  0  0  0  0  0  0
   13.5224   -2.9150   16.9777 C   0  0  0  0  0  0  0  0  0  0  0  0
   12.3025   -2.8979   16.2875 C   0  0  0  0  0  0  0  0  0  0  0  0
   11.8504   -1.7107   15.7188 C   0  0  0  0  0  0  0  0  0  0  0  0
   10.2792   -1.6109   15.0551 Cl  0  0  0  0  0  0  0  0  0  0  0  0
   12.6273   -0.5619   15.7619 C   0  0  0  0  0  0  0  0  0  0  0  0
   13.8509   -0.5820   16.4274 C   0  0  0  0  0  0  0  0  0  0  0  0
   14.2991   -1.7453   17.0627 C   0  0  0  0  0  0  0  0  0  0  0  0
   15.4783   -1.6972   17.8168 N   0  0  0  0  0  0  0  0  0  0  0  0
   16.5568   -0.5688   17.9458 C   0  0  0  0  0  0  0  0  0  0  0  0
   16.5778    0.5158   17.5003 O   0  0  0  0  0  0  0  0  0  0  0  0
   17.6830   -1.0303   18.9152 C   0  0  0  0  0  0  0  0  0  0  0  0
   18.4800   -2.4702   18.1734 S   0  0  0  0  0  0  0  0  0  0  0  0
   17.4954   -3.5403   18.1815 O   0  0  0  0  0  0  0  0  0  0  0  0
   19.7658   -2.6724   18.8122 O   0  0  0  0  0  0  0  0  0  0  0  0
   18.8138   -2.1081   16.4581 C   0  0  0  0  0  0  0  0  0  0  0  0
   19.9911   -1.4363   16.1105 C   0  0  0  0  0  0  0  0  0  0  0  0
   20.2836   -1.2071   14.7655 C   0  0  0  0  0  0  0  0  0  0  0  0
   19.4186   -1.6756   13.7834 C   0  0  0  0  0  0  0  0  0  0  0  0
   19.7050   -1.4541   12.4948 F   0  0  0  0  0  0  0  0  0  0  0  0
   18.2661   -2.3789   14.1183 C   0  0  0  0  0  0  0  0  0  0  0  0
   17.9625   -2.6079   15.4622 C   0  0  0  0  0  0  0  0  0  0  0  0
   17.0892   -1.4391   20.3002 C   0  0  0  0  0  0  0  0  0  0  0  0
   16.9826   -0.2567   21.2593 C   0  0  0  0  0  0  0  0  0  0  0  0
   18.3558    0.3129   21.6057 C   0  0  0  0  0  0  0  0  0  0  0  0
   19.3803    0.1152   20.4913 C   0  0  0  0  0  0  0  0  0  0  0  0
   18.7180    0.1256   19.1145 C   0  0  0  0  0  0  0  0  0  0  0  0
  1  2  3  0
  2  3  1  0
  3  4  2  0
  4  5  1  0
  5  6  1  0
  5  7  2  0
  7  8  1  0
  8  9  2  0
  9 10  1  0
 10 11  1  0
 11 12  2  0
 11 13  1  0
 13 14  1  0
 14 15  2  0
 14 16  2  0
 14 17  1  0
 17 18  2  0
 18 19  1  0
 19 20  2  0
 20 21  1  0
 20 22  1  0
 22 23  2  0
 13 24  1  0
 24 25  1  0
 25 26  1  0
 26 27  1  0
 27 28  1  0
  9  3  1  0
 28 13  1  0
 23 17  1  0
M  END
>  <ref_mols>  (1356) 
B1396a

>  <gnina_score>  (1356) 
5.66

>  <smina_score_min>  (1356) 
-3.153

>  <ref_pdb>  (1356) 
B1396a

>  <inspiration_score>  (1356) 
None

>  <inchikey>  (1356) 
LUWIIDOARHLDAG-UHFFFAOYSA-N

>  <tags>  (1356) 
BulkDock Fragalysis export,openbind_d68ev3c_c2_elabs_scored,openbind_d68ev3c_c2_elabs_scored_4.5plus,openbind_d68ev3c_c2_elabs,openbind_d68ev3c_c2_elabs_scored_5plus,syndirella_product,openbind_d68ev3c_c2_elabs_scored_top80percent,syndirella_placed

>  <smiles>  (1356) 
N#Cc1cc(Cl)ccc1NC(=O)C1(S(=O)(=O)c2ccc(F)cc2)CCCCC1

>  <subsites>  (1356) 
None

>  <rmsd(smina/fragmenstein)>  (1356) 
1.334

>  <alias>  (1356) 
None

>  <energy_score>  (1356) 
-28.28315

>  <HIPPO Pose ID>  (1356) 
95916

>  <distance_score>  (1356) 
0.635658

>  <HIPPO Compound ID>  (1356) 
129886

>  <gnina_score_min>  (1356) 
5.368

>  <name>  (1356) 
P95916

>  <exports>  (1356) 
['/opt/xchem-fragalysis-2/maxwin/BulkDock/OUTPUTS/openbind_d68ev3c_c2_elabs_1LOTQJ3.sdf', '/opt/xchem-fragalysis-2/maxwin/BulkDock/OUTPUTS/openbind_d68ev3c_c2_elabs_1LSYI5W.sdf']

$$$$
P95918
     RDKit          3D

 28 30  0  0  0  0  0  0  0  0999 V2000
   16.8856    0.5267   18.0039 O   0  0  0  0  0  0  0  0  0  0  0  0
   16.6129   -0.5593   18.3518 C   0  0  0  0  0  0  0  0  0  0  0  0
   15.3513   -1.4313   18.0513 N   0  0  0  0  0  0  0  0  0  0  0  0
   14.2608   -1.1876   17.2185 C   0  0  0  0  0  0  0  0  0  0  0  0
   14.0523    0.1238   16.7705 C   0  0  0  0  0  0  0  0  0  0  0  0
   13.0253    0.4291   15.8901 C   0  0  0  0  0  0  0  0  0  0  0  0
   12.2458   -0.5928   15.3923 C   0  0  0  0  0  0  0  0  0  0  0  0
   12.4727   -1.9105   15.8080 C   0  0  0  0  0  0  0  0  0  0  0  0
   11.4603   -3.2714   14.6697 I   0  0  0  0  0  0  0  0  0  0  0  0
   13.4144   -2.2349   16.8038 C   0  0  0  0  0  0  0  0  0  0  0  0
   13.5738   -3.6366   17.3530 C   0  0  0  0  0  0  0  0  0  0  0  0
   13.7445   -3.5900   18.7682 O   0  0  0  0  0  0  0  0  0  0  0  0
   17.5773   -1.3227   19.2862 C   0  0  0  0  0  0  0  0  0  0  0  0
   18.2823   -2.6815   18.3253 S   0  0  0  0  0  0  0  0  0  0  0  0
   19.5705   -3.0317   18.8962 O   0  0  0  0  0  0  0  0  0  0  0  0
   17.2585   -3.7066   18.2023 O   0  0  0  0  0  0  0  0  0  0  0  0
   18.6249   -2.1263   16.6621 C   0  0  0  0  0  0  0  0  0  0  0  0
   19.7881   -1.3934   16.4030 C   0  0  0  0  0  0  0  0  0  0  0  0
   20.1164   -1.0665   15.0853 C   0  0  0  0  0  0  0  0  0  0  0  0
   19.2987   -1.4921   14.0434 C   0  0  0  0  0  0  0  0  0  0  0  0
   19.6232   -1.1793   12.7828 F   0  0  0  0  0  0  0  0  0  0  0  0
   18.1522   -2.2396   14.2907 C   0  0  0  0  0  0  0  0  0  0  0  0
   17.8125   -2.5654   15.6057 C   0  0  0  0  0  0  0  0  0  0  0  0
   18.7260   -0.3757   19.7539 C   0  0  0  0  0  0  0  0  0  0  0  0
   18.2739    0.7024   20.7447 C   0  0  0  0  0  0  0  0  0  0  0  0
   17.5452    0.1080   21.9418 C   0  0  0  0  0  0  0  0  0  0  0  0
   16.4019   -0.7974   21.5050 C   0  0  0  0  0  0  0  0  0  0  0  0
   16.8909   -1.8891   20.5549 C   0  0  0  0  0  0  0  0  0  0  0  0
  1  2  2  0
  2  3  1  0
  3  4  1  0
  4  5  2  0
  5  6  1  0
  6  7  2  0
  7  8  1  0
  8  9  1  0
  8 10  2  0
 10 11  1  0
 11 12  1  0
  2 13  1  0
 13 14  1  0
 14 15  2  0
 14 16  2  0
 14 17  1  0
 17 18  2  0
 18 19  1  0
 19 20  2  0
 20 21  1  0
 20 22  1  0
 22 23  2  0
 13 24  1  0
 24 25  1  0
 25 26  1  0
 26 27  1  0
 27 28  1  0
 10  4  1  0
 28 13  1  0
 23 17  1  0
M  END
>  <ref_mols>  (1357) 
B1396a

>  <gnina_score>  (1357) 
5.062

>  <smina_score_min>  (1357) 
-3.116

>  <ref_pdb>  (1357) 
B1396a

>  <inspiration_score>  (1357) 
None

>  <inchikey>  (1357) 
CTNOHWPPURSMKQ-UHFFFAOYSA-N

>  <tags>  (1357) 
BulkDock Fragalysis export,openbind_d68ev3c_c2_elabs_scored,openbind_d68ev3c_c2_elabs_scored_4.5plus,openbind_d68ev3c_c2_elabs,openbind_d68ev3c_c2_elabs_scored_5plus,syndirella_product,openbind_d68ev3c_c2_elabs_scored_top80percent,syndirella_placed

>  <smiles>  (1357) 
O=C(Nc1cccc(I)c1CO)C1(S(=O)(=O)c2ccc(F)cc2)CCCCC1

>  <subsites>  (1357) 
None

>  <rmsd(smina/fragmenstein)>  (1357) 
0.653

>  <alias>  (1357) 
None

>  <energy_score>  (1357) 
-62.398876

>  <HIPPO Pose ID>  (1357) 
95918

>  <distance_score>  (1357) 
1.059822

>  <HIPPO Compound ID>  (1357) 
129888

>  <gnina_score_min>  (1357) 
5.095

>  <name>  (1357) 
P95918

>  <exports>  (1357) 
['/opt/xchem-fragalysis-2/maxwin/BulkDock/OUTPUTS/openbind_d68ev3c_c2_elabs_1LOTQJ3.sdf', '/opt/xchem-fragalysis-2/maxwin/BulkDock/OUTPUTS/openbind_d68ev3c_c2_elabs_1LSYI5W.sdf']

$$$$
P95919
     RDKit          3D

 28 30  0  0  0  0  0  0  0  0999 V2000
   13.5385   -5.2229   17.3228 O   0  0  0  0  0  0  0  0  0  0  0  0
   13.8444   -4.0810   17.6399 C   0  0  0  0  0  0  0  0  0  0  0  0
   13.3372   -2.9070   16.8891 C   0  0  0  0  0  0  0  0  0  0  0  0
   12.1907   -3.1204   16.1013 C   0  0  0  0  0  0  0  0  0  0  0  0
   11.6303   -2.0854   15.3656 C   0  0  0  0  0  0  0  0  0  0  0  0
   12.1891   -0.8183   15.4556 C   0  0  0  0  0  0  0  0  0  0  0  0
   13.3328   -0.5887   16.2407 C   0  0  0  0  0  0  0  0  0  0  0  0
   13.7298    1.0808   16.4524 Cl  0  0  0  0  0  0  0  0  0  0  0  0
   13.9702   -1.6438   16.9269 C   0  0  0  0  0  0  0  0  0  0  0  0
   15.2003   -1.5232   17.6138 N   0  0  0  0  0  0  0  0  0  0  0  0
   16.3496   -0.4713   17.4624 C   0  0  0  0  0  0  0  0  0  0  0  0
   16.4809    0.4037   16.6941 O   0  0  0  0  0  0  0  0  0  0  0  0
   17.4181   -0.7077   18.5678 C   0  0  0  0  0  0  0  0  0  0  0  0
   18.2512   -2.2607   18.1423 S   0  0  0  0  0  0  0  0  0  0  0  0
   19.4586   -2.3794   18.9384 O   0  0  0  0  0  0  0  0  0  0  0  0
   17.2516   -3.3166   18.2069 O   0  0  0  0  0  0  0  0  0  0  0  0
   18.7654   -2.1207   16.4413 C   0  0  0  0  0  0  0  0  0  0  0  0
   17.9923   -2.6948   15.4239 C   0  0  0  0  0  0  0  0  0  0  0  0
   18.4133   -2.5771   14.0971 C   0  0  0  0  0  0  0  0  0  0  0  0
   19.6005   -1.9119   13.8058 C   0  0  0  0  0  0  0  0  0  0  0  0
   19.9986   -1.7999   12.5327 F   0  0  0  0  0  0  0  0  0  0  0  0
   20.3857   -1.3692   14.8162 C   0  0  0  0  0  0  0  0  0  0  0  0
   19.9761   -1.4835   16.1444 C   0  0  0  0  0  0  0  0  0  0  0  0
   18.4502    0.4569   18.5747 C   0  0  0  0  0  0  0  0  0  0  0  0
   17.8858    1.7738   19.1187 C   0  0  0  0  0  0  0  0  0  0  0  0
   17.2485    1.6043   20.4906 C   0  0  0  0  0  0  0  0  0  0  0  0
   16.2160    0.4856   20.4907 C   0  0  0  0  0  0  0  0  0  0  0  0
   16.8241   -0.8243   19.9944 C   0  0  0  0  0  0  0  0  0  0  0  0
  1  2  2  0
  2  3  1  0
  3  4  2  0
  4  5  1  0
  5  6  2  0
  6  7  1  0
  7  8  1  0
  7  9  2  0
  9 10  1  0
 10 11  1  0
 11 12  2  0
 11 13  1  0
 13 14  1  0
 14 15  2  0
 14 16  2  0
 14 17  1  0
 17 18  2  0
 18 19  1  0
 19 20  2  0
 20 21  1  0
 20 22  1  0
 22 23  2  0
 13 24  1  0
 24 25  1  0
 25 26  1  0
 26 27  1  0
 27 28  1  0
  9  3  1  0
 28 13  1  0
 23 17  1  0
M  END
>  <ref_mols>  (1358) 
B1396a

>  <gnina_score>  (1358) 
5.472

>  <smina_score_min>  (1358) 
-3.89

>  <ref_pdb>  (1358) 
B1396a

>  <inspiration_score>  (1358) 
None

>  <inchikey>  (1358) 
XUGNUEBUIBAIPI-UHFFFAOYSA-N

>  <tags>  (1358) 
BulkDock Fragalysis export,openbind_d68ev3c_c2_elabs_scored,openbind_d68ev3c_c2_elabs_scored_4.5plus,openbind_d68ev3c_c2_elabs,openbind_d68ev3c_c2_elabs_scored_5plus,syndirella_product,openbind_d68ev3c_c2_elabs_scored_top80percent,syndirella_placed

>  <smiles>  (1358) 
O=Cc1cccc(Cl)c1NC(=O)C1(S(=O)(=O)c2ccc(F)cc2)CCCCC1

>  <subsites>  (1358) 
None

>  <rmsd(smina/fragmenstein)>  (1358) 
1.749

>  <alias>  (1358) 
None

>  <energy_score>  (1358) 
-48.836596

>  <HIPPO Pose ID>  (1358) 
95919

>  <distance_score>  (1358) 
0.415069

>  <HIPPO Compound ID>  (1358) 
129889

>  <gnina_score_min>  (1358) 
5.059

>  <name>  (1358) 
P95919

>  <exports>  (1358) 
['/opt/xchem-fragalysis-2/maxwin/BulkDock/OUTPUTS/openbind_d68ev3c_c2_elabs_1LOTQJ3.sdf', '/opt/xchem-fragalysis-2/maxwin/BulkDock/OUTPUTS/openbind_d68ev3c_c2_elabs_1LSYI5W.sdf']

$$$$
P95921
     RDKit          3D

 28 30  0  0  0  0  0  0  0  0999 V2000
   10.7375   -1.9108   14.7068 C   0  0  0  0  0  0  0  0  0  0  0  0
   11.9329   -1.8071   15.5898 C   0  0  0  0  0  0  0  0  0  0  0  0
   12.4408   -2.9203   16.2529 C   0  0  0  0  0  0  0  0  0  0  0  0
   13.5791   -2.8152   17.0711 C   0  0  0  0  0  0  0  0  0  0  0  0
   14.0720   -4.0775   17.7325 C   0  0  0  0  0  0  0  0  0  0  0  0
   14.2328   -1.5637   17.2113 C   0  0  0  0  0  0  0  0  0  0  0  0
   15.4292   -1.5346   17.9501 N   0  0  0  0  0  0  0  0  0  0  0  0
   16.6668   -0.5787   17.8445 C   0  0  0  0  0  0  0  0  0  0  0  0
   16.8374    0.3717   17.1791 O   0  0  0  0  0  0  0  0  0  0  0  0
   17.7419   -1.0105   18.8719 C   0  0  0  0  0  0  0  0  0  0  0  0
   18.4552   -2.5386   18.2265 S   0  0  0  0  0  0  0  0  0  0  0  0
   19.7159   -2.7871   18.9002 O   0  0  0  0  0  0  0  0  0  0  0  0
   17.4208   -3.5601   18.2597 O   0  0  0  0  0  0  0  0  0  0  0  0
   18.8401   -2.2426   16.5092 C   0  0  0  0  0  0  0  0  0  0  0  0
   17.9800   -2.7162   15.5094 C   0  0  0  0  0  0  0  0  0  0  0  0
   18.2977   -2.4883   14.1690 C   0  0  0  0  0  0  0  0  0  0  0  0
   19.4680   -1.8099   13.8434 C   0  0  0  0  0  0  0  0  0  0  0  0
   19.7642   -1.5886   12.5565 F   0  0  0  0  0  0  0  0  0  0  0  0
   20.3363   -1.3606   14.8322 C   0  0  0  0  0  0  0  0  0  0  0  0
   20.0299   -1.5861   16.1747 C   0  0  0  0  0  0  0  0  0  0  0  0
   18.8574    0.0811   18.9583 C   0  0  0  0  0  0  0  0  0  0  0  0
   18.4993    1.1821   19.9533 C   0  0  0  0  0  0  0  0  0  0  0  0
   18.3944    0.6375   21.3763 C   0  0  0  0  0  0  0  0  0  0  0  0
   18.0384   -0.8465   21.4231 C   0  0  0  0  0  0  0  0  0  0  0  0
   17.1122   -1.2406   20.2759 C   0  0  0  0  0  0  0  0  0  0  0  0
   13.6440   -0.4306   16.6190 C   0  0  0  0  0  0  0  0  0  0  0  0
   14.0872    1.3754   17.0319 Br  0  0  0  0  0  0  0  0  0  0  0  0
   12.5179   -0.5629   15.8020 C   0  0  0  0  0  0  0  0  0  0  0  0
  1  2  1  0
  2  3  2  0
  3  4  1  0
  4  5  1  0
  4  6  2  0
  6  7  1  0
  7  8  1  0
  8  9  2  0
  8 10  1  0
 10 11  1  0
 11 12  2  0
 11 13  2  0
 11 14  1  0
 14 15  2  0
 15 16  1  0
 16 17  2  0
 17 18  1  0
 17 19  1  0
 19 20  2  0
 10 21  1  0
 21 22  1  0
 22 23  1  0
 23 24  1  0
 24 25  1  0
  6 26  1  0
 26 27  1  0
 26 28  2  0
 28  2  1  0
 25 10  1  0
 20 14  1  0
M  END
>  <ref_mols>  (1359) 
B1396a

>  <gnina_score>  (1359) 
5.459

>  <smina_score_min>  (1359) 
-3.668

>  <ref_pdb>  (1359) 
B1396a

>  <inspiration_score>  (1359) 
None

>  <inchikey>  (1359) 
QMNXGGOQPHKCHR-UHFFFAOYSA-N

>  <tags>  (1359) 
BulkDock Fragalysis export,openbind_d68ev3c_c2_elabs_scored,openbind_d68ev3c_c2_elabs_scored_4.5plus,openbind_d68ev3c_c2_elabs,openbind_d68ev3c_c2_elabs_scored_5plus,syndirella_product,openbind_d68ev3c_c2_elabs_scored_top80percent,syndirella_placed

>  <smiles>  (1359) 
Cc1cc(C)c(NC(=O)C2(S(=O)(=O)c3ccc(F)cc3)CCCCC2)c(Br)c1

>  <subsites>  (1359) 
None

>  <rmsd(smina/fragmenstein)>  (1359) 
1.979

>  <alias>  (1359) 
None

>  <energy_score>  (1359) 
-42.817971

>  <HIPPO Pose ID>  (1359) 
95921

>  <distance_score>  (1359) 
0.623367

>  <HIPPO Compound ID>  (1359) 
129891

>  <gnina_score_min>  (1359) 
5.235

>  <name>  (1359) 
P95921

>  <exports>  (1359) 
['/opt/xchem-fragalysis-2/maxwin/BulkDock/OUTPUTS/openbind_d68ev3c_c2_elabs_1LOTQJ3.sdf', '/opt/xchem-fragalysis-2/maxwin/BulkDock/OUTPUTS/openbind_d68ev3c_c2_elabs_1LSYI5W.sdf']

$$$$
P95923
     RDKit          3D

 28 30  0  0  0  0  0  0  0  0999 V2000
   20.1710   -1.6314   12.3524 C   0  0  0  0  0  0  0  0  0  0  0  0
   19.7026   -1.8579   13.7651 C   0  0  0  0  0  0  0  0  0  0  0  0
   19.8322   -0.8216   14.7010 C   0  0  0  0  0  0  0  0  0  0  0  0
   19.4484   -1.0003   16.0308 C   0  0  0  0  0  0  0  0  0  0  0  0
   18.8939   -2.2123   16.4296 C   0  0  0  0  0  0  0  0  0  0  0  0
   18.4204   -2.4904   18.1215 S   0  0  0  0  0  0  0  0  0  0  0  0
   19.6556   -2.6158   18.8708 O   0  0  0  0  0  0  0  0  0  0  0  0
   17.4721   -3.5968   18.1072 O   0  0  0  0  0  0  0  0  0  0  0  0
   17.5073   -1.0935   18.7396 C   0  0  0  0  0  0  0  0  0  0  0  0
   16.5022   -0.6366   17.6634 C   0  0  0  0  0  0  0  0  0  0  0  0
   16.5721    0.4388   17.2014 O   0  0  0  0  0  0  0  0  0  0  0  0
   15.4383   -1.7631   17.4503 N   0  0  0  0  0  0  0  0  0  0  0  0
   14.2452   -1.7561   16.7294 C   0  0  0  0  0  0  0  0  0  0  0  0
   13.8378   -0.5884   16.0775 C   0  0  0  0  0  0  0  0  0  0  0  0
   12.5649   -0.4930   15.5177 C   0  0  0  0  0  0  0  0  0  0  0  0
   11.6932   -1.5755   15.5905 C   0  0  0  0  0  0  0  0  0  0  0  0
   10.3029   -1.3555   15.3257 C   0  0  0  0  0  0  0  0  0  0  0  0
    9.1673   -1.1166   15.3504 N   0  0  0  0  0  0  0  0  0  0  0  0
   12.1343   -2.7859   16.1408 C   0  0  0  0  0  0  0  0  0  0  0  0
   13.4052   -2.8834   16.7380 C   0  0  0  0  0  0  0  0  0  0  0  0
   13.7719   -4.1511   17.4640 C   0  0  0  0  0  0  0  0  0  0  0  0
   18.4147    0.0705   19.1988 C   0  0  0  0  0  0  0  0  0  0  0  0
   17.6312    0.8226   20.2786 C   0  0  0  0  0  0  0  0  0  0  0  0
   16.4964   -0.0965   20.7065 C   0  0  0  0  0  0  0  0  0  0  0  0
   16.8107   -1.4429   20.0721 C   0  0  0  0  0  0  0  0  0  0  0  0
   18.7650   -3.2626   15.5110 C   0  0  0  0  0  0  0  0  0  0  0  0
   19.1966   -3.1043   14.1829 C   0  0  0  0  0  0  0  0  0  0  0  0
   19.1674   -4.2793   13.2427 C   0  0  0  0  0  0  0  0  0  0  0  0
  1  2  1  0
  2  3  2  0
  3  4  1  0
  4  5  2  0
  5  6  1  0
  6  7  2  0
  6  8  2  0
  6  9  1  0
  9 10  1  0
 10 11  2  0
 10 12  1  0
 12 13  1  0
 13 14  2  0
 14 15  1  0
 15 16  2  0
 16 17  1  0
 17 18  3  0
 16 19  1  0
 19 20  2  0
 20 21  1  0
  9 22  1  0
 22 23  1  0
 23 24  1  0
 24 25  1  0
  5 26  1  0
 26 27  2  0
 27 28  1  0
 27  2  1  0
 25  9  1  0
 20 13  1  0
M  END
>  <ref_mols>  (1360) 
B1396a

>  <gnina_score>  (1360) 
5.349

>  <smina_score_min>  (1360) 
-3.532

>  <ref_pdb>  (1360) 
B1396a

>  <inspiration_score>  (1360) 
None

>  <inchikey>  (1360) 
LDCNPUSKMMDKGX-UHFFFAOYSA-N

>  <tags>  (1360) 
BulkDock Fragalysis export,openbind_d68ev3c_c2_elabs_scored,openbind_d68ev3c_c2_elabs_scored_4.5plus,openbind_d68ev3c_c2_elabs,openbind_d68ev3c_c2_elabs_scored_5plus,syndirella_product,openbind_d68ev3c_c2_elabs_scored_top80percent,syndirella_placed

>  <smiles>  (1360) 
Cc1ccc(S(=O)(=O)C2(C(=O)Nc3ccc(C#N)cc3C)CCCC2)cc1C

>  <subsites>  (1360) 
None

>  <rmsd(smina/fragmenstein)>  (1360) 
1.722

>  <alias>  (1360) 
None

>  <energy_score>  (1360) 
-18.706793

>  <HIPPO Pose ID>  (1360) 
95923

>  <distance_score>  (1360) 
0.54643

>  <HIPPO Compound ID>  (1360) 
129894

>  <gnina_score_min>  (1360) 
5.118

>  <name>  (1360) 
P95923

>  <exports>  (1360) 
['/opt/xchem-fragalysis-2/maxwin/BulkDock/OUTPUTS/openbind_d68ev3c_c2_elabs_1LOTQJ3.sdf', '/opt/xchem-fragalysis-2/maxwin/BulkDock/OUTPUTS/openbind_d68ev3c_c2_elabs_1LSYI5W.sdf']

$$$$
P95926
     RDKit          3D

 28 31  0  0  0  0  0  0  0  0999 V2000
   16.7092   -0.6188   16.2859 O   0  0  0  0  0  0  0  0  0  0  0  0
   16.2887   -1.1037   17.2760 C   0  0  0  0  0  0  0  0  0  0  0  0
   14.9264   -1.7174   17.5704 N   0  0  0  0  0  0  0  0  0  0  0  0
   14.9139   -3.2668   17.2524 C   0  0  0  0  0  0  0  0  0  0  0  0
   13.5973   -3.9668   17.4685 C   0  0  0  0  0  0  0  0  0  0  0  0
   12.9327   -2.9545   16.6682 C   0  0  0  0  0  0  0  0  0  0  0  0
   11.7944   -3.0716   15.8878 C   0  0  0  0  0  0  0  0  0  0  0  0
   11.3452   -1.9598   15.1862 C   0  0  0  0  0  0  0  0  0  0  0  0
   12.0370   -0.7517   15.2854 C   0  0  0  0  0  0  0  0  0  0  0  0
   13.2007   -0.6614   16.0614 C   0  0  0  0  0  0  0  0  0  0  0  0
   13.9166    0.9018   16.2222 Cl  0  0  0  0  0  0  0  0  0  0  0  0
   13.6931   -1.7958   16.7306 C   0  0  0  0  0  0  0  0  0  0  0  0
   17.1752   -1.1138   18.5490 C   0  0  0  0  0  0  0  0  0  0  0  0
   18.4733   -2.3626   18.2327 S   0  0  0  0  0  0  0  0  0  0  0  0
   17.8794   -3.6836   18.3634 O   0  0  0  0  0  0  0  0  0  0  0  0
   19.6508   -2.0592   19.0250 O   0  0  0  0  0  0  0  0  0  0  0  0
   19.0001   -2.2377   16.5273 C   0  0  0  0  0  0  0  0  0  0  0  0
   18.5562   -3.1820   15.5886 C   0  0  0  0  0  0  0  0  0  0  0  0
   18.9726   -3.0786   14.2601 C   0  0  0  0  0  0  0  0  0  0  0  0
   19.8325   -2.0498   13.8886 C   0  0  0  0  0  0  0  0  0  0  0  0
   20.2352   -1.9554   12.6151 F   0  0  0  0  0  0  0  0  0  0  0  0
   20.3051   -1.1341   14.8234 C   0  0  0  0  0  0  0  0  0  0  0  0
   19.9022   -1.2346   16.1556 C   0  0  0  0  0  0  0  0  0  0  0  0
   16.4110   -1.4529   19.8539 C   0  0  0  0  0  0  0  0  0  0  0  0
   17.1983   -1.1756   21.1327 C   0  0  0  0  0  0  0  0  0  0  0  0
   17.6506    0.2742   21.1984 C   0  0  0  0  0  0  0  0  0  0  0  0
   18.4786    0.6506   19.9806 C   0  0  0  0  0  0  0  0  0  0  0  0
   17.7690    0.3204   18.6677 C   0  0  0  0  0  0  0  0  0  0  0  0
  1  2  2  0
  2  3  1  0
  3  4  1  0
  4  5  1  0
  5  6  1  0
  6  7  2  0
  7  8  1  0
  8  9  2  0
  9 10  1  0
 10 11  1  0
 10 12  2  0
  2 13  1  0
 13 14  1  0
 14 15  2  0
 14 16  2  0
 14 17  1  0
 17 18  2  0
 18 19  1  0
 19 20  2  0
 20 21  1  0
 20 22  1  0
 22 23  2  0
 13 24  1  0
 24 25  1  0
 25 26  1  0
 26 27  1  0
 27 28  1  0
 12  3  1  0
 28 13  1  0
 12  6  1  0
 23 17  1  0
M  END
>  <ref_mols>  (1361) 
B1396a

>  <gnina_score>  (1361) 
5.427

>  <smina_score_min>  (1361) 
-4.184

>  <ref_pdb>  (1361) 
B1396a

>  <inspiration_score>  (1361) 
None

>  <inchikey>  (1361) 
DEUJEUOOROXJJO-UHFFFAOYSA-N

>  <tags>  (1361) 
BulkDock Fragalysis export,openbind_d68ev3c_c2_elabs_scored,openbind_d68ev3c_c2_elabs_scored_4.5plus,openbind_d68ev3c_c2_elabs,openbind_d68ev3c_c2_elabs_scored_5plus,syndirella_product,openbind_d68ev3c_c2_elabs_scored_top80percent,syndirella_placed

>  <smiles>  (1361) 
O=C(N1CCc2cccc(Cl)c21)C1(S(=O)(=O)c2ccc(F)cc2)CCCCC1

>  <subsites>  (1361) 
None

>  <rmsd(smina/fragmenstein)>  (1361) 
2.194

>  <alias>  (1361) 
None

>  <energy_score>  (1361) 
-15.869141

>  <HIPPO Pose ID>  (1361) 
95926

>  <distance_score>  (1361) 
0.334183

>  <HIPPO Compound ID>  (1361) 
129897

>  <gnina_score_min>  (1361) 
5.175

>  <name>  (1361) 
P95926

>  <exports>  (1361) 
['/opt/xchem-fragalysis-2/maxwin/BulkDock/OUTPUTS/openbind_d68ev3c_c2_elabs_1LOTQJ3.sdf', '/opt/xchem-fragalysis-2/maxwin/BulkDock/OUTPUTS/openbind_d68ev3c_c2_elabs_1LSYI5W.sdf']

$$$$
P95927
     RDKit          3D

 28 30  0  0  0  0  0  0  0  0999 V2000
   10.7693   -2.1847   14.6538 C   0  0  0  0  0  0  0  0  0  0  0  0
   11.9385   -2.0324   15.5631 C   0  0  0  0  0  0  0  0  0  0  0  0
   12.4046   -3.1116   16.3141 C   0  0  0  0  0  0  0  0  0  0  0  0
   13.5772   -3.0094   17.0797 C   0  0  0  0  0  0  0  0  0  0  0  0
   14.0336   -4.2268   17.8382 C   0  0  0  0  0  0  0  0  0  0  0  0
   14.3009   -1.7981   17.0772 C   0  0  0  0  0  0  0  0  0  0  0  0
   15.5143   -1.7448   17.7774 N   0  0  0  0  0  0  0  0  0  0  0  0
   16.5435   -0.5767   17.9389 C   0  0  0  0  0  0  0  0  0  0  0  0
   16.5671    0.4872   17.4478 O   0  0  0  0  0  0  0  0  0  0  0  0
   17.6402   -1.0014   18.9464 C   0  0  0  0  0  0  0  0  0  0  0  0
   18.4683   -2.4629   18.2704 S   0  0  0  0  0  0  0  0  0  0  0  0
   17.5151   -3.5623   18.2949 O   0  0  0  0  0  0  0  0  0  0  0  0
   19.7476   -2.6297   18.9342 O   0  0  0  0  0  0  0  0  0  0  0  0
   18.8261   -2.1263   16.5551 C   0  0  0  0  0  0  0  0  0  0  0  0
   18.0481   -2.7173   15.5497 C   0  0  0  0  0  0  0  0  0  0  0  0
   18.3670   -2.4858   14.2101 C   0  0  0  0  0  0  0  0  0  0  0  0
   19.4587   -1.6852   13.8904 C   0  0  0  0  0  0  0  0  0  0  0  0
   19.7580   -1.4625   12.6046 F   0  0  0  0  0  0  0  0  0  0  0  0
   20.2473   -1.1164   14.8848 C   0  0  0  0  0  0  0  0  0  0  0  0
   19.9394   -1.3448   16.2268 C   0  0  0  0  0  0  0  0  0  0  0  0
   16.9808   -1.3327   20.3169 C   0  0  0  0  0  0  0  0  0  0  0  0
   17.8612   -0.9632   21.5072 C   0  0  0  0  0  0  0  0  0  0  0  0
   18.1562    0.5342   21.5511 C   0  0  0  0  0  0  0  0  0  0  0  0
   18.2495    1.1682   20.1649 C   0  0  0  0  0  0  0  0  0  0  0  0
   18.6808    0.1515   19.1104 C   0  0  0  0  0  0  0  0  0  0  0  0
   13.8021   -0.7181   16.3379 C   0  0  0  0  0  0  0  0  0  0  0  0
   14.4187    0.4677   16.3100 F   0  0  0  0  0  0  0  0  0  0  0  0
   12.6377   -0.8302   15.5880 C   0  0  0  0  0  0  0  0  0  0  0  0
  1  2  1  0
  2  3  2  0
  3  4  1  0
  4  5  1  0
  4  6  2  0
  6  7  1  0
  7  8  1  0
  8  9  2  0
  8 10  1  0
 10 11  1  0
 11 12  2  0
 11 13  2  0
 11 14  1  0
 14 15  2  0
 15 16  1  0
 16 17  2  0
 17 18  1  0
 17 19  1  0
 19 20  2  0
 10 21  1  0
 21 22  1  0
 22 23  1  0
 23 24  1  0
 24 25  1  0
  6 26  1  0
 26 27  1  0
 26 28  2  0
 28  2  1  0
 25 10  1  0
 20 14  1  0
M  END
>  <ref_mols>  (1362) 
B1396a

>  <gnina_score>  (1362) 
5.406

>  <smina_score_min>  (1362) 
-3.561

>  <ref_pdb>  (1362) 
B1396a

>  <inspiration_score>  (1362) 
None

>  <inchikey>  (1362) 
YCUYIMNQYYFEGL-UHFFFAOYSA-N

>  <tags>  (1362) 
BulkDock Fragalysis export,openbind_d68ev3c_c2_elabs_scored,openbind_d68ev3c_c2_elabs_scored_4.5plus,openbind_d68ev3c_c2_elabs,openbind_d68ev3c_c2_elabs_scored_5plus,syndirella_product,openbind_d68ev3c_c2_elabs_scored_top80percent,syndirella_placed

>  <smiles>  (1362) 
Cc1cc(C)c(NC(=O)C2(S(=O)(=O)c3ccc(F)cc3)CCCCC2)c(F)c1

>  <subsites>  (1362) 
None

>  <rmsd(smina/fragmenstein)>  (1362) 
1.708

>  <alias>  (1362) 
None

>  <energy_score>  (1362) 
-58.510076

>  <HIPPO Pose ID>  (1362) 
95927

>  <distance_score>  (1362) 
0.599918

>  <HIPPO Compound ID>  (1362) 
129898

>  <gnina_score_min>  (1362) 
5.222

>  <name>  (1362) 
P95927

>  <exports>  (1362) 
['/opt/xchem-fragalysis-2/maxwin/BulkDock/OUTPUTS/openbind_d68ev3c_c2_elabs_1LOTQJ3.sdf', '/opt/xchem-fragalysis-2/maxwin/BulkDock/OUTPUTS/openbind_d68ev3c_c2_elabs_1LSYI5W.sdf']

$$$$
P95928
     RDKit          3D

 28 30  0  0  0  0  0  0  0  0999 V2000
   13.8519   -4.0218   17.5208 C   0  0  0  0  0  0  0  0  0  0  0  0
   13.3648   -2.7907   16.7981 C   0  0  0  0  0  0  0  0  0  0  0  0
   12.2174   -2.9039   15.9996 C   0  0  0  0  0  0  0  0  0  0  0  0
   11.5984   -4.0810   15.8916 F   0  0  0  0  0  0  0  0  0  0  0  0
   11.6808   -1.8289   15.3118 C   0  0  0  0  0  0  0  0  0  0  0  0
   12.2768   -0.5862   15.4512 C   0  0  0  0  0  0  0  0  0  0  0  0
   13.4267   -0.4298   16.2440 C   0  0  0  0  0  0  0  0  0  0  0  0
   13.8757    1.2150   16.5164 Cl  0  0  0  0  0  0  0  0  0  0  0  0
   14.0245   -1.5401   16.8814 C   0  0  0  0  0  0  0  0  0  0  0  0
   15.2321   -1.5172   17.6120 N   0  0  0  0  0  0  0  0  0  0  0  0
   16.3960   -0.4678   17.6206 C   0  0  0  0  0  0  0  0  0  0  0  0
   16.5583    0.4912   16.9657 O   0  0  0  0  0  0  0  0  0  0  0  0
   17.4258   -0.8325   18.7296 C   0  0  0  0  0  0  0  0  0  0  0  0
   18.2457   -2.3539   18.1811 S   0  0  0  0  0  0  0  0  0  0  0  0
   17.2528   -3.4170   18.2153 O   0  0  0  0  0  0  0  0  0  0  0  0
   19.4812   -2.5169   18.9248 O   0  0  0  0  0  0  0  0  0  0  0  0
   18.7076   -2.1331   16.4698 C   0  0  0  0  0  0  0  0  0  0  0  0
   19.9464   -1.5591   16.1595 C   0  0  0  0  0  0  0  0  0  0  0  0
   20.3212   -1.4057   14.8244 C   0  0  0  0  0  0  0  0  0  0  0  0
   19.4733   -1.8506   13.8171 C   0  0  0  0  0  0  0  0  0  0  0  0
   19.8373   -1.7015   12.5376 F   0  0  0  0  0  0  0  0  0  0  0  0
   18.2575   -2.4567   14.1179 C   0  0  0  0  0  0  0  0  0  0  0  0
   17.8723   -2.6123   15.4517 C   0  0  0  0  0  0  0  0  0  0  0  0
   16.7532   -1.0815   20.1147 C   0  0  0  0  0  0  0  0  0  0  0  0
   16.6182    0.1993   20.9345 C   0  0  0  0  0  0  0  0  0  0  0  0
   17.9815    0.7824   21.2964 C   0  0  0  0  0  0  0  0  0  0  0  0
   19.0596    0.4540   20.2670 C   0  0  0  0  0  0  0  0  0  0  0  0
   18.4703    0.3262   18.8637 C   0  0  0  0  0  0  0  0  0  0  0  0
  1  2  1  0
  2  3  2  0
  3  4  1  0
  3  5  1  0
  5  6  2  0
  6  7  1  0
  7  8  1  0
  7  9  2  0
  9 10  1  0
 10 11  1  0
 11 12  2  0
 11 13  1  0
 13 14  1  0
 14 15  2  0
 14 16  2  0
 14 17  1  0
 17 18  2  0
 18 19  1  0
 19 20  2  0
 20 21  1  0
 20 22  1  0
 22 23  2  0
 13 24  1  0
 24 25  1  0
 25 26  1  0
 26 27  1  0
 27 28  1  0
  9  2  1  0
 28 13  1  0
 23 17  1  0
M  END
>  <ref_mols>  (1363) 
B1396a

>  <gnina_score>  (1363) 
5.484

>  <smina_score_min>  (1363) 
-4.358

>  <ref_pdb>  (1363) 
B1396a

>  <inspiration_score>  (1363) 
None

>  <inchikey>  (1363) 
XGUXFRPTYUAHRB-UHFFFAOYSA-N

>  <tags>  (1363) 
BulkDock Fragalysis export,openbind_d68ev3c_c2_elabs_scored,openbind_d68ev3c_c2_elabs_scored_4.5plus,openbind_d68ev3c_c2_elabs,openbind_d68ev3c_c2_elabs_scored_5plus,syndirella_product,openbind_d68ev3c_c2_elabs_scored_top80percent,syndirella_placed

>  <smiles>  (1363) 
Cc1c(F)ccc(Cl)c1NC(=O)C1(S(=O)(=O)c2ccc(F)cc2)CCCCC1

>  <subsites>  (1363) 
None

>  <rmsd(smina/fragmenstein)>  (1363) 
2.812

>  <alias>  (1363) 
None

>  <energy_score>  (1363) 
-25.248372

>  <HIPPO Pose ID>  (1363) 
95928

>  <distance_score>  (1363) 
0.500389

>  <HIPPO Compound ID>  (1363) 
129899

>  <gnina_score_min>  (1363) 
5.227

>  <name>  (1363) 
P95928

>  <exports>  (1363) 
['/opt/xchem-fragalysis-2/maxwin/BulkDock/OUTPUTS/openbind_d68ev3c_c2_elabs_1LOTQJ3.sdf', '/opt/xchem-fragalysis-2/maxwin/BulkDock/OUTPUTS/openbind_d68ev3c_c2_elabs_1LSYI5W.sdf']

$$$$
P95929
     RDKit          3D

 28 30  0  0  0  0  0  0  0  0999 V2000
   13.6540   -4.1609   17.5285 C   0  0  0  0  0  0  0  0  0  0  0  0
   13.2267   -2.9696   16.7127 C   0  0  0  0  0  0  0  0  0  0  0  0
   12.0496   -3.0542   15.9504 C   0  0  0  0  0  0  0  0  0  0  0  0
   11.5969   -1.9684   15.1995 C   0  0  0  0  0  0  0  0  0  0  0  0
   12.3222   -0.7775   15.1985 C   0  0  0  0  0  0  0  0  0  0  0  0
   11.8490    0.3529   14.4500 C   0  0  0  0  0  0  0  0  0  0  0  0
   11.4550    1.2749   13.8643 N   0  0  0  0  0  0  0  0  0  0  0  0
   13.5084   -0.6873   15.9387 C   0  0  0  0  0  0  0  0  0  0  0  0
   13.9654   -1.7752   16.6925 C   0  0  0  0  0  0  0  0  0  0  0  0
   15.1488   -1.6817   17.4272 N   0  0  0  0  0  0  0  0  0  0  0  0
   16.1965   -0.5263   17.5196 C   0  0  0  0  0  0  0  0  0  0  0  0
   16.2625    0.4865   16.9342 O   0  0  0  0  0  0  0  0  0  0  0  0
   17.2279   -0.8519   18.6380 C   0  0  0  0  0  0  0  0  0  0  0  0
   18.1481   -2.3270   18.1222 S   0  0  0  0  0  0  0  0  0  0  0  0
   19.3604   -2.4298   18.9138 O   0  0  0  0  0  0  0  0  0  0  0  0
   17.2116   -3.4408   18.1160 O   0  0  0  0  0  0  0  0  0  0  0  0
   18.6617   -2.0702   16.4351 C   0  0  0  0  0  0  0  0  0  0  0  0
   17.9419   -2.6612   15.3879 C   0  0  0  0  0  0  0  0  0  0  0  0
   18.3810   -2.4915   14.0731 C   0  0  0  0  0  0  0  0  0  0  0  0
   19.5340   -1.7542   13.8221 C   0  0  0  0  0  0  0  0  0  0  0  0
   19.9522   -1.5928   12.5607 F   0  0  0  0  0  0  0  0  0  0  0  0
   20.2654   -1.1885   14.8608 C   0  0  0  0  0  0  0  0  0  0  0  0
   19.8371   -1.3553   16.1780 C   0  0  0  0  0  0  0  0  0  0  0  0
   18.2179    0.3348   18.8243 C   0  0  0  0  0  0  0  0  0  0  0  0
   17.5965    1.5663   19.4918 C   0  0  0  0  0  0  0  0  0  0  0  0
   16.8982    1.2215   20.7995 C   0  0  0  0  0  0  0  0  0  0  0  0
   15.8893    0.0976   20.6111 C   0  0  0  0  0  0  0  0  0  0  0  0
   16.5478   -1.1383   20.0019 C   0  0  0  0  0  0  0  0  0  0  0  0
  1  2  1  0
  2  3  2  0
  3  4  1  0
  4  5  2  0
  5  6  1  0
  6  7  3  0
  5  8  1  0
  8  9  2  0
  9 10  1  0
 10 11  1  0
 11 12  2  0
 11 13  1  0
 13 14  1  0
 14 15  2  0
 14 16  2  0
 14 17  1  0
 17 18  2  0
 18 19  1  0
 19 20  2  0
 20 21  1  0
 20 22  1  0
 22 23  2  0
 13 24  1  0
 24 25  1  0
 25 26  1  0
 26 27  1  0
 27 28  1  0
  9  2  1  0
 28 13  1  0
 23 17  1  0
M  END
>  <ref_mols>  (1364) 
B1396a

>  <gnina_score>  (1364) 
5.284

>  <smina_score_min>  (1364) 
-4.128

>  <ref_pdb>  (1364) 
B1396a

>  <inspiration_score>  (1364) 
None

>  <inchikey>  (1364) 
OTIXBDZYPYHJRC-UHFFFAOYSA-N

>  <tags>  (1364) 
BulkDock Fragalysis export,openbind_d68ev3c_c2_elabs_scored,openbind_d68ev3c_c2_elabs_scored_4.5plus,openbind_d68ev3c_c2_elabs,openbind_d68ev3c_c2_elabs_scored_5plus,syndirella_product,openbind_d68ev3c_c2_elabs_scored_top80percent,syndirella_placed

>  <smiles>  (1364) 
Cc1ccc(C#N)cc1NC(=O)C1(S(=O)(=O)c2ccc(F)cc2)CCCCC1

>  <subsites>  (1364) 
None

>  <rmsd(smina/fragmenstein)>  (1364) 
2.071

>  <alias>  (1364) 
None

>  <energy_score>  (1364) 
-63.23434

>  <HIPPO Pose ID>  (1364) 
95929

>  <distance_score>  (1364) 
0.427217

>  <HIPPO Compound ID>  (1364) 
129902

>  <gnina_score_min>  (1364) 
5.152

>  <name>  (1364) 
P95929

>  <exports>  (1364) 
['/opt/xchem-fragalysis-2/maxwin/BulkDock/OUTPUTS/openbind_d68ev3c_c2_elabs_1LOTQJ3.sdf', '/opt/xchem-fragalysis-2/maxwin/BulkDock/OUTPUTS/openbind_d68ev3c_c2_elabs_1LSYI5W.sdf']

$$$$
P95933
     RDKit          3D

 28 30  0  0  0  0  0  0  0  0999 V2000
   11.2264   -3.3772   15.0613 C   0  0  0  0  0  0  0  0  0  0  0  0
   12.1224   -2.2958   15.5659 C   0  0  0  0  0  0  0  0  0  0  0  0
   11.9783   -1.0437   14.9514 C   0  0  0  0  0  0  0  0  0  0  0  0
   12.8776   -0.0191   15.2084 C   0  0  0  0  0  0  0  0  0  0  0  0
   13.9874   -0.2595   16.0102 C   0  0  0  0  0  0  0  0  0  0  0  0
   14.1852   -1.5239   16.5829 C   0  0  0  0  0  0  0  0  0  0  0  0
   15.3542   -1.7630   17.4416 N   0  0  0  0  0  0  0  0  0  0  0  0
   15.8220   -2.5158   16.1314 C   0  0  0  0  0  0  0  0  0  0  0  0
   16.4329   -0.8030   17.9448 C   0  0  0  0  0  0  0  0  0  0  0  0
   16.6192    0.3372   17.6934 O   0  0  0  0  0  0  0  0  0  0  0  0
   17.3050   -1.5067   19.0204 C   0  0  0  0  0  0  0  0  0  0  0  0
   18.5673   -2.5875   18.2955 S   0  0  0  0  0  0  0  0  0  0  0  0
   17.9940   -3.9220   18.2065 O   0  0  0  0  0  0  0  0  0  0  0  0
   19.8146   -2.4195   19.0196 O   0  0  0  0  0  0  0  0  0  0  0  0
   18.9727   -2.1321   16.6183 C   0  0  0  0  0  0  0  0  0  0  0  0
   18.9954   -3.1389   15.6334 C   0  0  0  0  0  0  0  0  0  0  0  0
   19.3001   -2.8184   14.3107 C   0  0  0  0  0  0  0  0  0  0  0  0
   19.6155   -1.5051   13.9885 C   0  0  0  0  0  0  0  0  0  0  0  0
   19.9193   -1.1903   12.7235 F   0  0  0  0  0  0  0  0  0  0  0  0
   19.6355   -0.5115   14.9649 C   0  0  0  0  0  0  0  0  0  0  0  0
   19.3179   -0.8214   16.2911 C   0  0  0  0  0  0  0  0  0  0  0  0
   16.4355   -2.3484   20.0020 C   0  0  0  0  0  0  0  0  0  0  0  0
   15.4641   -1.5095   20.8333 C   0  0  0  0  0  0  0  0  0  0  0  0
   16.1967   -0.4442   21.6363 C   0  0  0  0  0  0  0  0  0  0  0  0
   17.0702    0.4259   20.7430 C   0  0  0  0  0  0  0  0  0  0  0  0
   18.0216   -0.4142   19.8833 C   0  0  0  0  0  0  0  0  0  0  0  0
   13.1541   -2.5074   16.5008 C   0  0  0  0  0  0  0  0  0  0  0  0
   13.2580   -3.7665   17.3370 C   0  0  0  0  0  0  0  0  0  0  0  0
  1  2  1  0
  2  3  2  0
  3  4  1  0
  4  5  2  0
  5  6  1  0
  6  7  1  0
  7  8  1  0
  7  9  1  0
  9 10  2  0
  9 11  1  0
 11 12  1  0
 12 13  2  0
 12 14  2  0
 12 15  1  0
 15 16  2  0
 16 17  1  0
 17 18  2  0
 18 19  1  0
 18 20  1  0
 20 21  2  0
 11 22  1  0
 22 23  1  0
 23 24  1  0
 24 25  1  0
 25 26  1  0
  6 27  2  0
 27 28  1  0
 27  2  1  0
 26 11  1  0
 21 15  1  0
M  END
>  <ref_mols>  (1365) 
B1396a

>  <gnina_score>  (1365) 
5.168

>  <smina_score_min>  (1365) 
-3.173

>  <ref_pdb>  (1365) 
B1396a

>  <inspiration_score>  (1365) 
None

>  <inchikey>  (1365) 
OCDUISNYMGSOEF-UHFFFAOYSA-N

>  <tags>  (1365) 
BulkDock Fragalysis export,openbind_d68ev3c_c2_elabs_scored,openbind_d68ev3c_c2_elabs_scored_4.5plus,openbind_d68ev3c_c2_elabs,openbind_d68ev3c_c2_elabs_scored_5plus,syndirella_product,openbind_d68ev3c_c2_elabs_scored_top80percent,syndirella_placed

>  <smiles>  (1365) 
Cc1cccc(N(C)C(=O)C2(S(=O)(=O)c3ccc(F)cc3)CCCCC2)c1C

>  <subsites>  (1365) 
None

>  <rmsd(smina/fragmenstein)>  (1365) 
1.39

>  <alias>  (1365) 
None

>  <energy_score>  (1365) 
-8.986693

>  <HIPPO Pose ID>  (1365) 
95933

>  <distance_score>  (1365) 
0.841078

>  <HIPPO Compound ID>  (1365) 
129910

>  <gnina_score_min>  (1365) 
5.01

>  <name>  (1365) 
P95933

>  <exports>  (1365) 
['/opt/xchem-fragalysis-2/maxwin/BulkDock/OUTPUTS/openbind_d68ev3c_c2_elabs_1LOTQJ3.sdf', '/opt/xchem-fragalysis-2/maxwin/BulkDock/OUTPUTS/openbind_d68ev3c_c2_elabs_1LSYI5W.sdf']

$$$$
P95936
     RDKit          3D

 28 30  0  0  0  0  0  0  0  0999 V2000
   11.0103   -3.4474   14.9452 C   0  0  0  0  0  0  0  0  0  0  0  0
   12.4979   -2.8487   14.1846 S   0  0  0  0  0  0  0  0  0  0  0  0
   12.9485   -1.7413   15.4949 C   0  0  0  0  0  0  0  0  0  0  0  0
   12.5692   -0.4163   15.2564 C   0  0  0  0  0  0  0  0  0  0  0  0
   13.1092    0.6010   16.0160 C   0  0  0  0  0  0  0  0  0  0  0  0
   14.0848    0.2946   16.9560 C   0  0  0  0  0  0  0  0  0  0  0  0
   14.4349   -1.0320   17.2286 C   0  0  0  0  0  0  0  0  0  0  0  0
   15.5388   -1.2777   18.0456 N   0  0  0  0  0  0  0  0  0  0  0  0
   16.7283   -0.3486   18.4493 C   0  0  0  0  0  0  0  0  0  0  0  0
   16.9180    0.7846   18.2187 O   0  0  0  0  0  0  0  0  0  0  0  0
   17.7338   -1.1347   19.3220 C   0  0  0  0  0  0  0  0  0  0  0  0
   18.3620   -2.5285   18.3515 S   0  0  0  0  0  0  0  0  0  0  0  0
   19.6379   -2.9422   18.9048 O   0  0  0  0  0  0  0  0  0  0  0  0
   17.2805   -3.4992   18.2615 O   0  0  0  0  0  0  0  0  0  0  0  0
   18.7026   -2.0075   16.6786 C   0  0  0  0  0  0  0  0  0  0  0  0
   19.8580   -1.2693   16.4046 C   0  0  0  0  0  0  0  0  0  0  0  0
   20.1872   -0.9719   15.0796 C   0  0  0  0  0  0  0  0  0  0  0  0
   19.3794   -1.4323   14.0444 C   0  0  0  0  0  0  0  0  0  0  0  0
   19.7072   -1.1476   12.7782 F   0  0  0  0  0  0  0  0  0  0  0  0
   18.2423   -2.1876   14.3059 C   0  0  0  0  0  0  0  0  0  0  0  0
   17.9032   -2.4838   15.6279 C   0  0  0  0  0  0  0  0  0  0  0  0
   17.0599   -1.6857   20.6064 C   0  0  0  0  0  0  0  0  0  0  0  0
   16.6722   -0.5925   21.5999 C   0  0  0  0  0  0  0  0  0  0  0  0
   17.8792    0.2418   22.0026 C   0  0  0  0  0  0  0  0  0  0  0  0
   18.5667    0.8426   20.7855 C   0  0  0  0  0  0  0  0  0  0  0  0
   18.9237   -0.2205   19.7412 C   0  0  0  0  0  0  0  0  0  0  0  0
   13.7672   -2.0889   16.5905 C   0  0  0  0  0  0  0  0  0  0  0  0
   14.0119   -3.5144   17.0189 C   0  0  0  0  0  0  0  0  0  0  0  0
  1  2  1  0
  2  3  1  0
  3  4  2  0
  4  5  1  0
  5  6  2  0
  6  7  1  0
  7  8  1  0
  8  9  1  0
  9 10  2  0
  9 11  1  0
 11 12  1  0
 12 13  2  0
 12 14  2  0
 12 15  1  0
 15 16  2  0
 16 17  1  0
 17 18  2  0
 18 19  1  0
 18 20  1  0
 20 21  2  0
 11 22  1  0
 22 23  1  0
 23 24  1  0
 24 25  1  0
 25 26  1  0
  7 27  2  0
 27 28  1  0
 27  3  1  0
 26 11  1  0
 21 15  1  0
M  END
>  <ref_mols>  (1366) 
B1396a

>  <gnina_score>  (1366) 
5.277

>  <smina_score_min>  (1366) 
-3.439

>  <ref_pdb>  (1366) 
B1396a

>  <inspiration_score>  (1366) 
None

>  <inchikey>  (1366) 
GHWKWVCKQINCJA-UHFFFAOYSA-N

>  <tags>  (1366) 
BulkDock Fragalysis export,openbind_d68ev3c_c2_elabs_scored,openbind_d68ev3c_c2_elabs_scored_4.5plus,openbind_d68ev3c_c2_elabs,openbind_d68ev3c_c2_elabs_scored_5plus,syndirella_product,openbind_d68ev3c_c2_elabs_scored_top80percent,syndirella_placed

>  <smiles>  (1366) 
CSc1cccc(NC(=O)C2(S(=O)(=O)c3ccc(F)cc3)CCCCC2)c1C

>  <subsites>  (1366) 
None

>  <rmsd(smina/fragmenstein)>  (1366) 
2.512

>  <alias>  (1366) 
None

>  <energy_score>  (1366) 
-46.00107

>  <HIPPO Pose ID>  (1366) 
95936

>  <distance_score>  (1366) 
1.237223

>  <HIPPO Compound ID>  (1366) 
129914

>  <gnina_score_min>  (1366) 
5.033

>  <name>  (1366) 
P95936

>  <exports>  (1366) 
['/opt/xchem-fragalysis-2/maxwin/BulkDock/OUTPUTS/openbind_d68ev3c_c2_elabs_1LOTQJ3.sdf', '/opt/xchem-fragalysis-2/maxwin/BulkDock/OUTPUTS/openbind_d68ev3c_c2_elabs_1LSYI5W.sdf']

$$$$
P95937
     RDKit          3D

 28 30  0  0  0  0  0  0  0  0999 V2000
   14.7948   -5.0770   17.5677 C   0  0  0  0  0  0  0  0  0  0  0  0
   13.8516   -4.0150   18.0969 C   0  0  0  0  0  0  0  0  0  0  0  0
   13.5816   -2.8667   17.1469 C   0  0  0  0  0  0  0  0  0  0  0  0
   12.3624   -2.8400   16.4459 C   0  0  0  0  0  0  0  0  0  0  0  0
   11.9868   -1.6984   15.7363 C   0  0  0  0  0  0  0  0  0  0  0  0
   10.2350   -1.4865   15.0952 Br  0  0  0  0  0  0  0  0  0  0  0  0
   12.8525   -0.6254   15.6027 C   0  0  0  0  0  0  0  0  0  0  0  0
   14.0880   -0.6674   16.2345 C   0  0  0  0  0  0  0  0  0  0  0  0
   14.4489   -1.7621   17.0268 C   0  0  0  0  0  0  0  0  0  0  0  0
   15.6516   -1.7202   17.7277 N   0  0  0  0  0  0  0  0  0  0  0  0
   16.7325   -0.5936   17.8225 C   0  0  0  0  0  0  0  0  0  0  0  0
   16.8083    0.4343   17.2641 O   0  0  0  0  0  0  0  0  0  0  0  0
   17.7996   -0.9920   18.8713 C   0  0  0  0  0  0  0  0  0  0  0  0
   18.6301   -2.4619   18.2243 S   0  0  0  0  0  0  0  0  0  0  0  0
   17.6721   -3.5548   18.2847 O   0  0  0  0  0  0  0  0  0  0  0  0
   19.9110   -2.6062   18.8886 O   0  0  0  0  0  0  0  0  0  0  0  0
   18.9751   -2.1632   16.4999 C   0  0  0  0  0  0  0  0  0  0  0  0
   20.0970   -1.4051   16.1484 C   0  0  0  0  0  0  0  0  0  0  0  0
   20.3848   -1.1872   14.8007 C   0  0  0  0  0  0  0  0  0  0  0  0
   19.5688   -1.7453   13.8229 C   0  0  0  0  0  0  0  0  0  0  0  0
   19.8519   -1.5336   12.5318 F   0  0  0  0  0  0  0  0  0  0  0  0
   18.4695   -2.5259   14.1648 C   0  0  0  0  0  0  0  0  0  0  0  0
   18.1706   -2.7462   15.5110 C   0  0  0  0  0  0  0  0  0  0  0  0
   18.8347    0.1554   19.0579 C   0  0  0  0  0  0  0  0  0  0  0  0
   18.2856    1.3725   19.8095 C   0  0  0  0  0  0  0  0  0  0  0  0
   17.6510    0.9878   21.1380 C   0  0  0  0  0  0  0  0  0  0  0  0
   16.6004   -0.0983   20.9564 C   0  0  0  0  0  0  0  0  0  0  0  0
   17.1853   -1.3225   20.2554 C   0  0  0  0  0  0  0  0  0  0  0  0
  1  2  1  0
  2  3  1  0
  3  4  2  0
  4  5  1  0
  5  6  1  0
  5  7  2  0
  7  8  1  0
  8  9  2  0
  9 10  1  0
 10 11  1  0
 11 12  2  0
 11 13  1  0
 13 14  1  0
 14 15  2  0
 14 16  2  0
 14 17  1  0
 17 18  2  0
 18 19  1  0
 19 20  2  0
 20 21  1  0
 20 22  1  0
 22 23  2  0
 13 24  1  0
 24 25  1  0
 25 26  1  0
 26 27  1  0
 27 28  1  0
  9  3  1  0
 28 13  1  0
 23 17  1  0
M  END
>  <ref_mols>  (1367) 
B1396a

>  <gnina_score>  (1367) 
5.537

>  <smina_score_min>  (1367) 
-3.136

>  <ref_pdb>  (1367) 
B1396a

>  <inspiration_score>  (1367) 
None

>  <inchikey>  (1367) 
SFVXWNOODZYXIU-UHFFFAOYSA-N

>  <tags>  (1367) 
BulkDock Fragalysis export,openbind_d68ev3c_c2_elabs_scored,openbind_d68ev3c_c2_elabs_scored_4.5plus,openbind_d68ev3c_c2_elabs,openbind_d68ev3c_c2_elabs_scored_5plus,syndirella_product,openbind_d68ev3c_c2_elabs_scored_top80percent,syndirella_placed

>  <smiles>  (1367) 
CCc1cc(Br)ccc1NC(=O)C1(S(=O)(=O)c2ccc(F)cc2)CCCCC1

>  <subsites>  (1367) 
None

>  <rmsd(smina/fragmenstein)>  (1367) 
4.45

>  <alias>  (1367) 
None

>  <energy_score>  (1367) 
-47.30292

>  <HIPPO Pose ID>  (1367) 
95937

>  <distance_score>  (1367) 
0.684302

>  <HIPPO Compound ID>  (1367) 
129915

>  <gnina_score_min>  (1367) 
5.142

>  <name>  (1367) 
P95937

>  <exports>  (1367) 
['/opt/xchem-fragalysis-2/maxwin/BulkDock/OUTPUTS/openbind_d68ev3c_c2_elabs_1LOTQJ3.sdf', '/opt/xchem-fragalysis-2/maxwin/BulkDock/OUTPUTS/openbind_d68ev3c_c2_elabs_1LSYI5W.sdf']

$$$$
P95938
     RDKit          3D

 28 30  0  0  0  0  0  0  0  0999 V2000
   13.9039   -3.9711   17.4527 C   0  0  0  0  0  0  0  0  0  0  0  0
   13.4532   -2.6523   16.8703 C   0  0  0  0  0  0  0  0  0  0  0  0
   12.2053   -2.6143   16.2166 C   0  0  0  0  0  0  0  0  0  0  0  0
   11.6994   -1.4059   15.7510 C   0  0  0  0  0  0  0  0  0  0  0  0
    9.9205   -1.2404   15.1601 Br  0  0  0  0  0  0  0  0  0  0  0  0
   12.4356   -0.2412   15.8706 C   0  0  0  0  0  0  0  0  0  0  0  0
   13.6720   -0.2556   16.5175 C   0  0  0  0  0  0  0  0  0  0  0  0
   14.2723    1.3236   16.8882 Cl  0  0  0  0  0  0  0  0  0  0  0  0
   14.2170   -1.4614   17.0053 C   0  0  0  0  0  0  0  0  0  0  0  0
   15.4486   -1.5556   17.6799 N   0  0  0  0  0  0  0  0  0  0  0  0
   16.6887   -0.5980   17.6711 C   0  0  0  0  0  0  0  0  0  0  0  0
   16.8967    0.3689   17.0414 O   0  0  0  0  0  0  0  0  0  0  0  0
   17.7017   -1.0454   18.7583 C   0  0  0  0  0  0  0  0  0  0  0  0
   18.4298   -2.5769   18.1477 S   0  0  0  0  0  0  0  0  0  0  0  0
   19.6596   -2.8357   18.8716 O   0  0  0  0  0  0  0  0  0  0  0  0
   17.3783   -3.5827   18.1467 O   0  0  0  0  0  0  0  0  0  0  0  0
   18.8804   -2.2849   16.4473 C   0  0  0  0  0  0  0  0  0  0  0  0
   20.0443   -1.5640   16.1598 C   0  0  0  0  0  0  0  0  0  0  0  0
   20.3958   -1.3306   14.8301 C   0  0  0  0  0  0  0  0  0  0  0  0
   19.5992   -1.8355   13.8083 C   0  0  0  0  0  0  0  0  0  0  0  0
   19.9437   -1.6100   12.5345 F   0  0  0  0  0  0  0  0  0  0  0  0
   18.4555   -2.5771   14.0880 C   0  0  0  0  0  0  0  0  0  0  0  0
   18.0917   -2.8118   15.4156 C   0  0  0  0  0  0  0  0  0  0  0  0
   18.8141    0.0366   18.9499 C   0  0  0  0  0  0  0  0  0  0  0  0
   18.5161    1.0729   20.0447 C   0  0  0  0  0  0  0  0  0  0  0  0
   17.0300    1.2693   20.2972 C   0  0  0  0  0  0  0  0  0  0  0  0
   16.3398   -0.0376   20.6810 C   0  0  0  0  0  0  0  0  0  0  0  0
   17.0442   -1.2832   20.1356 C   0  0  0  0  0  0  0  0  0  0  0  0
  1  2  1  0
  2  3  2  0
  3  4  1  0
  4  5  1  0
  4  6  2  0
  6  7  1  0
  7  8  1  0
  7  9  2  0
  9 10  1  0
 10 11  1  0
 11 12  2  0
 11 13  1  0
 13 14  1  0
 14 15  2  0
 14 16  2  0
 14 17  1  0
 17 18  2  0
 18 19  1  0
 19 20  2  0
 20 21  1  0
 20 22  1  0
 22 23  2  0
 13 24  1  0
 24 25  1  0
 25 26  1  0
 26 27  1  0
 27 28  1  0
  9  2  1  0
 28 13  1  0
 23 17  1  0
M  END
>  <ref_mols>  (1368) 
B1396a

>  <gnina_score>  (1368) 
5.695

>  <smina_score_min>  (1368) 
-3.81

>  <ref_pdb>  (1368) 
B1396a

>  <inspiration_score>  (1368) 
None

>  <inchikey>  (1368) 
XCVRAZNDUNZKFO-UHFFFAOYSA-N

>  <tags>  (1368) 
BulkDock Fragalysis export,openbind_d68ev3c_c2_elabs_scored,openbind_d68ev3c_c2_elabs_scored_4.5plus,openbind_d68ev3c_c2_elabs,openbind_d68ev3c_c2_elabs_scored_5plus,syndirella_product,openbind_d68ev3c_c2_elabs_scored_top80percent,syndirella_placed

>  <smiles>  (1368) 
Cc1cc(Br)cc(Cl)c1NC(=O)C1(S(=O)(=O)c2ccc(F)cc2)CCCCC1

>  <subsites>  (1368) 
None

>  <rmsd(smina/fragmenstein)>  (1368) 
3.163

>  <alias>  (1368) 
None

>  <energy_score>  (1368) 
-40.057471

>  <HIPPO Pose ID>  (1368) 
95938

>  <distance_score>  (1368) 
0.631232

>  <HIPPO Compound ID>  (1368) 
129916

>  <gnina_score_min>  (1368) 
5.243

>  <name>  (1368) 
P95938

>  <exports>  (1368) 
['/opt/xchem-fragalysis-2/maxwin/BulkDock/OUTPUTS/openbind_d68ev3c_c2_elabs_1LOTQJ3.sdf', '/opt/xchem-fragalysis-2/maxwin/BulkDock/OUTPUTS/openbind_d68ev3c_c2_elabs_1LSYI5W.sdf']

$$$$
P95939
     RDKit          3D

 28 30  0  0  0  0  0  0  0  0999 V2000
   14.4016    1.4590   14.6381 C   0  0  0  0  0  0  0  0  0  0  0  0
   13.7138    1.1464   16.2870 S   0  0  0  0  0  0  0  0  0  0  0  0
   13.2986   -0.5884   16.0944 C   0  0  0  0  0  0  0  0  0  0  0  0
   12.1360   -0.8223   15.3325 C   0  0  0  0  0  0  0  0  0  0  0  0
   11.5561   -2.0819   15.2685 C   0  0  0  0  0  0  0  0  0  0  0  0
   12.1083   -3.1192   16.0044 C   0  0  0  0  0  0  0  0  0  0  0  0
   13.2674   -2.9254   16.7760 C   0  0  0  0  0  0  0  0  0  0  0  0
   13.7953   -4.1073   17.5534 C   0  0  0  0  0  0  0  0  0  0  0  0
   13.9059   -1.6582   16.7911 C   0  0  0  0  0  0  0  0  0  0  0  0
   15.1020   -1.5798   17.5347 N   0  0  0  0  0  0  0  0  0  0  0  0
   16.2928   -0.5656   17.4417 C   0  0  0  0  0  0  0  0  0  0  0  0
   16.4901    0.3067   16.6824 O   0  0  0  0  0  0  0  0  0  0  0  0
   17.3045   -0.8312   18.5981 C   0  0  0  0  0  0  0  0  0  0  0  0
   18.1925   -2.3383   18.1387 S   0  0  0  0  0  0  0  0  0  0  0  0
   19.4090   -2.4487   18.9215 O   0  0  0  0  0  0  0  0  0  0  0  0
   17.2401   -3.4373   18.1677 O   0  0  0  0  0  0  0  0  0  0  0  0
   18.7079   -2.1463   16.4396 C   0  0  0  0  0  0  0  0  0  0  0  0
   17.9270   -2.6802   15.4061 C   0  0  0  0  0  0  0  0  0  0  0  0
   18.3503   -2.5331   14.0832 C   0  0  0  0  0  0  0  0  0  0  0  0
   19.5483   -1.8793   13.8109 C   0  0  0  0  0  0  0  0  0  0  0  0
   19.9485   -1.7377   12.5412 F   0  0  0  0  0  0  0  0  0  0  0  0
   20.3413   -1.3764   14.8360 C   0  0  0  0  0  0  0  0  0  0  0  0
   19.9286   -1.5200   16.1606 C   0  0  0  0  0  0  0  0  0  0  0  0
   16.5848   -0.9966   19.9618 C   0  0  0  0  0  0  0  0  0  0  0  0
   17.5025   -0.9219   21.1817 C   0  0  0  0  0  0  0  0  0  0  0  0
   18.3299    0.3517   21.1953 C   0  0  0  0  0  0  0  0  0  0  0  0
   19.1395    0.4924   19.9176 C   0  0  0  0  0  0  0  0  0  0  0  0
   18.2565    0.4014   18.6754 C   0  0  0  0  0  0  0  0  0  0  0  0
  1  2  1  0
  2  3  1  0
  3  4  2  0
  4  5  1  0
  5  6  2  0
  6  7  1  0
  7  8  1  0
  7  9  2  0
  9 10  1  0
 10 11  1  0
 11 12  2  0
 11 13  1  0
 13 14  1  0
 14 15  2  0
 14 16  2  0
 14 17  1  0
 17 18  2  0
 18 19  1  0
 19 20  2  0
 20 21  1  0
 20 22  1  0
 22 23  2  0
 13 24  1  0
 24 25  1  0
 25 26  1  0
 26 27  1  0
 27 28  1  0
  9  3  1  0
 28 13  1  0
 23 17  1  0
M  END
>  <ref_mols>  (1369) 
B1396a

>  <gnina_score>  (1369) 
5.241

>  <smina_score_min>  (1369) 
-3.819

>  <ref_pdb>  (1369) 
B1396a

>  <inspiration_score>  (1369) 
None

>  <inchikey>  (1369) 
KUIVYRRWMNPOMD-UHFFFAOYSA-N

>  <tags>  (1369) 
BulkDock Fragalysis export,openbind_d68ev3c_c2_elabs_scored,openbind_d68ev3c_c2_elabs_scored_4.5plus,openbind_d68ev3c_c2_elabs,openbind_d68ev3c_c2_elabs_scored_5plus,syndirella_product,openbind_d68ev3c_c2_elabs_scored_top80percent,syndirella_placed

>  <smiles>  (1369) 
CSc1cccc(C)c1NC(=O)C1(S(=O)(=O)c2ccc(F)cc2)CCCCC1

>  <subsites>  (1369) 
None

>  <rmsd(smina/fragmenstein)>  (1369) 
2.126

>  <alias>  (1369) 
None

>  <energy_score>  (1369) 
-56.569236

>  <HIPPO Pose ID>  (1369) 
95939

>  <distance_score>  (1369) 
0.381083

>  <HIPPO Compound ID>  (1369) 
129917

>  <gnina_score_min>  (1369) 
5.311

>  <name>  (1369) 
P95939

>  <exports>  (1369) 
['/opt/xchem-fragalysis-2/maxwin/BulkDock/OUTPUTS/openbind_d68ev3c_c2_elabs_1LOTQJ3.sdf', '/opt/xchem-fragalysis-2/maxwin/BulkDock/OUTPUTS/openbind_d68ev3c_c2_elabs_1LSYI5W.sdf']

$$$$
P95940
     RDKit          3D

 28 30  0  0  0  0  0  0  0  0999 V2000
   14.1556   -5.0026   18.3260 N   0  0  0  0  0  0  0  0  0  0  0  0
   13.7537   -4.1310   17.6776 C   0  0  0  0  0  0  0  0  0  0  0  0
   13.3177   -3.0261   16.8768 C   0  0  0  0  0  0  0  0  0  0  0  0
   12.1563   -3.1698   16.1026 C   0  0  0  0  0  0  0  0  0  0  0  0
   11.6991   -2.1209   15.3060 C   0  0  0  0  0  0  0  0  0  0  0  0
   12.4086   -0.9247   15.2849 C   0  0  0  0  0  0  0  0  0  0  0  0
   11.7847    0.5047   14.2163 Br  0  0  0  0  0  0  0  0  0  0  0  0
   13.5734   -0.7711   16.0426 C   0  0  0  0  0  0  0  0  0  0  0  0
   14.0406   -1.8212   16.8424 C   0  0  0  0  0  0  0  0  0  0  0  0
   15.2032   -1.6578   17.6118 N   0  0  0  0  0  0  0  0  0  0  0  0
   16.2667   -0.5104   17.6134 C   0  0  0  0  0  0  0  0  0  0  0  0
   16.2885    0.5050   17.0278 O   0  0  0  0  0  0  0  0  0  0  0  0
   17.3761   -0.8293   18.6665 C   0  0  0  0  0  0  0  0  0  0  0  0
   18.2541   -2.3025   18.0999 S   0  0  0  0  0  0  0  0  0  0  0  0
   17.2968   -3.3968   18.1043 O   0  0  0  0  0  0  0  0  0  0  0  0
   19.4972   -2.4490   18.8312 O   0  0  0  0  0  0  0  0  0  0  0  0
   18.7074   -2.0379   16.3953 C   0  0  0  0  0  0  0  0  0  0  0  0
   19.8992   -1.3663   16.0994 C   0  0  0  0  0  0  0  0  0  0  0  0
   20.2846   -1.2030   14.7688 C   0  0  0  0  0  0  0  0  0  0  0  0
   19.4956   -1.7332   13.7541 C   0  0  0  0  0  0  0  0  0  0  0  0
   19.8719   -1.5753   12.4792 F   0  0  0  0  0  0  0  0  0  0  0  0
   18.3277   -2.4325   14.0424 C   0  0  0  0  0  0  0  0  0  0  0  0
   17.9312   -2.5973   15.3712 C   0  0  0  0  0  0  0  0  0  0  0  0
   16.7190   -1.0742   20.0516 C   0  0  0  0  0  0  0  0  0  0  0  0
   17.6954   -1.0712   21.2271 C   0  0  0  0  0  0  0  0  0  0  0  0
   18.5257    0.2011   21.2733 C   0  0  0  0  0  0  0  0  0  0  0  0
   19.2651    0.4294   19.9648 C   0  0  0  0  0  0  0  0  0  0  0  0
   18.3178    0.4069   18.7668 C   0  0  0  0  0  0  0  0  0  0  0  0
  1  2  3  0
  2  3  1  0
  3  4  2  0
  4  5  1  0
  5  6  2  0
  6  7  1  0
  6  8  1  0
  8  9  2  0
  9 10  1  0
 10 11  1  0
 11 12  2  0
 11 13  1  0
 13 14  1  0
 14 15  2  0
 14 16  2  0
 14 17  1  0
 17 18  2  0
 18 19  1  0
 19 20  2  0
 20 21  1  0
 20 22  1  0
 22 23  2  0
 13 24  1  0
 24 25  1  0
 25 26  1  0
 26 27  1  0
 27 28  1  0
  9  3  1  0
 28 13  1  0
 23 17  1  0
M  END
>  <ref_mols>  (1370) 
B1396a

>  <gnina_score>  (1370) 
5.478

>  <smina_score_min>  (1370) 
-3.797

>  <ref_pdb>  (1370) 
B1396a

>  <inspiration_score>  (1370) 
None

>  <inchikey>  (1370) 
NVYYBKFUIGHURH-UHFFFAOYSA-N

>  <tags>  (1370) 
BulkDock Fragalysis export,openbind_d68ev3c_c2_elabs_scored,openbind_d68ev3c_c2_elabs_scored_4.5plus,openbind_d68ev3c_c2_elabs,openbind_d68ev3c_c2_elabs_scored_5plus,syndirella_product,openbind_d68ev3c_c2_elabs_scored_top80percent,syndirella_placed

>  <smiles>  (1370) 
N#Cc1ccc(Br)cc1NC(=O)C1(S(=O)(=O)c2ccc(F)cc2)CCCCC1

>  <subsites>  (1370) 
None

>  <rmsd(smina/fragmenstein)>  (1370) 
1.528

>  <alias>  (1370) 
None

>  <energy_score>  (1370) 
-39.110186

>  <HIPPO Pose ID>  (1370) 
95940

>  <distance_score>  (1370) 
0.446823

>  <HIPPO Compound ID>  (1370) 
129918

>  <gnina_score_min>  (1370) 
5.374

>  <name>  (1370) 
P95940

>  <exports>  (1370) 
['/opt/xchem-fragalysis-2/maxwin/BulkDock/OUTPUTS/openbind_d68ev3c_c2_elabs_1LOTQJ3.sdf', '/opt/xchem-fragalysis-2/maxwin/BulkDock/OUTPUTS/openbind_d68ev3c_c2_elabs_1LSYI5W.sdf']

$$$$
P95941
     RDKit          3D

 28 30  0  0  0  0  0  0  0  0999 V2000
   14.1766   -4.9484   18.2100 N   0  0  0  0  0  0  0  0  0  0  0  0
   13.7844   -4.0416   17.6042 C   0  0  0  0  0  0  0  0  0  0  0  0
   13.3913   -2.8834   16.8651 C   0  0  0  0  0  0  0  0  0  0  0  0
   12.2448   -2.9444   16.0735 C   0  0  0  0  0  0  0  0  0  0  0  0
   11.5317   -4.0709   16.0201 F   0  0  0  0  0  0  0  0  0  0  0  0
   11.8062   -1.8569   15.3268 C   0  0  0  0  0  0  0  0  0  0  0  0
   12.5347   -0.6760   15.3663 C   0  0  0  0  0  0  0  0  0  0  0  0
   13.6960   -0.5988   16.1434 C   0  0  0  0  0  0  0  0  0  0  0  0
   14.1373   -1.6972   16.8949 C   0  0  0  0  0  0  0  0  0  0  0  0
   15.3010   -1.5906   17.6701 N   0  0  0  0  0  0  0  0  0  0  0  0
   16.3884   -0.4681   17.7190 C   0  0  0  0  0  0  0  0  0  0  0  0
   16.4329    0.5694   17.1755 O   0  0  0  0  0  0  0  0  0  0  0  0
   17.4854   -0.8507   18.7540 C   0  0  0  0  0  0  0  0  0  0  0  0
   18.3239   -2.3321   18.1390 S   0  0  0  0  0  0  0  0  0  0  0  0
   17.3447   -3.4063   18.1434 O   0  0  0  0  0  0  0  0  0  0  0  0
   19.5726   -2.4998   18.8584 O   0  0  0  0  0  0  0  0  0  0  0  0
   18.7540   -2.0429   16.4341 C   0  0  0  0  0  0  0  0  0  0  0  0
   17.9904   -2.6268   15.4136 C   0  0  0  0  0  0  0  0  0  0  0  0
   18.3688   -2.4422   14.0823 C   0  0  0  0  0  0  0  0  0  0  0  0
   19.5057   -1.6962   13.7876 C   0  0  0  0  0  0  0  0  0  0  0  0
   19.8650   -1.5188   12.5104 F   0  0  0  0  0  0  0  0  0  0  0  0
   20.2813   -1.1387   14.7984 C   0  0  0  0  0  0  0  0  0  0  0  0
   19.9143   -1.3219   16.1318 C   0  0  0  0  0  0  0  0  0  0  0  0
   16.8911   -1.1590   20.1530 C   0  0  0  0  0  0  0  0  0  0  0  0
   16.3158    0.0752   20.8440 C   0  0  0  0  0  0  0  0  0  0  0  0
   17.3703    1.1619   20.9956 C   0  0  0  0  0  0  0  0  0  0  0  0
   17.9830    1.5302   19.6524 C   0  0  0  0  0  0  0  0  0  0  0  0
   18.5180    0.3049   18.9036 C   0  0  0  0  0  0  0  0  0  0  0  0
  1  2  3  0
  2  3  1  0
  3  4  2  0
  4  5  1  0
  4  6  1  0
  6  7  2  0
  7  8  1  0
  8  9  2  0
  9 10  1  0
 10 11  1  0
 11 12  2  0
 11 13  1  0
 13 14  1  0
 14 15  2  0
 14 16  2  0
 14 17  1  0
 17 18  2  0
 18 19  1  0
 19 20  2  0
 20 21  1  0
 20 22  1  0
 22 23  2  0
 13 24  1  0
 24 25  1  0
 25 26  1  0
 26 27  1  0
 27 28  1  0
  9  3  1  0
 28 13  1  0
 23 17  1  0
M  END
>  <ref_mols>  (1371) 
B1396a

>  <gnina_score>  (1371) 
5.366

>  <smina_score_min>  (1371) 
-3.94

>  <ref_pdb>  (1371) 
B1396a

>  <inspiration_score>  (1371) 
None

>  <inchikey>  (1371) 
TWVFUUKYHCRLBB-UHFFFAOYSA-N

>  <tags>  (1371) 
BulkDock Fragalysis export,openbind_d68ev3c_c2_elabs_scored,openbind_d68ev3c_c2_elabs_scored_4.5plus,openbind_d68ev3c_c2_elabs,openbind_d68ev3c_c2_elabs_scored_5plus,syndirella_product,openbind_d68ev3c_c2_elabs_scored_top80percent,syndirella_placed

>  <smiles>  (1371) 
N#Cc1c(F)cccc1NC(=O)C1(S(=O)(=O)c2ccc(F)cc2)CCCCC1

>  <subsites>  (1371) 
None

>  <rmsd(smina/fragmenstein)>  (1371) 
2.105

>  <alias>  (1371) 
None

>  <energy_score>  (1371) 
-43.506214

>  <HIPPO Pose ID>  (1371) 
95941

>  <distance_score>  (1371) 
0.520073

>  <HIPPO Compound ID>  (1371) 
129919

>  <gnina_score_min>  (1371) 
5.286

>  <name>  (1371) 
P95941

>  <exports>  (1371) 
['/opt/xchem-fragalysis-2/maxwin/BulkDock/OUTPUTS/openbind_d68ev3c_c2_elabs_1LOTQJ3.sdf', '/opt/xchem-fragalysis-2/maxwin/BulkDock/OUTPUTS/openbind_d68ev3c_c2_elabs_1LSYI5W.sdf']

$$$$
P95943
     RDKit          3D

 28 31  0  0  0  0  0  0  0  0999 V2000
   16.5305   -1.7100   15.9625 O   0  0  0  0  0  0  0  0  0  0  0  0
   16.1899   -1.4810   17.0641 C   0  0  0  0  0  0  0  0  0  0  0  0
   14.8109   -1.4377   17.6684 N   0  0  0  0  0  0  0  0  0  0  0  0
   14.3793   -2.8753   18.2398 C   0  0  0  0  0  0  0  0  0  0  0  0
   13.7935   -3.8383   17.2412 C   0  0  0  0  0  0  0  0  0  0  0  0
   12.9921   -2.7904   16.6366 C   0  0  0  0  0  0  0  0  0  0  0  0
   11.9299   -2.8732   15.7583 C   0  0  0  0  0  0  0  0  0  0  0  0
   11.4793   -4.0570   15.3463 F   0  0  0  0  0  0  0  0  0  0  0  0
   11.3327   -1.7188   15.2707 C   0  0  0  0  0  0  0  0  0  0  0  0
   11.8374   -0.4761   15.6465 C   0  0  0  0  0  0  0  0  0  0  0  0
   12.9336   -0.4041   16.5120 C   0  0  0  0  0  0  0  0  0  0  0  0
   13.4928   -1.5694   17.0462 C   0  0  0  0  0  0  0  0  0  0  0  0
   17.2384   -1.0452   18.1216 C   0  0  0  0  0  0  0  0  0  0  0  0
   18.5116   -2.3702   18.0448 S   0  0  0  0  0  0  0  0  0  0  0  0
   19.6260   -1.9913   18.8975 O   0  0  0  0  0  0  0  0  0  0  0  0
   17.8465   -3.6425   18.2782 O   0  0  0  0  0  0  0  0  0  0  0  0
   19.1692   -2.4131   16.3831 C   0  0  0  0  0  0  0  0  0  0  0  0
   18.7758   -3.4299   15.5011 C   0  0  0  0  0  0  0  0  0  0  0  0
   19.2292   -3.4063   14.1817 C   0  0  0  0  0  0  0  0  0  0  0  0
   20.0867   -2.3910   13.7695 C   0  0  0  0  0  0  0  0  0  0  0  0
   20.5236   -2.3702   12.5039 F   0  0  0  0  0  0  0  0  0  0  0  0
   20.5238   -1.4120   14.6567 C   0  0  0  0  0  0  0  0  0  0  0  0
   20.0790   -1.4297   15.9780 C   0  0  0  0  0  0  0  0  0  0  0  0
   17.8359    0.3114   17.6782 C   0  0  0  0  0  0  0  0  0  0  0  0
   16.9237    1.4980   17.9867 C   0  0  0  0  0  0  0  0  0  0  0  0
   16.5973    1.5755   19.4701 C   0  0  0  0  0  0  0  0  0  0  0  0
   15.9553    0.2872   19.9613 C   0  0  0  0  0  0  0  0  0  0  0  0
   16.7921   -0.9450   19.6072 C   0  0  0  0  0  0  0  0  0  0  0  0
  1  2  2  0
  2  3  1  0
  3  4  1  0
  4  5  1  0
  5  6  1  0
  6  7  2  0
  7  8  1  0
  7  9  1  0
  9 10  2  0
 10 11  1  0
 11 12  2  0
  2 13  1  0
 13 14  1  0
 14 15  2  0
 14 16  2  0
 14 17  1  0
 17 18  2  0
 18 19  1  0
 19 20  2  0
 20 21  1  0
 20 22  1  0
 22 23  2  0
 13 24  1  0
 24 25  1  0
 25 26  1  0
 26 27  1  0
 27 28  1  0
 12  3  1  0
 28 13  1  0
 12  6  1  0
 23 17  1  0
M  END
>  <ref_mols>  (1372) 
B1396a

>  <gnina_score>  (1372) 
5.196

>  <smina_score_min>  (1372) 
-4.089

>  <ref_pdb>  (1372) 
B1396a

>  <inspiration_score>  (1372) 
None

>  <inchikey>  (1372) 
AEKVHVPCANZRFX-UHFFFAOYSA-N

>  <tags>  (1372) 
BulkDock Fragalysis export,openbind_d68ev3c_c2_elabs_scored,openbind_d68ev3c_c2_elabs_scored_4.5plus,openbind_d68ev3c_c2_elabs,openbind_d68ev3c_c2_elabs_scored_5plus,syndirella_product,openbind_d68ev3c_c2_elabs_scored_top80percent,syndirella_placed

>  <smiles>  (1372) 
O=C(N1CCc2c(F)cccc21)C1(S(=O)(=O)c2ccc(F)cc2)CCCCC1

>  <subsites>  (1372) 
None

>  <rmsd(smina/fragmenstein)>  (1372) 
2.619

>  <alias>  (1372) 
None

>  <energy_score>  (1372) 
-5.716163

>  <HIPPO Pose ID>  (1372) 
95943

>  <distance_score>  (1372) 
0.591134

>  <HIPPO Compound ID>  (1372) 
129921

>  <gnina_score_min>  (1372) 
5.195

>  <name>  (1372) 
P95943

>  <exports>  (1372) 
['/opt/xchem-fragalysis-2/maxwin/BulkDock/OUTPUTS/openbind_d68ev3c_c2_elabs_1LOTQJ3.sdf', '/opt/xchem-fragalysis-2/maxwin/BulkDock/OUTPUTS/openbind_d68ev3c_c2_elabs_1LSYI5W.sdf']

$$$$
P95944
     RDKit          3D

 28 30  0  0  0  0  0  0  0  0999 V2000
   13.9913   -4.0813   17.5613 C   0  0  0  0  0  0  0  0  0  0  0  0
   13.5049   -2.7965   16.9323 C   0  0  0  0  0  0  0  0  0  0  0  0
   12.2749   -2.8391   16.2542 C   0  0  0  0  0  0  0  0  0  0  0  0
   11.7461   -1.6821   15.7077 C   0  0  0  0  0  0  0  0  0  0  0  0
   10.1721   -1.6641   15.0458 Cl  0  0  0  0  0  0  0  0  0  0  0  0
   12.4379   -0.4867   15.7928 C   0  0  0  0  0  0  0  0  0  0  0  0
   13.6661   -0.4025   16.4734 C   0  0  0  0  0  0  0  0  0  0  0  0
   14.2248    0.9873   16.5971 C   0  0  0  0  0  0  0  0  0  0  0  0
   14.2287   -1.5727   17.0272 C   0  0  0  0  0  0  0  0  0  0  0  0
   15.4515   -1.6286   17.7225 N   0  0  0  0  0  0  0  0  0  0  0  0
   16.6267   -0.5956   17.7975 C   0  0  0  0  0  0  0  0  0  0  0  0
   16.7833    0.4188   17.2304 O   0  0  0  0  0  0  0  0  0  0  0  0
   17.6600   -1.0585   18.8542 C   0  0  0  0  0  0  0  0  0  0  0  0
   18.4366   -2.5460   18.1885 S   0  0  0  0  0  0  0  0  0  0  0  0
   17.4289   -3.5955   18.1941 O   0  0  0  0  0  0  0  0  0  0  0  0
   19.6937   -2.7634   18.8791 O   0  0  0  0  0  0  0  0  0  0  0  0
   18.8387   -2.2185   16.4821 C   0  0  0  0  0  0  0  0  0  0  0  0
   20.0169   -1.5291   16.1748 C   0  0  0  0  0  0  0  0  0  0  0  0
   20.3466   -1.2929   14.8399 C   0  0  0  0  0  0  0  0  0  0  0  0
   19.5147   -1.7658   13.8310 C   0  0  0  0  0  0  0  0  0  0  0  0
   19.8373   -1.5363   12.5523 F   0  0  0  0  0  0  0  0  0  0  0  0
   18.3572   -2.4781   14.1289 C   0  0  0  0  0  0  0  0  0  0  0  0
   18.0161   -2.7159   15.4621 C   0  0  0  0  0  0  0  0  0  0  0  0
   18.7396    0.0431   19.0712 C   0  0  0  0  0  0  0  0  0  0  0  0
   18.2252    1.2737   19.8259 C   0  0  0  0  0  0  0  0  0  0  0  0
   17.5558    0.9017   21.1411 C   0  0  0  0  0  0  0  0  0  0  0  0
   16.4716   -0.1467   20.9358 C   0  0  0  0  0  0  0  0  0  0  0  0
   17.0249   -1.3830   20.2300 C   0  0  0  0  0  0  0  0  0  0  0  0
  1  2  1  0
  2  3  2  0
  3  4  1  0
  4  5  1  0
  4  6  2  0
  6  7  1  0
  7  8  1  0
  7  9  2  0
  9 10  1  0
 10 11  1  0
 11 12  2  0
 11 13  1  0
 13 14  1  0
 14 15  2  0
 14 16  2  0
 14 17  1  0
 17 18  2  0
 18 19  1  0
 19 20  2  0
 20 21  1  0
 20 22  1  0
 22 23  2  0
 13 24  1  0
 24 25  1  0
 25 26  1  0
 26 27  1  0
 27 28  1  0
  9  2  1  0
 28 13  1  0
 23 17  1  0
M  END
>  <ref_mols>  (1373) 
B1396a

>  <gnina_score>  (1373) 
5.465

>  <smina_score_min>  (1373) 
-3.569

>  <ref_pdb>  (1373) 
B1396a

>  <inspiration_score>  (1373) 
None

>  <inchikey>  (1373) 
HTTIRGGVWZWMNW-UHFFFAOYSA-N

>  <tags>  (1373) 
BulkDock Fragalysis export,openbind_d68ev3c_c2_elabs_scored,openbind_d68ev3c_c2_elabs_scored_4.5plus,openbind_d68ev3c_c2_elabs,openbind_d68ev3c_c2_elabs_scored_5plus,syndirella_product,openbind_d68ev3c_c2_elabs_scored_top80percent,syndirella_placed

>  <smiles>  (1373) 
Cc1cc(Cl)cc(C)c1NC(=O)C1(S(=O)(=O)c2ccc(F)cc2)CCCCC1

>  <subsites>  (1373) 
None

>  <rmsd(smina/fragmenstein)>  (1373) 
2.042

>  <alias>  (1373) 
None

>  <energy_score>  (1373) 
-65.322405

>  <HIPPO Pose ID>  (1373) 
95944

>  <distance_score>  (1373) 
0.594922

>  <HIPPO Compound ID>  (1373) 
129922

>  <gnina_score_min>  (1373) 
5.331

>  <name>  (1373) 
P95944

>  <exports>  (1373) 
['/opt/xchem-fragalysis-2/maxwin/BulkDock/OUTPUTS/openbind_d68ev3c_c2_elabs_1LOTQJ3.sdf', '/opt/xchem-fragalysis-2/maxwin/BulkDock/OUTPUTS/openbind_d68ev3c_c2_elabs_1LSYI5W.sdf']

$$$$
P95945
     RDKit          3D

 28 30  0  0  0  0  0  0  0  0999 V2000
   13.2093    0.5244   12.9934 C   0  0  0  0  0  0  0  0  0  0  0  0
   11.8195    0.4377   14.1559 S   0  0  0  0  0  0  0  0  0  0  0  0
   12.4029   -0.8890   15.1969 C   0  0  0  0  0  0  0  0  0  0  0  0
   11.6878   -2.0830   15.2400 C   0  0  0  0  0  0  0  0  0  0  0  0
   12.1348   -3.1320   16.0435 C   0  0  0  0  0  0  0  0  0  0  0  0
   13.2961   -3.0067   16.8232 C   0  0  0  0  0  0  0  0  0  0  0  0
   13.7330   -4.1731   17.6667 C   0  0  0  0  0  0  0  0  0  0  0  0
   14.0098   -1.7984   16.7860 C   0  0  0  0  0  0  0  0  0  0  0  0
   15.1588   -1.6397   17.5661 N   0  0  0  0  0  0  0  0  0  0  0  0
   16.2408   -0.5099   17.5618 C   0  0  0  0  0  0  0  0  0  0  0  0
   16.2879    0.4937   16.9575 O   0  0  0  0  0  0  0  0  0  0  0  0
   17.3203   -0.8335   18.6345 C   0  0  0  0  0  0  0  0  0  0  0  0
   18.1883   -2.3356   18.1152 S   0  0  0  0  0  0  0  0  0  0  0  0
   19.4120   -2.4682   18.8841 O   0  0  0  0  0  0  0  0  0  0  0  0
   17.2278   -3.4277   18.1226 O   0  0  0  0  0  0  0  0  0  0  0  0
   18.6756   -2.0860   16.4188 C   0  0  0  0  0  0  0  0  0  0  0  0
   17.9229   -2.6601   15.3858 C   0  0  0  0  0  0  0  0  0  0  0  0
   18.3338   -2.4879   14.0627 C   0  0  0  0  0  0  0  0  0  0  0  0
   19.4896   -1.7630   13.7888 C   0  0  0  0  0  0  0  0  0  0  0  0
   19.8747   -1.5942   12.5178 F   0  0  0  0  0  0  0  0  0  0  0  0
   20.2532   -1.2142   14.8133 C   0  0  0  0  0  0  0  0  0  0  0  0
   19.8538   -1.3844   16.1391 C   0  0  0  0  0  0  0  0  0  0  0  0
   18.3444    0.3421   18.7233 C   0  0  0  0  0  0  0  0  0  0  0  0
   17.8730    1.4420   19.6716 C   0  0  0  0  0  0  0  0  0  0  0  0
   17.7497    0.9322   21.1060 C   0  0  0  0  0  0  0  0  0  0  0  0
   17.4771   -0.5680   21.1882 C   0  0  0  0  0  0  0  0  0  0  0  0
   16.6331   -1.0549   20.0139 C   0  0  0  0  0  0  0  0  0  0  0  0
   13.5564   -0.7487   15.9778 C   0  0  0  0  0  0  0  0  0  0  0  0
  1  2  1  0
  2  3  1  0
  3  4  2  0
  4  5  1  0
  5  6  2  0
  6  7  1  0
  6  8  1  0
  8  9  1  0
  9 10  1  0
 10 11  2  0
 10 12  1  0
 12 13  1  0
 13 14  2  0
 13 15  2  0
 13 16  1  0
 16 17  2  0
 17 18  1  0
 18 19  2  0
 19 20  1  0
 19 21  1  0
 21 22  2  0
 12 23  1  0
 23 24  1  0
 24 25  1  0
 25 26  1  0
 26 27  1  0
  8 28  2  0
 28  3  1  0
 27 12  1  0
 22 16  1  0
M  END
>  <ref_mols>  (1374) 
B1396a

>  <gnina_score>  (1374) 
5.252

>  <smina_score_min>  (1374) 
-4.022

>  <ref_pdb>  (1374) 
B1396a

>  <inspiration_score>  (1374) 
None

>  <inchikey>  (1374) 
OYLABNITYVXYTP-UHFFFAOYSA-N

>  <tags>  (1374) 
BulkDock Fragalysis export,openbind_d68ev3c_c2_elabs_scored,openbind_d68ev3c_c2_elabs_scored_4.5plus,openbind_d68ev3c_c2_elabs,openbind_d68ev3c_c2_elabs_scored_5plus,syndirella_product,openbind_d68ev3c_c2_elabs_scored_top80percent,syndirella_placed

>  <smiles>  (1374) 
CSc1ccc(C)c(NC(=O)C2(S(=O)(=O)c3ccc(F)cc3)CCCCC2)c1

>  <subsites>  (1374) 
None

>  <rmsd(smina/fragmenstein)>  (1374) 
2.008

>  <alias>  (1374) 
None

>  <energy_score>  (1374) 
-54.724348

>  <HIPPO Pose ID>  (1374) 
95945

>  <distance_score>  (1374) 
0.428687

>  <HIPPO Compound ID>  (1374) 
129923

>  <gnina_score_min>  (1374) 
5.33

>  <name>  (1374) 
P95945

>  <exports>  (1374) 
['/opt/xchem-fragalysis-2/maxwin/BulkDock/OUTPUTS/openbind_d68ev3c_c2_elabs_1LOTQJ3.sdf', '/opt/xchem-fragalysis-2/maxwin/BulkDock/OUTPUTS/openbind_d68ev3c_c2_elabs_1LSYI5W.sdf']

$$$$
P95946
     RDKit          3D

 28 30  0  0  0  0  0  0  0  0999 V2000
   15.7206   -5.6218   19.2795 C   0  0  0  0  0  0  0  0  0  0  0  0
   15.0364   -5.2102   17.6535 S   0  0  0  0  0  0  0  0  0  0  0  0
   13.7667   -4.0290   18.1674 C   0  0  0  0  0  0  0  0  0  0  0  0
   13.4196   -3.0303   17.0884 C   0  0  0  0  0  0  0  0  0  0  0  0
   12.2788   -3.2689   16.2959 C   0  0  0  0  0  0  0  0  0  0  0  0
   11.8499   -2.3454   15.3439 C   0  0  0  0  0  0  0  0  0  0  0  0
   12.5631   -1.1679   15.1650 C   0  0  0  0  0  0  0  0  0  0  0  0
   13.7162   -0.9283   15.9172 C   0  0  0  0  0  0  0  0  0  0  0  0
   14.1624   -1.8546   16.8674 C   0  0  0  0  0  0  0  0  0  0  0  0
   15.3232   -1.5937   17.6060 N   0  0  0  0  0  0  0  0  0  0  0  0
   16.3513   -0.4176   17.5013 C   0  0  0  0  0  0  0  0  0  0  0  0
   16.3365    0.5468   16.8336 O   0  0  0  0  0  0  0  0  0  0  0  0
   17.4807   -0.6106   18.5631 C   0  0  0  0  0  0  0  0  0  0  0  0
   18.4158   -2.0860   18.1105 S   0  0  0  0  0  0  0  0  0  0  0  0
   17.5225   -3.2204   18.2593 O   0  0  0  0  0  0  0  0  0  0  0  0
   19.6787   -2.1071   18.8228 O   0  0  0  0  0  0  0  0  0  0  0  0
   18.8130   -1.9560   16.3799 C   0  0  0  0  0  0  0  0  0  0  0  0
   18.0129   -2.5936   15.4230 C   0  0  0  0  0  0  0  0  0  0  0  0
   18.3616   -2.5043   14.0734 C   0  0  0  0  0  0  0  0  0  0  0  0
   19.5066   -1.8071   13.7002 C   0  0  0  0  0  0  0  0  0  0  0  0
   19.8359   -1.7239   12.4054 F   0  0  0  0  0  0  0  0  0  0  0  0
   20.3201   -1.2015   14.6505 C   0  0  0  0  0  0  0  0  0  0  0  0
   19.9813   -1.2842   16.0003 C   0  0  0  0  0  0  0  0  0  0  0  0
   18.3752    0.6654   18.5544 C   0  0  0  0  0  0  0  0  0  0  0  0
   19.3245    0.8264   19.7405 C   0  0  0  0  0  0  0  0  0  0  0  0
   18.6014    0.6736   21.0690 C   0  0  0  0  0  0  0  0  0  0  0  0
   17.8264   -0.6323   21.1316 C   0  0  0  0  0  0  0  0  0  0  0  0
   16.8430   -0.7676   19.9701 C   0  0  0  0  0  0  0  0  0  0  0  0
  1  2  1  0
  2  3  1  0
  3  4  1  0
  4  5  2  0
  5  6  1  0
  6  7  2  0
  7  8  1  0
  8  9  2  0
  9 10  1  0
 10 11  1  0
 11 12  2  0
 11 13  1  0
 13 14  1  0
 14 15  2  0
 14 16  2  0
 14 17  1  0
 17 18  2  0
 18 19  1  0
 19 20  2  0
 20 21  1  0
 20 22  1  0
 22 23  2  0
 13 24  1  0
 24 25  1  0
 25 26  1  0
 26 27  1  0
 27 28  1  0
  9  4  1  0
 28 13  1  0
 23 17  1  0
M  END
>  <ref_mols>  (1375) 
B1396a

>  <gnina_score>  (1375) 
5.234

>  <smina_score_min>  (1375) 
-3.173

>  <ref_pdb>  (1375) 
B1396a

>  <inspiration_score>  (1375) 
None

>  <inchikey>  (1375) 
DDUXXPJSNXMMQT-UHFFFAOYSA-N

>  <tags>  (1375) 
BulkDock Fragalysis export,openbind_d68ev3c_c2_elabs_scored,openbind_d68ev3c_c2_elabs_scored_4.5plus,openbind_d68ev3c_c2_elabs,openbind_d68ev3c_c2_elabs_scored_5plus,syndirella_product,openbind_d68ev3c_c2_elabs_scored_top80percent,syndirella_placed

>  <smiles>  (1375) 
CSCc1ccccc1NC(=O)C1(S(=O)(=O)c2ccc(F)cc2)CCCCC1

>  <subsites>  (1375) 
None

>  <rmsd(smina/fragmenstein)>  (1375) 
1.941

>  <alias>  (1375) 
None

>  <energy_score>  (1375) 
-45.265061

>  <HIPPO Pose ID>  (1375) 
95946

>  <distance_score>  (1375) 
0.530258

>  <HIPPO Compound ID>  (1375) 
129924

>  <gnina_score_min>  (1375) 
5.156

>  <name>  (1375) 
P95946

>  <exports>  (1375) 
['/opt/xchem-fragalysis-2/maxwin/BulkDock/OUTPUTS/openbind_d68ev3c_c2_elabs_1LOTQJ3.sdf', '/opt/xchem-fragalysis-2/maxwin/BulkDock/OUTPUTS/openbind_d68ev3c_c2_elabs_1LSYI5W.sdf']

$$$$
P95947
     RDKit          3D

 29 33  0  0  0  0  0  0  0  0999 V2000
   16.6475    0.6963   16.4532 O   0  0  0  0  0  0  0  0  0  0  0  0
   16.5728   -0.2204   17.1798 C   0  0  0  0  0  0  0  0  0  0  0  0
   15.5107   -1.3493   17.2690 N   0  0  0  0  0  0  0  0  0  0  0  0
   14.3124   -1.5264   16.5707 C   0  0  0  0  0  0  0  0  0  0  0  0
   13.9103   -0.6591   15.5564 C   0  0  0  0  0  0  0  0  0  0  0  0
   12.7100   -0.8831   14.8764 C   0  0  0  0  0  0  0  0  0  0  0  0
   11.9205   -1.9845   15.1903 C   0  0  0  0  0  0  0  0  0  0  0  0
   12.3238   -2.8516   16.2047 C   0  0  0  0  0  0  0  0  0  0  0  0
   13.5116   -2.6337   16.9299 C   0  0  0  0  0  0  0  0  0  0  0  0
   13.8903   -3.5032   18.1045 C   0  0  0  0  0  0  0  0  0  0  0  0
   15.0326   -4.4895   17.9958 C   0  0  0  0  0  0  0  0  0  0  0  0
   13.6296   -4.9701   18.1201 C   0  0  0  0  0  0  0  0  0  0  0  0
   17.6107   -0.4295   18.3425 C   0  0  0  0  0  0  0  0  0  0  0  0
   18.5503   -1.9551   18.0290 S   0  0  0  0  0  0  0  0  0  0  0  0
   17.6568   -3.0710   18.3017 O   0  0  0  0  0  0  0  0  0  0  0  0
   19.8232   -1.9070   18.7262 O   0  0  0  0  0  0  0  0  0  0  0  0
   18.9581   -2.0511   16.2988 C   0  0  0  0  0  0  0  0  0  0  0  0
   18.5717   -3.1622   15.5487 C   0  0  0  0  0  0  0  0  0  0  0  0
   18.8910   -3.2121   14.1911 C   0  0  0  0  0  0  0  0  0  0  0  0
   19.5778   -2.1543   13.5740 C   0  0  0  0  0  0  0  0  0  0  0  0
   19.8850   -2.1877   12.2049 C   0  0  0  0  0  0  0  0  0  0  0  0
   20.5737   -1.1336   11.6031 C   0  0  0  0  0  0  0  0  0  0  0  0
   20.9665   -0.0353   12.3620 C   0  0  0  0  0  0  0  0  0  0  0  0
   20.6696    0.0136   13.7249 C   0  0  0  0  0  0  0  0  0  0  0  0
   19.9741   -1.0366   14.3454 C   0  0  0  0  0  0  0  0  0  0  0  0
   19.6662   -0.9993   15.7130 C   0  0  0  0  0  0  0  0  0  0  0  0
   17.0329   -0.3514   19.7948 C   0  0  0  0  0  0  0  0  0  0  0  0
   18.2673    0.4580   20.2137 C   0  0  0  0  0  0  0  0  0  0  0  0
   18.4907    0.8023   18.7333 C   0  0  0  0  0  0  0  0  0  0  0  0
  1  2  2  0
  2  3  1  0
  3  4  1  0
  4  5  2  0
  5  6  1  0
  6  7  2  0
  7  8  1  0
  8  9  2  0
  9 10  1  0
 10 11  1  0
 11 12  1  0
  2 13  1  0
 13 14  1  0
 14 15  2  0
 14 16  2  0
 14 17  1  0
 17 18  2  0
 18 19  1  0
 19 20  2  0
 20 21  1  0
 21 22  2  0
 22 23  1  0
 23 24  2  0
 24 25  1  0
 25 26  2  0
 13 27  1  0
 27 28  1  0
 28 29  1  0
  9  4  1  0
 12 10  1  0
 29 13  1  0
 26 17  1  0
 25 20  1  0
M  END
>  <ref_mols>  (1376) 
B1396a

>  <gnina_score>  (1376) 
5.397

>  <smina_score_min>  (1376) 
-3.848

>  <ref_pdb>  (1376) 
B1396a

>  <inspiration_score>  (1376) 
None

>  <inchikey>  (1376) 
HWECLCXCAOQWSE-UHFFFAOYSA-N

>  <tags>  (1376) 
BulkDock Fragalysis export,openbind_d68ev3c_c2_elabs_scored,openbind_d68ev3c_c2_elabs_scored_4.5plus,openbind_d68ev3c_c2_elabs,openbind_d68ev3c_c2_elabs_scored_5plus,syndirella_product,openbind_d68ev3c_c2_elabs_scored_top80percent,syndirella_placed

>  <smiles>  (1376) 
O=C(Nc1ccccc1C1CC1)C1(S(=O)(=O)c2ccc3ccccc3c2)CCC1

>  <subsites>  (1376) 
None

>  <rmsd(smina/fragmenstein)>  (1376) 
2.483

>  <alias>  (1376) 
None

>  <energy_score>  (1376) 
-34.52515

>  <HIPPO Pose ID>  (1376) 
95947

>  <distance_score>  (1376) 
0.696698

>  <HIPPO Compound ID>  (1376) 
129927

>  <gnina_score_min>  (1376) 
5.012

>  <name>  (1376) 
P95947

>  <exports>  (1376) 
['/opt/xchem-fragalysis-2/maxwin/BulkDock/OUTPUTS/openbind_d68ev3c_c2_elabs_1LOTQJ3.sdf', '/opt/xchem-fragalysis-2/maxwin/BulkDock/OUTPUTS/openbind_d68ev3c_c2_elabs_1LSYI5W.sdf']

$$$$
P95948
     RDKit          3D

 29 32  0  0  0  0  0  0  0  0999 V2000
   13.6671   -3.6844   17.2419 C   0  0  0  0  0  0  0  0  0  0  0  0
   13.3933   -2.3174   16.6537 C   0  0  0  0  0  0  0  0  0  0  0  0
   12.3489   -2.1039   15.7292 C   0  0  0  0  0  0  0  0  0  0  0  0
   11.3992   -3.4747   14.8737 Br  0  0  0  0  0  0  0  0  0  0  0  0
   12.0037   -0.8315   15.2820 C   0  0  0  0  0  0  0  0  0  0  0  0
   12.7443    0.2552   15.6953 C   0  0  0  0  0  0  0  0  0  0  0  0
   13.8587    0.0686   16.5093 C   0  0  0  0  0  0  0  0  0  0  0  0
   14.5043    1.2396   16.7893 O   0  0  0  0  0  0  0  0  0  0  0  0
   14.2132   -1.2079   16.9903 C   0  0  0  0  0  0  0  0  0  0  0  0
   15.3754   -1.4535   17.7488 N   0  0  0  0  0  0  0  0  0  0  0  0
   16.5388   -0.5049   18.1488 C   0  0  0  0  0  0  0  0  0  0  0  0
   16.7504    0.6090   17.8448 O   0  0  0  0  0  0  0  0  0  0  0  0
   17.5030   -1.2213   19.1387 C   0  0  0  0  0  0  0  0  0  0  0  0
   18.3219   -2.5989   18.2950 S   0  0  0  0  0  0  0  0  0  0  0  0
   19.5832   -2.8845   18.9544 O   0  0  0  0  0  0  0  0  0  0  0  0
   17.3190   -3.6505   18.1891 O   0  0  0  0  0  0  0  0  0  0  0  0
   18.7763   -2.2138   16.6153 C   0  0  0  0  0  0  0  0  0  0  0  0
   19.2079   -0.9380   16.2652 C   0  0  0  0  0  0  0  0  0  0  0  0
   19.5450   -0.6736   14.9347 C   0  0  0  0  0  0  0  0  0  0  0  0
   19.4780   -1.6785   13.9547 C   0  0  0  0  0  0  0  0  0  0  0  0
   19.8143   -1.4176   12.6167 C   0  0  0  0  0  0  0  0  0  0  0  0
   19.7665   -2.4314   11.6590 C   0  0  0  0  0  0  0  0  0  0  0  0
   19.4001   -3.7210   12.0303 C   0  0  0  0  0  0  0  0  0  0  0  0
   19.0701   -3.9974   13.3576 C   0  0  0  0  0  0  0  0  0  0  0  0
   19.0776   -2.9821   14.3264 C   0  0  0  0  0  0  0  0  0  0  0  0
   18.7129   -3.2350   15.6576 C   0  0  0  0  0  0  0  0  0  0  0  0
   16.8881   -1.6198   20.5215 C   0  0  0  0  0  0  0  0  0  0  0  0
   18.1788   -1.1453   21.2039 C   0  0  0  0  0  0  0  0  0  0  0  0
   18.4790   -0.3054   19.9530 C   0  0  0  0  0  0  0  0  0  0  0  0
  1  2  1  0
  2  3  2  0
  3  4  1  0
  3  5  1  0
  5  6  2  0
  6  7  1  0
  7  8  1  0
  7  9  2  0
  9 10  1  0
 10 11  1  0
 11 12  2  0
 11 13  1  0
 13 14  1  0
 14 15  2  0
 14 16  2  0
 14 17  1  0
 17 18  2  0
 18 19  1  0
 19 20  2  0
 20 21  1  0
 21 22  2  0
 22 23  1  0
 23 24  2  0
 24 25  1  0
 25 26  2  0
 13 27  1  0
 27 28  1  0
 28 29  1  0
  9  2  1  0
 29 13  1  0
 26 17  1  0
 25 20  1  0
M  END
>  <ref_mols>  (1377) 
B1396a

>  <gnina_score>  (1377) 
5.353

>  <smina_score_min>  (1377) 
-3.222

>  <ref_pdb>  (1377) 
B1396a

>  <inspiration_score>  (1377) 
None

>  <inchikey>  (1377) 
DWVNTGPSSOXLAB-UHFFFAOYSA-N

>  <tags>  (1377) 
BulkDock Fragalysis export,openbind_d68ev3c_c2_elabs_scored,openbind_d68ev3c_c2_elabs_scored_4.5plus,openbind_d68ev3c_c2_elabs,openbind_d68ev3c_c2_elabs_scored_5plus,syndirella_product,openbind_d68ev3c_c2_elabs_scored_top80percent,syndirella_placed

>  <smiles>  (1377) 
Cc1c(Br)ccc(O)c1NC(=O)C1(S(=O)(=O)c2ccc3ccccc3c2)CCC1

>  <subsites>  (1377) 
None

>  <rmsd(smina/fragmenstein)>  (1377) 
1.168

>  <alias>  (1377) 
None

>  <energy_score>  (1377) 
-51.170237

>  <HIPPO Pose ID>  (1377) 
95948

>  <distance_score>  (1377) 
0.91654

>  <HIPPO Compound ID>  (1377) 
129928

>  <gnina_score_min>  (1377) 
5.319

>  <name>  (1377) 
P95948

>  <exports>  (1377) 
['/opt/xchem-fragalysis-2/maxwin/BulkDock/OUTPUTS/openbind_d68ev3c_c2_elabs_1LOTQJ3.sdf', '/opt/xchem-fragalysis-2/maxwin/BulkDock/OUTPUTS/openbind_d68ev3c_c2_elabs_1LSYI5W.sdf']

$$$$
P95949
     RDKit          3D

 29 32  0  0  0  0  0  0  0  0999 V2000
   13.9262   -4.1964   17.6493 C   0  0  0  0  0  0  0  0  0  0  0  0
   13.3668   -3.0096   16.9049 C   0  0  0  0  0  0  0  0  0  0  0  0
   12.1864   -3.1988   16.1720 C   0  0  0  0  0  0  0  0  0  0  0  0
   11.6217   -2.1516   15.4661 C   0  0  0  0  0  0  0  0  0  0  0  0
   10.4722   -2.3498   14.8136 F   0  0  0  0  0  0  0  0  0  0  0  0
   12.1915   -0.8933   15.4905 C   0  0  0  0  0  0  0  0  0  0  0  0
   13.3628   -0.6740   16.2263 C   0  0  0  0  0  0  0  0  0  0  0  0
   13.8070    0.9876   16.3826 Cl  0  0  0  0  0  0  0  0  0  0  0  0
   13.9920   -1.7366   16.9121 C   0  0  0  0  0  0  0  0  0  0  0  0
   15.1981   -1.6480   17.6313 N   0  0  0  0  0  0  0  0  0  0  0  0
   16.3606   -0.6140   17.5352 C   0  0  0  0  0  0  0  0  0  0  0  0
   16.5262    0.2767   16.7889 O   0  0  0  0  0  0  0  0  0  0  0  0
   17.4017   -0.8920   18.6682 C   0  0  0  0  0  0  0  0  0  0  0  0
   18.3648   -2.3421   18.1868 S   0  0  0  0  0  0  0  0  0  0  0  0
   17.4507   -3.4753   18.2505 O   0  0  0  0  0  0  0  0  0  0  0  0
   19.5940   -2.3918   18.9587 O   0  0  0  0  0  0  0  0  0  0  0  0
   18.8860   -2.2202   16.4876 C   0  0  0  0  0  0  0  0  0  0  0  0
   19.3721   -1.0110   15.9943 C   0  0  0  0  0  0  0  0  0  0  0  0
   19.7372   -0.9157   14.6504 C   0  0  0  0  0  0  0  0  0  0  0  0
   19.6454   -2.0274   13.7986 C   0  0  0  0  0  0  0  0  0  0  0  0
   20.0103   -1.9410   12.4458 C   0  0  0  0  0  0  0  0  0  0  0  0
   19.9357   -3.0595   11.6150 C   0  0  0  0  0  0  0  0  0  0  0  0
   19.5128   -4.2803   12.1305 C   0  0  0  0  0  0  0  0  0  0  0  0
   19.1528   -4.3837   13.4748 C   0  0  0  0  0  0  0  0  0  0  0  0
   19.1884   -3.2621   14.3164 C   0  0  0  0  0  0  0  0  0  0  0  0
   18.7941   -3.3443   15.6608 C   0  0  0  0  0  0  0  0  0  0  0  0
   16.8785   -0.9642   20.1419 C   0  0  0  0  0  0  0  0  0  0  0  0
   17.2291    0.5268   20.2789 C   0  0  0  0  0  0  0  0  0  0  0  0
   18.2601    0.3253   19.1554 C   0  0  0  0  0  0  0  0  0  0  0  0
  1  2  1  0
  2  3  2  0
  3  4  1  0
  4  5  1  0
  4  6  2  0
  6  7  1  0
  7  8  1  0
  7  9  2  0
  9 10  1  0
 10 11  1  0
 11 12  2  0
 11 13  1  0
 13 14  1  0
 14 15  2  0
 14 16  2  0
 14 17  1  0
 17 18  2  0
 18 19  1  0
 19 20  2  0
 20 21  1  0
 21 22  2  0
 22 23  1  0
 23 24  2  0
 24 25  1  0
 25 26  2  0
 13 27  1  0
 27 28  1  0
 28 29  1  0
  9  2  1  0
 29 13  1  0
 26 17  1  0
 25 20  1  0
M  END
>  <ref_mols>  (1378) 
B1396a

>  <gnina_score>  (1378) 
5.62

>  <smina_score_min>  (1378) 
-3.705

>  <ref_pdb>  (1378) 
B1396a

>  <inspiration_score>  (1378) 
None

>  <inchikey>  (1378) 
NTGBYYRXLWJACE-UHFFFAOYSA-N

>  <tags>  (1378) 
BulkDock Fragalysis export,openbind_d68ev3c_c2_elabs_scored,openbind_d68ev3c_c2_elabs_scored_4.5plus,openbind_d68ev3c_c2_elabs,openbind_d68ev3c_c2_elabs_scored_5plus,syndirella_product,openbind_d68ev3c_c2_elabs_scored_top80percent,syndirella_placed

>  <smiles>  (1378) 
Cc1cc(F)cc(Cl)c1NC(=O)C1(S(=O)(=O)c2ccc3ccccc3c2)CCC1

>  <subsites>  (1378) 
None

>  <rmsd(smina/fragmenstein)>  (1378) 
1.841

>  <alias>  (1378) 
None

>  <energy_score>  (1378) 
-35.788172

>  <HIPPO Pose ID>  (1378) 
95949

>  <distance_score>  (1378) 
0.395154

>  <HIPPO Compound ID>  (1378) 
129929

>  <gnina_score_min>  (1378) 
5.595

>  <name>  (1378) 
P95949

>  <exports>  (1378) 
['/opt/xchem-fragalysis-2/maxwin/BulkDock/OUTPUTS/openbind_d68ev3c_c2_elabs_1LOTQJ3.sdf', '/opt/xchem-fragalysis-2/maxwin/BulkDock/OUTPUTS/openbind_d68ev3c_c2_elabs_1LSYI5W.sdf']

$$$$
P95950
     RDKit          3D

 29 32  0  0  0  0  0  0  0  0999 V2000
   11.7999    0.2130   14.3001 C   0  0  0  0  0  0  0  0  0  0  0  0
   12.2852   -0.9177   15.1579 C   0  0  0  0  0  0  0  0  0  0  0  0
   13.4978   -0.7956   15.8681 C   0  0  0  0  0  0  0  0  0  0  0  0
   13.9641   -1.8222   16.7025 C   0  0  0  0  0  0  0  0  0  0  0  0
   15.1056   -1.6581   17.4903 N   0  0  0  0  0  0  0  0  0  0  0  0
   16.1638   -0.5163   17.5119 C   0  0  0  0  0  0  0  0  0  0  0  0
   16.1979    0.4999   16.9254 O   0  0  0  0  0  0  0  0  0  0  0  0
   17.2512   -0.8480   18.5949 C   0  0  0  0  0  0  0  0  0  0  0  0
   18.2257   -2.2791   18.0627 S   0  0  0  0  0  0  0  0  0  0  0  0
   19.4905   -2.3050   18.7773 O   0  0  0  0  0  0  0  0  0  0  0  0
   17.3467   -3.4371   18.1571 O   0  0  0  0  0  0  0  0  0  0  0  0
   18.6707   -2.1272   16.3449 C   0  0  0  0  0  0  0  0  0  0  0  0
   18.3675   -3.1584   15.4546 C   0  0  0  0  0  0  0  0  0  0  0  0
   18.7500   -3.0418   14.1171 C   0  0  0  0  0  0  0  0  0  0  0  0
   19.4230   -1.8982   13.6586 C   0  0  0  0  0  0  0  0  0  0  0  0
   19.7983   -1.7660   12.3126 C   0  0  0  0  0  0  0  0  0  0  0  0
   20.4744   -0.6284   11.8697 C   0  0  0  0  0  0  0  0  0  0  0  0
   20.7859    0.3894   12.7662 C   0  0  0  0  0  0  0  0  0  0  0  0
   20.4199    0.2738   14.1082 C   0  0  0  0  0  0  0  0  0  0  0  0
   19.7360   -0.8624   14.5700 C   0  0  0  0  0  0  0  0  0  0  0  0
   19.3606   -0.9907   15.9161 C   0  0  0  0  0  0  0  0  0  0  0  0
   16.7148   -0.9855   20.0613 C   0  0  0  0  0  0  0  0  0  0  0  0
   17.9277   -0.1876   20.5555 C   0  0  0  0  0  0  0  0  0  0  0  0
   18.1018    0.3525   19.1286 C   0  0  0  0  0  0  0  0  0  0  0  0
   13.2435   -3.0206   16.7947 C   0  0  0  0  0  0  0  0  0  0  0  0
   13.6960   -4.1744   17.6476 C   0  0  0  0  0  0  0  0  0  0  0  0
   12.0440   -3.1398   16.0805 C   0  0  0  0  0  0  0  0  0  0  0  0
   11.5613   -2.0990   15.2904 C   0  0  0  0  0  0  0  0  0  0  0  0
   10.3403   -2.3069   14.7214 O   0  0  0  0  0  0  0  0  0  0  0  0
  1  2  1  0
  2  3  2  0
  3  4  1  0
  4  5  1  0
  5  6  1  0
  6  7  2  0
  6  8  1  0
  8  9  1  0
  9 10  2  0
  9 11  2  0
  9 12  1  0
 12 13  2  0
 13 14  1  0
 14 15  2  0
 15 16  1  0
 16 17  2  0
 17 18  1  0
 18 19  2  0
 19 20  1  0
 20 21  2  0
  8 22  1  0
 22 23  1  0
 23 24  1  0
  4 25  2  0
 25 26  1  0
 25 27  1  0
 27 28  2  0
 28 29  1  0
 28  2  1  0
 24  8  1  0
 21 12  1  0
 20 15  1  0
M  END
>  <ref_mols>  (1379) 
B1396a

>  <gnina_score>  (1379) 
5.151

>  <smina_score_min>  (1379) 
-4.302

>  <ref_pdb>  (1379) 
B1396a

>  <inspiration_score>  (1379) 
None

>  <inchikey>  (1379) 
UJSSMUBJMVIZPD-UHFFFAOYSA-N

>  <tags>  (1379) 
BulkDock Fragalysis export,openbind_d68ev3c_c2_elabs_scored,openbind_d68ev3c_c2_elabs_scored_4.5plus,openbind_d68ev3c_c2_elabs,openbind_d68ev3c_c2_elabs_scored_5plus,syndirella_product,openbind_d68ev3c_c2_elabs_scored_top80percent,syndirella_placed

>  <smiles>  (1379) 
Cc1cc(NC(=O)C2(S(=O)(=O)c3ccc4ccccc4c3)CCC2)c(C)cc1O

>  <subsites>  (1379) 
None

>  <rmsd(smina/fragmenstein)>  (1379) 
1.55

>  <alias>  (1379) 
None

>  <energy_score>  (1379) 
-61.199156

>  <HIPPO Pose ID>  (1379) 
95950

>  <distance_score>  (1379) 
0.37594

>  <HIPPO Compound ID>  (1379) 
129930

>  <gnina_score_min>  (1379) 
5.098

>  <name>  (1379) 
P95950

>  <exports>  (1379) 
['/opt/xchem-fragalysis-2/maxwin/BulkDock/OUTPUTS/openbind_d68ev3c_c2_elabs_1LOTQJ3.sdf', '/opt/xchem-fragalysis-2/maxwin/BulkDock/OUTPUTS/openbind_d68ev3c_c2_elabs_1LSYI5W.sdf']

$$$$
P95952
     RDKit          3D

 29 32  0  0  0  0  0  0  0  0999 V2000
   13.7459   -4.1078   17.5309 C   0  0  0  0  0  0  0  0  0  0  0  0
   13.2321   -2.9061   16.7732 C   0  0  0  0  0  0  0  0  0  0  0  0
   12.0890   -3.0763   15.9714 C   0  0  0  0  0  0  0  0  0  0  0  0
   11.5639   -2.0158   15.2467 C   0  0  0  0  0  0  0  0  0  0  0  0
   12.1530   -0.7661   15.3566 C   0  0  0  0  0  0  0  0  0  0  0  0
   11.5674    0.2573   14.7148 F   0  0  0  0  0  0  0  0  0  0  0  0
   13.2903   -0.5572   16.1504 C   0  0  0  0  0  0  0  0  0  0  0  0
   13.7595    1.2670   16.4253 Br  0  0  0  0  0  0  0  0  0  0  0  0
   13.8785   -1.6433   16.8284 C   0  0  0  0  0  0  0  0  0  0  0  0
   15.0724   -1.5955   17.5730 N   0  0  0  0  0  0  0  0  0  0  0  0
   16.2898   -0.6270   17.4731 C   0  0  0  0  0  0  0  0  0  0  0  0
   16.5183    0.2304   16.7045 O   0  0  0  0  0  0  0  0  0  0  0  0
   17.2925   -0.9146   18.6368 C   0  0  0  0  0  0  0  0  0  0  0  0
   18.2685   -2.3634   18.1755 S   0  0  0  0  0  0  0  0  0  0  0  0
   17.3532   -3.4965   18.2098 O   0  0  0  0  0  0  0  0  0  0  0  0
   19.4760   -2.4162   18.9813 O   0  0  0  0  0  0  0  0  0  0  0  0
   18.8391   -2.2370   16.4921 C   0  0  0  0  0  0  0  0  0  0  0  0
   19.3545   -1.0310   16.0209 C   0  0  0  0  0  0  0  0  0  0  0  0
   19.7560   -0.9306   14.6878 C   0  0  0  0  0  0  0  0  0  0  0  0
   19.6733   -2.0351   13.8257 C   0  0  0  0  0  0  0  0  0  0  0  0
   20.0752   -1.9436   12.4837 C   0  0  0  0  0  0  0  0  0  0  0  0
   20.0105   -3.0554   11.6433 C   0  0  0  0  0  0  0  0  0  0  0  0
   19.5603   -4.2749   12.1385 C   0  0  0  0  0  0  0  0  0  0  0  0
   19.1631   -4.3833   13.4719 C   0  0  0  0  0  0  0  0  0  0  0  0
   19.1885   -3.2679   14.3223 C   0  0  0  0  0  0  0  0  0  0  0  0
   18.7572   -3.3545   15.6552 C   0  0  0  0  0  0  0  0  0  0  0  0
   16.7342   -0.9886   20.0978 C   0  0  0  0  0  0  0  0  0  0  0  0
   17.0813    0.5022   20.2449 C   0  0  0  0  0  0  0  0  0  0  0  0
   18.1413    0.3006   19.1490 C   0  0  0  0  0  0  0  0  0  0  0  0
  1  2  1  0
  2  3  2  0
  3  4  1  0
  4  5  2  0
  5  6  1  0
  5  7  1  0
  7  8  1  0
  7  9  2  0
  9 10  1  0
 10 11  1  0
 11 12  2  0
 11 13  1  0
 13 14  1  0
 14 15  2  0
 14 16  2  0
 14 17  1  0
 17 18  2  0
 18 19  1  0
 19 20  2  0
 20 21  1  0
 21 22  2  0
 22 23  1  0
 23 24  2  0
 24 25  1  0
 25 26  2  0
 13 27  1  0
 27 28  1  0
 28 29  1  0
  9  2  1  0
 29 13  1  0
 26 17  1  0
 25 20  1  0
M  END
>  <ref_mols>  (1380) 
B1396a

>  <gnina_score>  (1380) 
5.496

>  <smina_score_min>  (1380) 
-3.736

>  <ref_pdb>  (1380) 
B1396a

>  <inspiration_score>  (1380) 
None

>  <inchikey>  (1380) 
IGZZVLUVYZCUOO-UHFFFAOYSA-N

>  <tags>  (1380) 
BulkDock Fragalysis export,openbind_d68ev3c_c2_elabs_scored,openbind_d68ev3c_c2_elabs_scored_4.5plus,openbind_d68ev3c_c2_elabs,openbind_d68ev3c_c2_elabs_scored_5plus,syndirella_product,openbind_d68ev3c_c2_elabs_scored_top80percent,syndirella_placed

>  <smiles>  (1380) 
Cc1ccc(F)c(Br)c1NC(=O)C1(S(=O)(=O)c2ccc3ccccc3c2)CCC1

>  <subsites>  (1380) 
None

>  <rmsd(smina/fragmenstein)>  (1380) 
1.745

>  <alias>  (1380) 
None

>  <energy_score>  (1380) 
-31.343066

>  <HIPPO Pose ID>  (1380) 
95952

>  <distance_score>  (1380) 
0.37851

>  <HIPPO Compound ID>  (1380) 
129932

>  <gnina_score_min>  (1380) 
5.45

>  <name>  (1380) 
P95952

>  <exports>  (1380) 
['/opt/xchem-fragalysis-2/maxwin/BulkDock/OUTPUTS/openbind_d68ev3c_c2_elabs_1LOTQJ3.sdf', '/opt/xchem-fragalysis-2/maxwin/BulkDock/OUTPUTS/openbind_d68ev3c_c2_elabs_1LSYI5W.sdf']

$$$$
P95953
     RDKit          3D

 29 32  0  0  0  0  0  0  0  0999 V2000
   16.4440    0.3277   16.7731 O   0  0  0  0  0  0  0  0  0  0  0  0
   16.2764   -0.5853   17.4897 C   0  0  0  0  0  0  0  0  0  0  0  0
   15.1051   -1.6020   17.5670 N   0  0  0  0  0  0  0  0  0  0  0  0
   13.9895   -1.7585   16.7519 C   0  0  0  0  0  0  0  0  0  0  0  0
   13.5973   -0.7561   15.8625 C   0  0  0  0  0  0  0  0  0  0  0  0
   12.4522   -0.9286   15.0851 C   0  0  0  0  0  0  0  0  0  0  0  0
   11.9054    0.4371   13.8965 Br  0  0  0  0  0  0  0  0  0  0  0  0
   11.7073   -2.1003   15.1689 C   0  0  0  0  0  0  0  0  0  0  0  0
   12.1103   -3.1064   16.0465 C   0  0  0  0  0  0  0  0  0  0  0  0
   13.2402   -2.9445   16.8678 C   0  0  0  0  0  0  0  0  0  0  0  0
   13.6409   -4.0917   17.7706 C   0  0  0  0  0  0  0  0  0  0  0  0
   14.2831   -3.6353   18.9598 O   0  0  0  0  0  0  0  0  0  0  0  0
   17.2942   -0.9047   18.6324 C   0  0  0  0  0  0  0  0  0  0  0  0
   18.3034   -2.3188   18.1117 S   0  0  0  0  0  0  0  0  0  0  0  0
   17.4596   -3.5035   18.1897 O   0  0  0  0  0  0  0  0  0  0  0  0
   19.5629   -2.3174   18.8377 O   0  0  0  0  0  0  0  0  0  0  0  0
   18.7604   -2.1523   16.3954 C   0  0  0  0  0  0  0  0  0  0  0  0
   18.4036   -3.1435   15.4795 C   0  0  0  0  0  0  0  0  0  0  0  0
   18.7853   -3.0097   14.1434 C   0  0  0  0  0  0  0  0  0  0  0  0
   19.5135   -1.8892   13.7126 C   0  0  0  0  0  0  0  0  0  0  0  0
   19.8895   -1.7390   12.3686 C   0  0  0  0  0  0  0  0  0  0  0  0
   20.6188   -0.6241   11.9528 C   0  0  0  0  0  0  0  0  0  0  0  0
   20.9832    0.3527   12.8746 C   0  0  0  0  0  0  0  0  0  0  0  0
   20.6177    0.2186   14.2150 C   0  0  0  0  0  0  0  0  0  0  0  0
   19.8813   -0.8950   14.6499 C   0  0  0  0  0  0  0  0  0  0  0  0
   19.5058   -1.0410   15.9940 C   0  0  0  0  0  0  0  0  0  0  0  0
   16.7152   -1.0534   20.0781 C   0  0  0  0  0  0  0  0  0  0  0  0
   17.9084   -0.2496   20.6112 C   0  0  0  0  0  0  0  0  0  0  0  0
   18.1127    0.3040   19.1933 C   0  0  0  0  0  0  0  0  0  0  0  0
  1  2  2  0
  2  3  1  0
  3  4  1  0
  4  5  2  0
  5  6  1  0
  6  7  1  0
  6  8  2  0
  8  9  1  0
  9 10  2  0
 10 11  1  0
 11 12  1  0
  2 13  1  0
 13 14  1  0
 14 15  2  0
 14 16  2  0
 14 17  1  0
 17 18  2  0
 18 19  1  0
 19 20  2  0
 20 21  1  0
 21 22  2  0
 22 23  1  0
 23 24  2  0
 24 25  1  0
 25 26  2  0
 13 27  1  0
 27 28  1  0
 28 29  1  0
 10  4  1  0
 29 13  1  0
 26 17  1  0
 25 20  1  0
M  END
>  <ref_mols>  (1381) 
B1396a

>  <gnina_score>  (1381) 
5.196

>  <smina_score_min>  (1381) 
-4.03

>  <ref_pdb>  (1381) 
B1396a

>  <inspiration_score>  (1381) 
None

>  <inchikey>  (1381) 
DIJVBOYCARXNTO-UHFFFAOYSA-N

>  <tags>  (1381) 
BulkDock Fragalysis export,openbind_d68ev3c_c2_elabs_scored,openbind_d68ev3c_c2_elabs_scored_4.5plus,openbind_d68ev3c_c2_elabs,openbind_d68ev3c_c2_elabs_scored_5plus,syndirella_product,openbind_d68ev3c_c2_elabs_scored_top80percent,syndirella_placed

>  <smiles>  (1381) 
O=C(Nc1cc(Br)ccc1CO)C1(S(=O)(=O)c2ccc3ccccc3c2)CCC1

>  <subsites>  (1381) 
None

>  <rmsd(smina/fragmenstein)>  (1381) 
1.77

>  <alias>  (1381) 
None

>  <energy_score>  (1381) 
-43.424146

>  <HIPPO Pose ID>  (1381) 
95953

>  <distance_score>  (1381) 
0.360427

>  <HIPPO Compound ID>  (1381) 
129933

>  <gnina_score_min>  (1381) 
5.046

>  <name>  (1381) 
P95953

>  <exports>  (1381) 
['/opt/xchem-fragalysis-2/maxwin/BulkDock/OUTPUTS/openbind_d68ev3c_c2_elabs_1LOTQJ3.sdf', '/opt/xchem-fragalysis-2/maxwin/BulkDock/OUTPUTS/openbind_d68ev3c_c2_elabs_1LSYI5W.sdf']

$$$$
P95954
     RDKit          3D

 29 32  0  0  0  0  0  0  0  0999 V2000
   11.8848    0.1357   14.4976 C   0  0  0  0  0  0  0  0  0  0  0  0
   12.4022   -0.9740   15.3606 C   0  0  0  0  0  0  0  0  0  0  0  0
   13.6260   -0.8611   16.0367 C   0  0  0  0  0  0  0  0  0  0  0  0
   14.1143   -1.9153   16.8213 C   0  0  0  0  0  0  0  0  0  0  0  0
   15.3134   -1.7909   17.5229 N   0  0  0  0  0  0  0  0  0  0  0  0
   16.3028   -0.5934   17.6302 C   0  0  0  0  0  0  0  0  0  0  0  0
   16.3013    0.4454   17.0837 O   0  0  0  0  0  0  0  0  0  0  0  0
   17.3786   -0.9175   18.7212 C   0  0  0  0  0  0  0  0  0  0  0  0
   18.3695   -2.3312   18.1683 S   0  0  0  0  0  0  0  0  0  0  0  0
   17.5071   -3.5013   18.2724 O   0  0  0  0  0  0  0  0  0  0  0  0
   19.6469   -2.3395   18.8591 O   0  0  0  0  0  0  0  0  0  0  0  0
   18.7731   -2.1619   16.4405 C   0  0  0  0  0  0  0  0  0  0  0  0
   18.4447   -3.1820   15.5459 C   0  0  0  0  0  0  0  0  0  0  0  0
   18.7821   -3.0450   14.1983 C   0  0  0  0  0  0  0  0  0  0  0  0
   19.4342   -1.8916   13.7342 C   0  0  0  0  0  0  0  0  0  0  0  0
   19.7640   -1.7387   12.3786 C   0  0  0  0  0  0  0  0  0  0  0  0
   20.4188   -0.5911   11.9296 C   0  0  0  0  0  0  0  0  0  0  0  0
   20.7541    0.4161   12.8295 C   0  0  0  0  0  0  0  0  0  0  0  0
   20.4337    0.2799   14.1812 C   0  0  0  0  0  0  0  0  0  0  0  0
   19.7719   -0.8666   14.6494 C   0  0  0  0  0  0  0  0  0  0  0  0
   19.4422   -1.0154   16.0054 C   0  0  0  0  0  0  0  0  0  0  0  0
   18.2150    0.2828   19.2733 C   0  0  0  0  0  0  0  0  0  0  0  0
   18.0409   -0.2819   20.6913 C   0  0  0  0  0  0  0  0  0  0  0  0
   16.8342   -1.0796   20.1796 C   0  0  0  0  0  0  0  0  0  0  0  0
   13.3928   -3.1183   16.9089 C   0  0  0  0  0  0  0  0  0  0  0  0
   13.8697   -4.2906   17.7215 C   0  0  0  0  0  0  0  0  0  0  0  0
   12.1807   -3.2290   16.2169 C   0  0  0  0  0  0  0  0  0  0  0  0
   11.6973   -2.1694   15.4608 C   0  0  0  0  0  0  0  0  0  0  0  0
   10.5166   -2.3083   14.8461 F   0  0  0  0  0  0  0  0  0  0  0  0
  1  2  1  0
  2  3  2  0
  3  4  1  0
  4  5  1  0
  5  6  1  0
  6  7  2  0
  6  8  1  0
  8  9  1  0
  9 10  2  0
  9 11  2  0
  9 12  1  0
 12 13  2  0
 13 14  1  0
 14 15  2  0
 15 16  1  0
 16 17  2  0
 17 18  1  0
 18 19  2  0
 19 20  1  0
 20 21  2  0
  8 22  1  0
 22 23  1  0
 23 24  1  0
  4 25  2  0
 25 26  1  0
 25 27  1  0
 27 28  2  0
 28 29  1  0
 28  2  1  0
 24  8  1  0
 21 12  1  0
 20 15  1  0
M  END
>  <ref_mols>  (1382) 
B1396a

>  <gnina_score>  (1382) 
5.403

>  <smina_score_min>  (1382) 
-3.942

>  <ref_pdb>  (1382) 
B1396a

>  <inspiration_score>  (1382) 
None

>  <inchikey>  (1382) 
FWFUHKQFOMQSAZ-UHFFFAOYSA-N

>  <tags>  (1382) 
BulkDock Fragalysis export,openbind_d68ev3c_c2_elabs_scored,openbind_d68ev3c_c2_elabs_scored_4.5plus,openbind_d68ev3c_c2_elabs,openbind_d68ev3c_c2_elabs_scored_5plus,syndirella_product,openbind_d68ev3c_c2_elabs_scored_top80percent,syndirella_placed

>  <smiles>  (1382) 
Cc1cc(NC(=O)C2(S(=O)(=O)c3ccc4ccccc4c3)CCC2)c(C)cc1F

>  <subsites>  (1382) 
None

>  <rmsd(smina/fragmenstein)>  (1382) 
1.673

>  <alias>  (1382) 
None

>  <energy_score>  (1382) 
-43.977183

>  <HIPPO Pose ID>  (1382) 
95954

>  <distance_score>  (1382) 
0.39833

>  <HIPPO Compound ID>  (1382) 
129934

>  <gnina_score_min>  (1382) 
5.405

>  <name>  (1382) 
P95954

>  <exports>  (1382) 
['/opt/xchem-fragalysis-2/maxwin/BulkDock/OUTPUTS/openbind_d68ev3c_c2_elabs_1LOTQJ3.sdf', '/opt/xchem-fragalysis-2/maxwin/BulkDock/OUTPUTS/openbind_d68ev3c_c2_elabs_1LSYI5W.sdf']

$$$$
P95955
     RDKit          3D

 29 33  0  0  0  0  0  0  0  0999 V2000
   16.7471    0.9616   16.9605 O   0  0  0  0  0  0  0  0  0  0  0  0
   16.7074   -0.0241   17.5925 C   0  0  0  0  0  0  0  0  0  0  0  0
   15.6197   -1.1255   17.6678 N   0  0  0  0  0  0  0  0  0  0  0  0
   14.4486   -1.2864   16.9430 C   0  0  0  0  0  0  0  0  0  0  0  0
   13.8457   -0.2947   16.1745 C   0  0  0  0  0  0  0  0  0  0  0  0
   12.6409   -0.5635   15.4894 C   0  0  0  0  0  0  0  0  0  0  0  0
   12.0354   -1.8215   15.5659 C   0  0  0  0  0  0  0  0  0  0  0  0
   12.6598   -2.7806   16.3329 C   0  0  0  0  0  0  0  0  0  0  0  0
   13.8443   -2.5266   16.9999 C   0  0  0  0  0  0  0  0  0  0  0  0
   14.3491   -3.7700   17.6210 C   0  0  0  0  0  0  0  0  0  0  0  0
   13.1040   -4.6144   17.4979 C   0  0  0  0  0  0  0  0  0  0  0  0
   12.2163   -4.0598   16.5005 O   0  0  0  0  0  0  0  0  0  0  0  0
   17.8429   -0.3972   18.6201 C   0  0  0  0  0  0  0  0  0  0  0  0
   18.5877   -1.9898   18.1393 S   0  0  0  0  0  0  0  0  0  0  0  0
   19.8601   -2.1591   18.8168 O   0  0  0  0  0  0  0  0  0  0  0  0
   17.5579   -3.0070   18.3220 O   0  0  0  0  0  0  0  0  0  0  0  0
   18.9796   -2.0068   16.4030 C   0  0  0  0  0  0  0  0  0  0  0  0
   19.3765   -0.8389   15.7568 C   0  0  0  0  0  0  0  0  0  0  0  0
   19.6569   -0.8741   14.3900 C   0  0  0  0  0  0  0  0  0  0  0  0
   19.5603   -2.0713   13.6643 C   0  0  0  0  0  0  0  0  0  0  0  0
   19.8404   -2.1152   12.2894 C   0  0  0  0  0  0  0  0  0  0  0  0
   19.7579   -3.3160   11.5842 C   0  0  0  0  0  0  0  0  0  0  0  0
   19.4113   -4.4885   12.2477 C   0  0  0  0  0  0  0  0  0  0  0  0
   19.1348   -4.4623   13.6154 C   0  0  0  0  0  0  0  0  0  0  0  0
   19.1821   -3.2586   14.3333 C   0  0  0  0  0  0  0  0  0  0  0  0
   18.8763   -3.2127   15.7015 C   0  0  0  0  0  0  0  0  0  0  0  0
   18.8781    0.7150   18.9817 C   0  0  0  0  0  0  0  0  0  0  0  0
   18.7498    0.3223   20.4610 C   0  0  0  0  0  0  0  0  0  0  0  0
   17.4163   -0.3575   20.1253 C   0  0  0  0  0  0  0  0  0  0  0  0
  1  2  2  0
  2  3  1  0
  3  4  1  0
  4  5  2  0
  5  6  1  0
  6  7  2  0
  7  8  1  0
  8  9  2  0
  9 10  1  0
 10 11  1  0
 11 12  1  0
  2 13  1  0
 13 14  1  0
 14 15  2  0
 14 16  2  0
 14 17  1  0
 17 18  2  0
 18 19  1  0
 19 20  2  0
 20 21  1  0
 21 22  2  0
 22 23  1  0
 23 24  2  0
 24 25  1  0
 25 26  2  0
 13 27  1  0
 27 28  1  0
 28 29  1  0
  9  4  1  0
 29 13  1  0
 12  8  1  0
 26 17  1  0
 25 20  1  0
M  END
>  <ref_mols>  (1383) 
B1396a

>  <gnina_score>  (1383) 
5.283

>  <smina_score_min>  (1383) 
-3.737

>  <ref_pdb>  (1383) 
B1396a

>  <inspiration_score>  (1383) 
None

>  <inchikey>  (1383) 
ROBLFBVMBDZUQH-UHFFFAOYSA-N

>  <tags>  (1383) 
BulkDock Fragalysis export,openbind_d68ev3c_c2_elabs_scored,openbind_d68ev3c_c2_elabs_scored_4.5plus,openbind_d68ev3c_c2_elabs,openbind_d68ev3c_c2_elabs_scored_5plus,syndirella_product,openbind_d68ev3c_c2_elabs_scored_top80percent,syndirella_placed

>  <smiles>  (1383) 
O=C(Nc1cccc2c1CCO2)C1(S(=O)(=O)c2ccc3ccccc3c2)CCC1

>  <subsites>  (1383) 
None

>  <rmsd(smina/fragmenstein)>  (1383) 
2.306

>  <alias>  (1383) 
None

>  <energy_score>  (1383) 
-40.032318

>  <HIPPO Pose ID>  (1383) 
95955

>  <distance_score>  (1383) 
0.818759

>  <HIPPO Compound ID>  (1383) 
129935

>  <gnina_score_min>  (1383) 
5.064

>  <name>  (1383) 
P95955

>  <exports>  (1383) 
['/opt/xchem-fragalysis-2/maxwin/BulkDock/OUTPUTS/openbind_d68ev3c_c2_elabs_1LOTQJ3.sdf', '/opt/xchem-fragalysis-2/maxwin/BulkDock/OUTPUTS/openbind_d68ev3c_c2_elabs_1LSYI5W.sdf']

$$$$
P95956
     RDKit          3D

 29 32  0  0  0  0  0  0  0  0999 V2000
   14.2723    1.1993   15.0152 C   0  0  0  0  0  0  0  0  0  0  0  0
   13.8791    0.6159   16.2586 O   0  0  0  0  0  0  0  0  0  0  0  0
   13.3697   -0.6460   16.1011 C   0  0  0  0  0  0  0  0  0  0  0  0
   12.1967   -0.8037   15.3479 C   0  0  0  0  0  0  0  0  0  0  0  0
   11.5643   -2.0379   15.2784 C   0  0  0  0  0  0  0  0  0  0  0  0
   12.0771   -3.1090   16.0007 C   0  0  0  0  0  0  0  0  0  0  0  0
   13.2364   -2.9695   16.7841 C   0  0  0  0  0  0  0  0  0  0  0  0
   13.7236   -4.1702   17.5551 C   0  0  0  0  0  0  0  0  0  0  0  0
   13.9122   -1.7284   16.8165 C   0  0  0  0  0  0  0  0  0  0  0  0
   15.0965   -1.6636   17.5718 N   0  0  0  0  0  0  0  0  0  0  0  0
   16.2434   -0.6057   17.5694 C   0  0  0  0  0  0  0  0  0  0  0  0
   16.4124    0.3320   16.8820 O   0  0  0  0  0  0  0  0  0  0  0  0
   17.2596   -0.9324   18.7115 C   0  0  0  0  0  0  0  0  0  0  0  0
   18.2455   -2.3573   18.1996 S   0  0  0  0  0  0  0  0  0  0  0  0
   17.3484   -3.5052   18.2256 O   0  0  0  0  0  0  0  0  0  0  0  0
   19.4695   -2.4111   18.9806 O   0  0  0  0  0  0  0  0  0  0  0  0
   18.7864   -2.1918   16.5099 C   0  0  0  0  0  0  0  0  0  0  0  0
   19.2697   -0.9688   16.0497 C   0  0  0  0  0  0  0  0  0  0  0  0
   19.6651   -0.8462   14.7162 C   0  0  0  0  0  0  0  0  0  0  0  0
   19.6044   -1.9432   13.8423 C   0  0  0  0  0  0  0  0  0  0  0  0
   19.9998   -1.8287   12.5000 C   0  0  0  0  0  0  0  0  0  0  0  0
   19.9554   -2.9325   11.6476 C   0  0  0  0  0  0  0  0  0  0  0  0
   19.5322   -4.1664   12.1306 C   0  0  0  0  0  0  0  0  0  0  0  0
   19.1425   -4.2977   13.4641 C   0  0  0  0  0  0  0  0  0  0  0  0
   19.1480   -3.1914   14.3268 C   0  0  0  0  0  0  0  0  0  0  0  0
   18.7254   -3.3018   15.6606 C   0  0  0  0  0  0  0  0  0  0  0  0
   18.1001    0.2667   19.2723 C   0  0  0  0  0  0  0  0  0  0  0  0
   17.0383    0.4175   20.3751 C   0  0  0  0  0  0  0  0  0  0  0  0
   16.6985   -1.0679   20.1669 C   0  0  0  0  0  0  0  0  0  0  0  0
  1  2  1  0
  2  3  1  0
  3  4  2  0
  4  5  1  0
  5  6  2  0
  6  7  1  0
  7  8  1  0
  7  9  2  0
  9 10  1  0
 10 11  1  0
 11 12  2  0
 11 13  1  0
 13 14  1  0
 14 15  2  0
 14 16  2  0
 14 17  1  0
 17 18  2  0
 18 19  1  0
 19 20  2  0
 20 21  1  0
 21 22  2  0
 22 23  1  0
 23 24  2  0
 24 25  1  0
 25 26  2  0
 13 27  1  0
 27 28  1  0
 28 29  1  0
  9  3  1  0
 29 13  1  0
 26 17  1  0
 25 20  1  0
M  END
>  <ref_mols>  (1384) 
B1396a

>  <gnina_score>  (1384) 
5.189

>  <smina_score_min>  (1384) 
-3.621

>  <ref_pdb>  (1384) 
B1396a

>  <inspiration_score>  (1384) 
None

>  <inchikey>  (1384) 
CWYHNFVAOYAUIK-UHFFFAOYSA-N

>  <tags>  (1384) 
BulkDock Fragalysis export,openbind_d68ev3c_c2_elabs_scored,openbind_d68ev3c_c2_elabs_scored_4.5plus,openbind_d68ev3c_c2_elabs,openbind_d68ev3c_c2_elabs_scored_5plus,syndirella_product,openbind_d68ev3c_c2_elabs_scored_top80percent,syndirella_placed

>  <smiles>  (1384) 
COc1cccc(C)c1NC(=O)C1(S(=O)(=O)c2ccc3ccccc3c2)CCC1

>  <subsites>  (1384) 
None

>  <rmsd(smina/fragmenstein)>  (1384) 
2.19

>  <alias>  (1384) 
None

>  <energy_score>  (1384) 
-43.199195

>  <HIPPO Pose ID>  (1384) 
95956

>  <distance_score>  (1384) 
0.392333

>  <HIPPO Compound ID>  (1384) 
129937

>  <gnina_score_min>  (1384) 
5.25

>  <name>  (1384) 
P95956

>  <exports>  (1384) 
['/opt/xchem-fragalysis-2/maxwin/BulkDock/OUTPUTS/openbind_d68ev3c_c2_elabs_1LOTQJ3.sdf', '/opt/xchem-fragalysis-2/maxwin/BulkDock/OUTPUTS/openbind_d68ev3c_c2_elabs_1LSYI5W.sdf']

$$$$
P95957
     RDKit          3D

 29 32  0  0  0  0  0  0  0  0999 V2000
   14.2793   -5.1058   18.0549 N   0  0  0  0  0  0  0  0  0  0  0  0
   13.9027   -4.1244   17.5680 C   0  0  0  0  0  0  0  0  0  0  0  0
   13.4868   -2.8971   16.9590 C   0  0  0  0  0  0  0  0  0  0  0  0
   12.2664   -2.8697   16.2702 C   0  0  0  0  0  0  0  0  0  0  0  0
   11.8160   -1.6743   15.7169 C   0  0  0  0  0  0  0  0  0  0  0  0
   10.2360   -1.5554   15.0749 Cl  0  0  0  0  0  0  0  0  0  0  0  0
   12.5989   -0.5294   15.7675 C   0  0  0  0  0  0  0  0  0  0  0  0
   13.8246   -0.5602   16.4291 C   0  0  0  0  0  0  0  0  0  0  0  0
   14.2671   -1.7303   17.0552 C   0  0  0  0  0  0  0  0  0  0  0  0
   15.4470   -1.6968   17.8083 N   0  0  0  0  0  0  0  0  0  0  0  0
   16.5451   -0.5951   17.9217 C   0  0  0  0  0  0  0  0  0  0  0  0
   16.5899    0.4847   17.4611 O   0  0  0  0  0  0  0  0  0  0  0  0
   17.6705   -1.0659   18.9027 C   0  0  0  0  0  0  0  0  0  0  0  0
   18.5225   -2.4771   18.1802 S   0  0  0  0  0  0  0  0  0  0  0  0
   17.5497   -3.5603   18.1740 O   0  0  0  0  0  0  0  0  0  0  0  0
   19.7969   -2.6674   18.8471 O   0  0  0  0  0  0  0  0  0  0  0  0
   18.9278   -2.1931   16.4712 C   0  0  0  0  0  0  0  0  0  0  0  0
   19.3247   -0.9306   16.0392 C   0  0  0  0  0  0  0  0  0  0  0  0
   19.6060   -0.7300   14.6861 C   0  0  0  0  0  0  0  0  0  0  0  0
   19.5100   -1.7841   13.7628 C   0  0  0  0  0  0  0  0  0  0  0  0
   19.7871   -1.5886   12.4002 C   0  0  0  0  0  0  0  0  0  0  0  0
   19.7061   -2.6493   11.4972 C   0  0  0  0  0  0  0  0  0  0  0  0
   19.3656   -3.9206   11.9477 C   0  0  0  0  0  0  0  0  0  0  0  0
   19.0961   -4.1328   13.3003 C   0  0  0  0  0  0  0  0  0  0  0  0
   19.1382   -3.0710   14.2160 C   0  0  0  0  0  0  0  0  0  0  0  0
   18.8336   -3.2618   15.5719 C   0  0  0  0  0  0  0  0  0  0  0  0
   18.6210    0.0374   19.4830 C   0  0  0  0  0  0  0  0  0  0  0  0
   17.6816    0.1263   20.6983 C   0  0  0  0  0  0  0  0  0  0  0  0
   17.2409   -1.3142   20.3885 C   0  0  0  0  0  0  0  0  0  0  0  0
  1  2  3  0
  2  3  1  0
  3  4  2  0
  4  5  1  0
  5  6  1  0
  5  7  2  0
  7  8  1  0
  8  9  2  0
  9 10  1  0
 10 11  1  0
 11 12  2  0
 11 13  1  0
 13 14  1  0
 14 15  2  0
 14 16  2  0
 14 17  1  0
 17 18  2  0
 18 19  1  0
 19 20  2  0
 20 21  1  0
 21 22  2  0
 22 23  1  0
 23 24  2  0
 24 25  1  0
 25 26  2  0
 13 27  1  0
 27 28  1  0
 28 29  1  0
  9  3  1  0
 29 13  1  0
 26 17  1  0
 25 20  1  0
M  END
>  <ref_mols>  (1385) 
B1396a

>  <gnina_score>  (1385) 
5.763

>  <smina_score_min>  (1385) 
-3.56

>  <ref_pdb>  (1385) 
B1396a

>  <inspiration_score>  (1385) 
None

>  <inchikey>  (1385) 
WHFDSJQEIAYUQZ-UHFFFAOYSA-N

>  <tags>  (1385) 
BulkDock Fragalysis export,openbind_d68ev3c_c2_elabs_scored,openbind_d68ev3c_c2_elabs_scored_4.5plus,openbind_d68ev3c_c2_elabs,openbind_d68ev3c_c2_elabs_scored_5plus,syndirella_product,openbind_d68ev3c_c2_elabs_scored_top80percent,syndirella_placed

>  <smiles>  (1385) 
N#Cc1cc(Cl)ccc1NC(=O)C1(S(=O)(=O)c2ccc3ccccc3c2)CCC1

>  <subsites>  (1385) 
None

>  <rmsd(smina/fragmenstein)>  (1385) 
2.839

>  <alias>  (1385) 
None

>  <energy_score>  (1385) 
-36.31419

>  <HIPPO Pose ID>  (1385) 
95957

>  <distance_score>  (1385) 
0.627614

>  <HIPPO Compound ID>  (1385) 
129938

>  <gnina_score_min>  (1385) 
5.282

>  <name>  (1385) 
P95957

>  <exports>  (1385) 
['/opt/xchem-fragalysis-2/maxwin/BulkDock/OUTPUTS/openbind_d68ev3c_c2_elabs_1LOTQJ3.sdf', '/opt/xchem-fragalysis-2/maxwin/BulkDock/OUTPUTS/openbind_d68ev3c_c2_elabs_1LSYI5W.sdf']

$$$$
P95958
     RDKit          3D

 29 32  0  0  0  0  0  0  0  0999 V2000
   13.9584    0.6921   15.6383 C   0  0  0  0  0  0  0  0  0  0  0  0
   13.3718   -0.6770   15.8284 C   0  0  0  0  0  0  0  0  0  0  0  0
   12.1405   -0.9020   15.1589 C   0  0  0  0  0  0  0  0  0  0  0  0
   11.4684   -2.1017   15.2897 C   0  0  0  0  0  0  0  0  0  0  0  0
   10.2497   -2.3231   14.7297 O   0  0  0  0  0  0  0  0  0  0  0  0
   12.0091   -3.1125   16.0602 C   0  0  0  0  0  0  0  0  0  0  0  0
   13.2264   -2.9328   16.7339 C   0  0  0  0  0  0  0  0  0  0  0  0
   13.7292   -4.0942   17.5616 C   0  0  0  0  0  0  0  0  0  0  0  0
   13.9304   -1.7020   16.6264 C   0  0  0  0  0  0  0  0  0  0  0  0
   15.1273   -1.6517   17.3766 N   0  0  0  0  0  0  0  0  0  0  0  0
   16.2440   -0.5641   17.4313 C   0  0  0  0  0  0  0  0  0  0  0  0
   16.3791    0.4194   16.8045 O   0  0  0  0  0  0  0  0  0  0  0  0
   17.2356   -0.9067   18.5910 C   0  0  0  0  0  0  0  0  0  0  0  0
   18.2364   -2.3330   18.0941 S   0  0  0  0  0  0  0  0  0  0  0  0
   19.4835   -2.3447   18.8397 O   0  0  0  0  0  0  0  0  0  0  0  0
   17.3653   -3.4980   18.1706 O   0  0  0  0  0  0  0  0  0  0  0  0
   18.7187   -2.1797   16.3852 C   0  0  0  0  0  0  0  0  0  0  0  0
   18.3998   -3.1909   15.4779 C   0  0  0  0  0  0  0  0  0  0  0  0
   18.7956   -3.0634   14.1453 C   0  0  0  0  0  0  0  0  0  0  0  0
   19.4993   -1.9291   13.7095 C   0  0  0  0  0  0  0  0  0  0  0  0
   19.8891   -1.7858   12.3688 C   0  0  0  0  0  0  0  0  0  0  0  0
   20.5943   -0.6574   11.9482 C   0  0  0  0  0  0  0  0  0  0  0  0
   20.9205    0.3402   12.8619 C   0  0  0  0  0  0  0  0  0  0  0  0
   20.5407    0.2135   14.1991 C   0  0  0  0  0  0  0  0  0  0  0  0
   19.8282   -0.9138   14.6386 C   0  0  0  0  0  0  0  0  0  0  0  0
   19.4386   -1.0531   15.9795 C   0  0  0  0  0  0  0  0  0  0  0  0
   16.6092   -1.0545   20.0175 C   0  0  0  0  0  0  0  0  0  0  0  0
   17.8007   -0.2777   20.5930 C   0  0  0  0  0  0  0  0  0  0  0  0
   18.0572    0.2839   19.1866 C   0  0  0  0  0  0  0  0  0  0  0  0
  1  2  1  0
  2  3  2  0
  3  4  1  0
  4  5  1  0
  4  6  2  0
  6  7  1  0
  7  8  1  0
  7  9  2  0
  9 10  1  0
 10 11  1  0
 11 12  2  0
 11 13  1  0
 13 14  1  0
 14 15  2  0
 14 16  2  0
 14 17  1  0
 17 18  2  0
 18 19  1  0
 19 20  2  0
 20 21  1  0
 21 22  2  0
 22 23  1  0
 23 24  2  0
 24 25  1  0
 25 26  2  0
 13 27  1  0
 27 28  1  0
 28 29  1  0
  9  2  1  0
 29 13  1  0
 26 17  1  0
 25 20  1  0
M  END
>  <ref_mols>  (1386) 
B1396a

>  <gnina_score>  (1386) 
5.151

>  <smina_score_min>  (1386) 
-3.623

>  <ref_pdb>  (1386) 
B1396a

>  <inspiration_score>  (1386) 
None

>  <inchikey>  (1386) 
KBHLWLUVPONXLX-UHFFFAOYSA-N

>  <tags>  (1386) 
BulkDock Fragalysis export,openbind_d68ev3c_c2_elabs_scored,openbind_d68ev3c_c2_elabs_scored_4.5plus,openbind_d68ev3c_c2_elabs,openbind_d68ev3c_c2_elabs_scored_5plus,syndirella_product,openbind_d68ev3c_c2_elabs_scored_top80percent,syndirella_placed

>  <smiles>  (1386) 
Cc1cc(O)cc(C)c1NC(=O)C1(S(=O)(=O)c2ccc3ccccc3c2)CCC1

>  <subsites>  (1386) 
None

>  <rmsd(smina/fragmenstein)>  (1386) 
0.168

>  <alias>  (1386) 
None

>  <energy_score>  (1386) 
-53.456219

>  <HIPPO Pose ID>  (1386) 
95958

>  <distance_score>  (1386) 
0.350019

>  <HIPPO Compound ID>  (1386) 
129939

>  <gnina_score_min>  (1386) 
5.126

>  <name>  (1386) 
P95958

>  <exports>  (1386) 
['/opt/xchem-fragalysis-2/maxwin/BulkDock/OUTPUTS/openbind_d68ev3c_c2_elabs_1LOTQJ3.sdf', '/opt/xchem-fragalysis-2/maxwin/BulkDock/OUTPUTS/openbind_d68ev3c_c2_elabs_1LSYI5W.sdf']

$$$$
P95959
     RDKit          3D

 29 32  0  0  0  0  0  0  0  0999 V2000
   13.8854   -4.1481   17.7210 C   0  0  0  0  0  0  0  0  0  0  0  0
   13.4668   -2.9296   16.9478 C   0  0  0  0  0  0  0  0  0  0  0  0
   14.1959   -1.7292   16.9655 C   0  0  0  0  0  0  0  0  0  0  0  0
   15.3479   -1.6312   17.7455 N   0  0  0  0  0  0  0  0  0  0  0  0
   16.4493   -0.5303   17.7894 C   0  0  0  0  0  0  0  0  0  0  0  0
   16.5167    0.5004   17.2319 O   0  0  0  0  0  0  0  0  0  0  0  0
   17.5408   -0.9404   18.8300 C   0  0  0  0  0  0  0  0  0  0  0  0
   18.4239   -2.3872   18.1954 S   0  0  0  0  0  0  0  0  0  0  0  0
   19.7119   -2.5052   18.8542 O   0  0  0  0  0  0  0  0  0  0  0  0
   17.4831   -3.4977   18.2767 O   0  0  0  0  0  0  0  0  0  0  0  0
   18.7996   -2.1918   16.4641 C   0  0  0  0  0  0  0  0  0  0  0  0
   18.4957   -3.2232   15.5728 C   0  0  0  0  0  0  0  0  0  0  0  0
   18.8016   -3.0726   14.2193 C   0  0  0  0  0  0  0  0  0  0  0  0
   19.3961   -1.8929   13.7450 C   0  0  0  0  0  0  0  0  0  0  0  0
   19.6933   -1.7254   12.3836 C   0  0  0  0  0  0  0  0  0  0  0  0
   20.2886   -0.5500   11.9239 C   0  0  0  0  0  0  0  0  0  0  0  0
   20.5963    0.4706   12.8184 C   0  0  0  0  0  0  0  0  0  0  0  0
   20.3080    0.3198   14.1758 C   0  0  0  0  0  0  0  0  0  0  0  0
   19.7067   -0.8548   14.6554 C   0  0  0  0  0  0  0  0  0  0  0  0
   19.4091   -1.0175   16.0177 C   0  0  0  0  0  0  0  0  0  0  0  0
   17.0428   -1.1178   20.3030 C   0  0  0  0  0  0  0  0  0  0  0  0
   18.3085   -0.4010   20.7907 C   0  0  0  0  0  0  0  0  0  0  0  0
   18.4629    0.1941   19.3831 C   0  0  0  0  0  0  0  0  0  0  0  0
   13.7523   -0.6273   16.2192 C   0  0  0  0  0  0  0  0  0  0  0  0
   12.5776   -0.6999   15.4672 C   0  0  0  0  0  0  0  0  0  0  0  0
   11.8554   -1.8799   15.4568 C   0  0  0  0  0  0  0  0  0  0  0  0
   10.7118   -1.9510   14.7668 F   0  0  0  0  0  0  0  0  0  0  0  0
   12.3000   -2.9782   16.1792 C   0  0  0  0  0  0  0  0  0  0  0  0
   11.5781   -4.1013   16.1508 F   0  0  0  0  0  0  0  0  0  0  0  0
  1  2  1  0
  2  3  2  0
  3  4  1  0
  4  5  1  0
  5  6  2  0
  5  7  1  0
  7  8  1  0
  8  9  2  0
  8 10  2  0
  8 11  1  0
 11 12  2  0
 12 13  1  0
 13 14  2  0
 14 15  1  0
 15 16  2  0
 16 17  1  0
 17 18  2  0
 18 19  1  0
 19 20  2  0
  7 21  1  0
 21 22  1  0
 22 23  1  0
  3 24  1  0
 24 25  2  0
 25 26  1  0
 26 27  1  0
 26 28  2  0
 28 29  1  0
 28  2  1  0
 23  7  1  0
 20 11  1  0
 19 14  1  0
M  END
>  <ref_mols>  (1387) 
B1396a

>  <gnina_score>  (1387) 
5.517

>  <smina_score_min>  (1387) 
-4.373

>  <ref_pdb>  (1387) 
B1396a

>  <inspiration_score>  (1387) 
None

>  <inchikey>  (1387) 
SRLBZPBGLLSUMI-UHFFFAOYSA-N

>  <tags>  (1387) 
BulkDock Fragalysis export,openbind_d68ev3c_c2_elabs_scored,openbind_d68ev3c_c2_elabs_scored_4.5plus,openbind_d68ev3c_c2_elabs,openbind_d68ev3c_c2_elabs_scored_5plus,syndirella_product,openbind_d68ev3c_c2_elabs_scored_top80percent,syndirella_placed

>  <smiles>  (1387) 
Cc1c(NC(=O)C2(S(=O)(=O)c3ccc4ccccc4c3)CCC2)ccc(F)c1F

>  <subsites>  (1387) 
None

>  <rmsd(smina/fragmenstein)>  (1387) 
4.04

>  <alias>  (1387) 
None

>  <energy_score>  (1387) 
-39.702016

>  <HIPPO Pose ID>  (1387) 
95959

>  <distance_score>  (1387) 
0.504631

>  <HIPPO Compound ID>  (1387) 
129940

>  <gnina_score_min>  (1387) 
5.179

>  <name>  (1387) 
P95959

>  <exports>  (1387) 
['/opt/xchem-fragalysis-2/maxwin/BulkDock/OUTPUTS/openbind_d68ev3c_c2_elabs_1LOTQJ3.sdf', '/opt/xchem-fragalysis-2/maxwin/BulkDock/OUTPUTS/openbind_d68ev3c_c2_elabs_1LSYI5W.sdf']

$$$$
P95961
     RDKit          3D

 29 32  0  0  0  0  0  0  0  0999 V2000
   13.8169   -4.0742   17.5090 C   0  0  0  0  0  0  0  0  0  0  0  0
   13.4701   -2.7557   16.8745 C   0  0  0  0  0  0  0  0  0  0  0  0
   14.3095   -1.6327   16.9602 C   0  0  0  0  0  0  0  0  0  0  0  0
   15.5048   -1.6966   17.6734 N   0  0  0  0  0  0  0  0  0  0  0  0
   16.6164   -0.6245   17.8841 C   0  0  0  0  0  0  0  0  0  0  0  0
   16.7331    0.4505   17.4257 O   0  0  0  0  0  0  0  0  0  0  0  0
   17.6564   -1.1468   18.9193 C   0  0  0  0  0  0  0  0  0  0  0  0
   18.5299   -2.5515   18.1943 S   0  0  0  0  0  0  0  0  0  0  0  0
   19.8023   -2.7341   18.8674 O   0  0  0  0  0  0  0  0  0  0  0  0
   17.5698   -3.6480   18.1736 O   0  0  0  0  0  0  0  0  0  0  0  0
   18.9487   -2.2518   16.4885 C   0  0  0  0  0  0  0  0  0  0  0  0
   19.3652   -0.9888   16.0754 C   0  0  0  0  0  0  0  0  0  0  0  0
   19.6541   -0.7721   14.7264 C   0  0  0  0  0  0  0  0  0  0  0  0
   19.5494   -1.8118   13.7882 C   0  0  0  0  0  0  0  0  0  0  0  0
   19.8352   -1.6003   12.4299 C   0  0  0  0  0  0  0  0  0  0  0  0
   19.7460   -2.6471   11.5115 C   0  0  0  0  0  0  0  0  0  0  0  0
   19.3881   -3.9204   11.9423 C   0  0  0  0  0  0  0  0  0  0  0  0
   19.1091   -4.1482   13.2905 C   0  0  0  0  0  0  0  0  0  0  0  0
   19.1597   -3.1002   14.2218 C   0  0  0  0  0  0  0  0  0  0  0  0
   18.8459   -3.3063   15.5738 C   0  0  0  0  0  0  0  0  0  0  0  0
   18.5862   -0.0848   19.5925 C   0  0  0  0  0  0  0  0  0  0  0  0
   18.3740   -0.7920   20.9396 C   0  0  0  0  0  0  0  0  0  0  0  0
   17.1064   -1.4306   20.3557 C   0  0  0  0  0  0  0  0  0  0  0  0
   13.9241   -0.4220   16.3726 C   0  0  0  0  0  0  0  0  0  0  0  0
   12.6763   -0.2856   15.7712 C   0  0  0  0  0  0  0  0  0  0  0  0
   11.8160   -1.3716   15.7373 C   0  0  0  0  0  0  0  0  0  0  0  0
   10.0402   -1.0708   15.1825 Br  0  0  0  0  0  0  0  0  0  0  0  0
   12.2326   -2.6062   16.2331 C   0  0  0  0  0  0  0  0  0  0  0  0
   11.4117   -3.6605   16.1555 F   0  0  0  0  0  0  0  0  0  0  0  0
  1  2  1  0
  2  3  2  0
  3  4  1  0
  4  5  1  0
  5  6  2  0
  5  7  1  0
  7  8  1  0
  8  9  2  0
  8 10  2  0
  8 11  1  0
 11 12  2  0
 12 13  1  0
 13 14  2  0
 14 15  1  0
 15 16  2  0
 16 17  1  0
 17 18  2  0
 18 19  1  0
 19 20  2  0
  7 21  1  0
 21 22  1  0
 22 23  1  0
  3 24  1  0
 24 25  2  0
 25 26  1  0
 26 27  1  0
 26 28  2  0
 28 29  1  0
 28  2  1  0
 23  7  1  0
 20 11  1  0
 19 14  1  0
M  END
>  <ref_mols>  (1388) 
B1396a

>  <gnina_score>  (1388) 
5.665

>  <smina_score_min>  (1388) 
-3.994

>  <ref_pdb>  (1388) 
B1396a

>  <inspiration_score>  (1388) 
None

>  <inchikey>  (1388) 
ICEVLJOJQJIWQW-UHFFFAOYSA-N

>  <tags>  (1388) 
BulkDock Fragalysis export,openbind_d68ev3c_c2_elabs_scored,openbind_d68ev3c_c2_elabs_scored_4.5plus,openbind_d68ev3c_c2_elabs,openbind_d68ev3c_c2_elabs_scored_5plus,syndirella_product,openbind_d68ev3c_c2_elabs_scored_top80percent,syndirella_placed

>  <smiles>  (1388) 
Cc1c(NC(=O)C2(S(=O)(=O)c3ccc4ccccc4c3)CCC2)ccc(Br)c1F

>  <subsites>  (1388) 
None

>  <rmsd(smina/fragmenstein)>  (1388) 
2.155

>  <alias>  (1388) 
None

>  <energy_score>  (1388) 
-47.271861

>  <HIPPO Pose ID>  (1388) 
95961

>  <distance_score>  (1388) 
0.679484

>  <HIPPO Compound ID>  (1388) 
129942

>  <gnina_score_min>  (1388) 
5.38

>  <name>  (1388) 
P95961

>  <exports>  (1388) 
['/opt/xchem-fragalysis-2/maxwin/BulkDock/OUTPUTS/openbind_d68ev3c_c2_elabs_1LOTQJ3.sdf', '/opt/xchem-fragalysis-2/maxwin/BulkDock/OUTPUTS/openbind_d68ev3c_c2_elabs_1LSYI5W.sdf']

$$$$
P95962
     RDKit          3D

 29 32  0  0  0  0  0  0  0  0999 V2000
   11.8108   -3.4808   13.8834 C   0  0  0  0  0  0  0  0  0  0  0  0
   11.6756   -3.5125   15.3079 O   0  0  0  0  0  0  0  0  0  0  0  0
   12.2668   -2.4009   15.8492 C   0  0  0  0  0  0  0  0  0  0  0  0
   11.8508   -1.1360   15.4215 C   0  0  0  0  0  0  0  0  0  0  0  0
   12.5652   -0.0148   15.8024 C   0  0  0  0  0  0  0  0  0  0  0  0
   13.6849   -0.1606   16.6160 C   0  0  0  0  0  0  0  0  0  0  0  0
   14.0558   -1.4151   17.1154 C   0  0  0  0  0  0  0  0  0  0  0  0
   15.1945   -1.5136   17.9176 N   0  0  0  0  0  0  0  0  0  0  0  0
   16.3626   -0.5056   18.1461 C   0  0  0  0  0  0  0  0  0  0  0  0
   16.5072    0.5926   17.7552 O   0  0  0  0  0  0  0  0  0  0  0  0
   17.4225   -1.1323   19.0999 C   0  0  0  0  0  0  0  0  0  0  0  0
   18.2321   -2.5070   18.2515 S   0  0  0  0  0  0  0  0  0  0  0  0
   17.2469   -3.5722   18.1225 O   0  0  0  0  0  0  0  0  0  0  0  0
   19.4896   -2.8068   18.9165 O   0  0  0  0  0  0  0  0  0  0  0  0
   18.6735   -2.0457   16.5836 C   0  0  0  0  0  0  0  0  0  0  0  0
   19.9386   -1.5133   16.3385 C   0  0  0  0  0  0  0  0  0  0  0  0
   20.3416   -1.2742   15.0241 C   0  0  0  0  0  0  0  0  0  0  0  0
   19.4913   -1.5653   13.9471 C   0  0  0  0  0  0  0  0  0  0  0  0
   19.9059   -1.3567   12.6229 C   0  0  0  0  0  0  0  0  0  0  0  0
   19.0592   -1.6575   11.5573 C   0  0  0  0  0  0  0  0  0  0  0  0
   17.7793   -2.1421   11.8044 C   0  0  0  0  0  0  0  0  0  0  0  0
   17.3412   -2.3286   13.1164 C   0  0  0  0  0  0  0  0  0  0  0  0
   18.1982   -2.0813   14.2004 C   0  0  0  0  0  0  0  0  0  0  0  0
   17.8046   -2.3354   15.5254 C   0  0  0  0  0  0  0  0  0  0  0  0
   18.4143   -0.1414   19.7928 C   0  0  0  0  0  0  0  0  0  0  0  0
   18.2318   -0.9181   21.1057 C   0  0  0  0  0  0  0  0  0  0  0  0
   16.9270   -1.4936   20.5365 C   0  0  0  0  0  0  0  0  0  0  0  0
   13.3069   -2.5583   16.7821 C   0  0  0  0  0  0  0  0  0  0  0  0
   13.6364   -3.9114   17.3558 C   0  0  0  0  0  0  0  0  0  0  0  0
  1  2  1  0
  2  3  1  0
  3  4  2  0
  4  5  1  0
  5  6  2  0
  6  7  1  0
  7  8  1  0
  8  9  1  0
  9 10  2  0
  9 11  1  0
 11 12  1  0
 12 13  2  0
 12 14  2  0
 12 15  1  0
 15 16  2  0
 16 17  1  0
 17 18  2  0
 18 19  1  0
 19 20  2  0
 20 21  1  0
 21 22  2  0
 22 23  1  0
 23 24  2  0
 11 25  1  0
 25 26  1  0
 26 27  1  0
  7 28  2  0
 28 29  1  0
 28  3  1  0
 27 11  1  0
 24 15  1  0
 23 18  1  0
M  END
>  <ref_mols>  (1389) 
B1396a

>  <gnina_score>  (1389) 
5.183

>  <smina_score_min>  (1389) 
-3.641

>  <ref_pdb>  (1389) 
B1396a

>  <inspiration_score>  (1389) 
None

>  <inchikey>  (1389) 
QCOMTLOWAQIHCF-UHFFFAOYSA-N

>  <tags>  (1389) 
BulkDock Fragalysis export,openbind_d68ev3c_c2_elabs_scored,openbind_d68ev3c_c2_elabs_scored_4.5plus,openbind_d68ev3c_c2_elabs,openbind_d68ev3c_c2_elabs_scored_5plus,syndirella_product,openbind_d68ev3c_c2_elabs_scored_top80percent,syndirella_placed

>  <smiles>  (1389) 
COc1cccc(NC(=O)C2(S(=O)(=O)c3ccc4ccccc4c3)CCC2)c1C

>  <subsites>  (1389) 
None

>  <rmsd(smina/fragmenstein)>  (1389) 
0.95

>  <alias>  (1389) 
None

>  <energy_score>  (1389) 
-49.208513

>  <HIPPO Pose ID>  (1389) 
95962

>  <distance_score>  (1389) 
0.811139

>  <HIPPO Compound ID>  (1389) 
129944

>  <gnina_score_min>  (1389) 
5.003

>  <name>  (1389) 
P95962

>  <exports>  (1389) 
['/opt/xchem-fragalysis-2/maxwin/BulkDock/OUTPUTS/openbind_d68ev3c_c2_elabs_1LOTQJ3.sdf', '/opt/xchem-fragalysis-2/maxwin/BulkDock/OUTPUTS/openbind_d68ev3c_c2_elabs_1LSYI5W.sdf']

$$$$
P95963
     RDKit          3D

 29 32  0  0  0  0  0  0  0  0999 V2000
   16.8308    0.6710   18.1244 O   0  0  0  0  0  0  0  0  0  0  0  0
   16.6503   -0.4658   18.3619 C   0  0  0  0  0  0  0  0  0  0  0  0
   15.4576   -1.3979   17.9899 N   0  0  0  0  0  0  0  0  0  0  0  0
   14.3303   -1.1579   17.1984 C   0  0  0  0  0  0  0  0  0  0  0  0
   14.0573    0.1589   16.8069 C   0  0  0  0  0  0  0  0  0  0  0  0
   12.9977    0.4537   15.9603 C   0  0  0  0  0  0  0  0  0  0  0  0
   12.2381   -0.5779   15.4494 C   0  0  0  0  0  0  0  0  0  0  0  0
   12.5161   -1.9000   15.8160 C   0  0  0  0  0  0  0  0  0  0  0  0
   11.4726   -3.2567   14.6975 I   0  0  0  0  0  0  0  0  0  0  0  0
   13.5105   -2.2206   16.7602 C   0  0  0  0  0  0  0  0  0  0  0  0
   13.7250   -3.6164   17.2981 C   0  0  0  0  0  0  0  0  0  0  0  0
   15.0280   -4.0462   16.9355 O   0  0  0  0  0  0  0  0  0  0  0  0
   17.6691   -1.2161   19.2750 C   0  0  0  0  0  0  0  0  0  0  0  0
   18.4472   -2.5741   18.3806 S   0  0  0  0  0  0  0  0  0  0  0  0
   17.4701   -3.6542   18.3627 O   0  0  0  0  0  0  0  0  0  0  0  0
   19.7544   -2.8335   18.9589 O   0  0  0  0  0  0  0  0  0  0  0  0
   18.7909   -2.1930   16.6759 C   0  0  0  0  0  0  0  0  0  0  0  0
   19.1879   -0.9134   16.2984 C   0  0  0  0  0  0  0  0  0  0  0  0
   19.4792   -0.6572   14.9554 C   0  0  0  0  0  0  0  0  0  0  0  0
   19.4036   -1.6746   13.9892 C   0  0  0  0  0  0  0  0  0  0  0  0
   19.6998   -1.4246   12.6395 C   0  0  0  0  0  0  0  0  0  0  0  0
   19.6461   -2.4513   11.6959 C   0  0  0  0  0  0  0  0  0  0  0  0
   19.3143   -3.7425   12.0929 C   0  0  0  0  0  0  0  0  0  0  0  0
   19.0240   -4.0074   13.4319 C   0  0  0  0  0  0  0  0  0  0  0  0
   19.0360   -2.9801   14.3872 C   0  0  0  0  0  0  0  0  0  0  0  0
   18.7109   -3.2238   15.7308 C   0  0  0  0  0  0  0  0  0  0  0  0
   17.1390   -1.6520   20.6857 C   0  0  0  0  0  0  0  0  0  0  0  0
   17.6796   -0.3224   21.2393 C   0  0  0  0  0  0  0  0  0  0  0  0
   18.6841   -0.3166   20.0734 C   0  0  0  0  0  0  0  0  0  0  0  0
  1  2  2  0
  2  3  1  0
  3  4  1  0
  4  5  2  0
  5  6  1  0
  6  7  2  0
  7  8  1  0
  8  9  1  0
  8 10  2  0
 10 11  1  0
 11 12  1  0
  2 13  1  0
 13 14  1  0
 14 15  2  0
 14 16  2  0
 14 17  1  0
 17 18  2  0
 18 19  1  0
 19 20  2  0
 20 21  1  0
 21 22  2  0
 22 23  1  0
 23 24  2  0
 24 25  1  0
 25 26  2  0
 13 27  1  0
 27 28  1  0
 28 29  1  0
 10  4  1  0
 29 13  1  0
 26 17  1  0
 25 20  1  0
M  END
>  <ref_mols>  (1390) 
B1396a

>  <gnina_score>  (1390) 
5.202

>  <smina_score_min>  (1390) 
-3.06

>  <ref_pdb>  (1390) 
B1396a

>  <inspiration_score>  (1390) 
None

>  <inchikey>  (1390) 
ITTCWQUASIQPPR-UHFFFAOYSA-N

>  <tags>  (1390) 
BulkDock Fragalysis export,openbind_d68ev3c_c2_elabs_scored,openbind_d68ev3c_c2_elabs_scored_4.5plus,openbind_d68ev3c_c2_elabs,openbind_d68ev3c_c2_elabs_scored_5plus,syndirella_product,openbind_d68ev3c_c2_elabs_scored_top80percent,syndirella_placed

>  <smiles>  (1390) 
O=C(Nc1cccc(I)c1CO)C1(S(=O)(=O)c2ccc3ccccc3c2)CCC1

>  <subsites>  (1390) 
None

>  <rmsd(smina/fragmenstein)>  (1390) 
1.748

>  <alias>  (1390) 
None

>  <energy_score>  (1390) 
-45.506953

>  <HIPPO Pose ID>  (1390) 
95963

>  <distance_score>  (1390) 
1.079892

>  <HIPPO Compound ID>  (1390) 
129945

>  <gnina_score_min>  (1390) 
5.256

>  <name>  (1390) 
P95963

>  <exports>  (1390) 
['/opt/xchem-fragalysis-2/maxwin/BulkDock/OUTPUTS/openbind_d68ev3c_c2_elabs_1LOTQJ3.sdf', '/opt/xchem-fragalysis-2/maxwin/BulkDock/OUTPUTS/openbind_d68ev3c_c2_elabs_1LSYI5W.sdf']

$$$$
P95964
     RDKit          3D

 29 32  0  0  0  0  0  0  0  0999 V2000
   14.3963   -3.9188   18.6694 O   0  0  0  0  0  0  0  0  0  0  0  0
   13.6065   -4.0722   17.7441 C   0  0  0  0  0  0  0  0  0  0  0  0
   13.2016   -2.9435   16.8696 C   0  0  0  0  0  0  0  0  0  0  0  0
   12.1021   -3.1618   16.0279 C   0  0  0  0  0  0  0  0  0  0  0  0
   11.6423   -2.1442   15.2027 C   0  0  0  0  0  0  0  0  0  0  0  0
   12.2642   -0.9008   15.2460 C   0  0  0  0  0  0  0  0  0  0  0  0
   13.3698   -0.6715   16.0834 C   0  0  0  0  0  0  0  0  0  0  0  0
   13.8688    0.9774   16.1905 Cl  0  0  0  0  0  0  0  0  0  0  0  0
   13.8907   -1.7081   16.8760 C   0  0  0  0  0  0  0  0  0  0  0  0
   15.0361   -1.6282   17.6909 N   0  0  0  0  0  0  0  0  0  0  0  0
   16.2937   -0.7178   17.5809 C   0  0  0  0  0  0  0  0  0  0  0  0
   16.5346    0.1595   16.8398 O   0  0  0  0  0  0  0  0  0  0  0  0
   17.2991   -1.0746   18.7196 C   0  0  0  0  0  0  0  0  0  0  0  0
   18.3681   -2.4186   18.1343 S   0  0  0  0  0  0  0  0  0  0  0  0
   17.5645   -3.6311   18.1383 O   0  0  0  0  0  0  0  0  0  0  0  0
   19.6183   -2.4055   18.8758 O   0  0  0  0  0  0  0  0  0  0  0  0
   18.8540   -2.1834   16.4336 C   0  0  0  0  0  0  0  0  0  0  0  0
   19.3211   -0.9436   16.0053 C   0  0  0  0  0  0  0  0  0  0  0  0
   19.6774   -0.7717   14.6662 C   0  0  0  0  0  0  0  0  0  0  0  0
   19.5958   -1.8364   13.7545 C   0  0  0  0  0  0  0  0  0  0  0  0
   19.9496   -1.6705   12.4059 C   0  0  0  0  0  0  0  0  0  0  0  0
   19.8853   -2.7425   11.5149 C   0  0  0  0  0  0  0  0  0  0  0  0
   19.4841   -3.9962   11.9648 C   0  0  0  0  0  0  0  0  0  0  0  0
   19.1360   -4.1787   13.3038 C   0  0  0  0  0  0  0  0  0  0  0  0
   19.1610   -3.1041   14.2059 C   0  0  0  0  0  0  0  0  0  0  0  0
   18.7784   -3.2638   15.5465 C   0  0  0  0  0  0  0  0  0  0  0  0
   18.0743    0.1308   19.3506 C   0  0  0  0  0  0  0  0  0  0  0  0
   17.8853   -0.5057   20.7351 C   0  0  0  0  0  0  0  0  0  0  0  0
   16.7212   -1.3181   20.1532 C   0  0  0  0  0  0  0  0  0  0  0  0
  1  2  2  0
  2  3  1  0
  3  4  2  0
  4  5  1  0
  5  6  2  0
  6  7  1  0
  7  8  1  0
  7  9  2  0
  9 10  1  0
 10 11  1  0
 11 12  2  0
 11 13  1  0
 13 14  1  0
 14 15  2  0
 14 16  2  0
 14 17  1  0
 17 18  2  0
 18 19  1  0
 19 20  2  0
 20 21  1  0
 21 22  2  0
 22 23  1  0
 23 24  2  0
 24 25  1  0
 25 26  2  0
 13 27  1  0
 27 28  1  0
 28 29  1  0
  9  3  1  0
 29 13  1  0
 26 17  1  0
 25 20  1  0
M  END
>  <ref_mols>  (1391) 
B1396a

>  <gnina_score>  (1391) 
5.309

>  <smina_score_min>  (1391) 
-3.577

>  <ref_pdb>  (1391) 
B1396a

>  <inspiration_score>  (1391) 
None

>  <inchikey>  (1391) 
VMLXPTFBIQQCTP-UHFFFAOYSA-N

>  <tags>  (1391) 
BulkDock Fragalysis export,openbind_d68ev3c_c2_elabs_scored,openbind_d68ev3c_c2_elabs_scored_4.5plus,openbind_d68ev3c_c2_elabs,openbind_d68ev3c_c2_elabs_scored_5plus,syndirella_product,openbind_d68ev3c_c2_elabs_scored_top80percent,syndirella_placed

>  <smiles>  (1391) 
O=Cc1cccc(Cl)c1NC(=O)C1(S(=O)(=O)c2ccc3ccccc3c2)CCC1

>  <subsites>  (1391) 
None

>  <rmsd(smina/fragmenstein)>  (1391) 
2.107

>  <alias>  (1391) 
None

>  <energy_score>  (1391) 
-44.791579

>  <HIPPO Pose ID>  (1391) 
95964

>  <distance_score>  (1391) 
0.380674

>  <HIPPO Compound ID>  (1391) 
129946

>  <gnina_score_min>  (1391) 
5.027

>  <name>  (1391) 
P95964

>  <exports>  (1391) 
['/opt/xchem-fragalysis-2/maxwin/BulkDock/OUTPUTS/openbind_d68ev3c_c2_elabs_1LOTQJ3.sdf', '/opt/xchem-fragalysis-2/maxwin/BulkDock/OUTPUTS/openbind_d68ev3c_c2_elabs_1LSYI5W.sdf']

$$$$
P95965
     RDKit          3D

 29 32  0  0  0  0  0  0  0  0999 V2000
   10.4315   -1.6122   14.9784 C   0  0  0  0  0  0  0  0  0  0  0  0
   11.8125   -1.7234   15.5372 C   0  0  0  0  0  0  0  0  0  0  0  0
   12.2246   -2.8520   16.2400 C   0  0  0  0  0  0  0  0  0  0  0  0
   13.4801   -2.8925   16.8736 C   0  0  0  0  0  0  0  0  0  0  0  0
   13.8114   -4.1284   17.6755 C   0  0  0  0  0  0  0  0  0  0  0  0
   14.3592   -1.7808   16.7866 C   0  0  0  0  0  0  0  0  0  0  0  0
   15.5176   -1.8572   17.5854 N   0  0  0  0  0  0  0  0  0  0  0  0
   16.5034   -0.7403   18.0511 C   0  0  0  0  0  0  0  0  0  0  0  0
   16.5446    0.4008   17.7766 O   0  0  0  0  0  0  0  0  0  0  0  0
   17.5444   -1.3252   19.0480 C   0  0  0  0  0  0  0  0  0  0  0  0
   18.4812   -2.6370   18.2308 S   0  0  0  0  0  0  0  0  0  0  0  0
   17.5756   -3.7775   18.1552 O   0  0  0  0  0  0  0  0  0  0  0  0
   19.7704   -2.7956   18.8782 O   0  0  0  0  0  0  0  0  0  0  0  0
   18.8655   -2.2354   16.5380 C   0  0  0  0  0  0  0  0  0  0  0  0
   19.2173   -0.9376   16.1798 C   0  0  0  0  0  0  0  0  0  0  0  0
   19.4826   -0.6500   14.8386 C   0  0  0  0  0  0  0  0  0  0  0  0
   19.4144   -1.6503   13.8542 C   0  0  0  0  0  0  0  0  0  0  0  0
   19.6715   -1.3645   12.5038 C   0  0  0  0  0  0  0  0  0  0  0  0
   19.6156   -2.3711   11.5387 C   0  0  0  0  0  0  0  0  0  0  0  0
   19.3187   -3.6774   11.9138 C   0  0  0  0  0  0  0  0  0  0  0  0
   19.0687   -3.9788   13.2531 C   0  0  0  0  0  0  0  0  0  0  0  0
   19.0883   -2.9729   14.2316 C   0  0  0  0  0  0  0  0  0  0  0  0
   18.8026   -3.2522   15.5763 C   0  0  0  0  0  0  0  0  0  0  0  0
   18.4323   -0.3000   19.8300 C   0  0  0  0  0  0  0  0  0  0  0  0
   18.2210   -1.1325   21.1040 C   0  0  0  0  0  0  0  0  0  0  0  0
   16.9778   -1.7458   20.4442 C   0  0  0  0  0  0  0  0  0  0  0  0
   13.9871   -0.7131   15.9513 C   0  0  0  0  0  0  0  0  0  0  0  0
   15.1603    0.6173   15.2647 Br  0  0  0  0  0  0  0  0  0  0  0  0
   12.7077   -0.6706   15.3797 C   0  0  0  0  0  0  0  0  0  0  0  0
  1  2  1  0
  2  3  2  0
  3  4  1  0
  4  5  1  0
  4  6  2  0
  6  7  1  0
  7  8  1  0
  8  9  2  0
  8 10  1  0
 10 11  1  0
 11 12  2  0
 11 13  2  0
 11 14  1  0
 14 15  2  0
 15 16  1  0
 16 17  2  0
 17 18  1  0
 18 19  2  0
 19 20  1  0
 20 21  2  0
 21 22  1  0
 22 23  2  0
 10 24  1  0
 24 25  1  0
 25 26  1  0
  6 27  1  0
 27 28  1  0
 27 29  2  0
 29  2  1  0
 26 10  1  0
 23 14  1  0
 22 17  1  0
M  END
>  <ref_mols>  (1392) 
B1396a

>  <gnina_score>  (1392) 
5.514

>  <smina_score_min>  (1392) 
-3.234

>  <ref_pdb>  (1392) 
B1396a

>  <inspiration_score>  (1392) 
None

>  <inchikey>  (1392) 
MDBLTSUGQQJHAF-UHFFFAOYSA-N

>  <tags>  (1392) 
BulkDock Fragalysis export,openbind_d68ev3c_c2_elabs_scored,openbind_d68ev3c_c2_elabs_scored_4.5plus,openbind_d68ev3c_c2_elabs,openbind_d68ev3c_c2_elabs_scored_5plus,syndirella_product,openbind_d68ev3c_c2_elabs_scored_top80percent,syndirella_placed

>  <smiles>  (1392) 
Cc1cc(C)c(NC(=O)C2(S(=O)(=O)c3ccc4ccccc4c3)CCC2)c(Br)c1

>  <subsites>  (1392) 
None

>  <rmsd(smina/fragmenstein)>  (1392) 
1.13

>  <alias>  (1392) 
None

>  <energy_score>  (1392) 
-31.339617

>  <HIPPO Pose ID>  (1392) 
95965

>  <distance_score>  (1392) 
0.67612

>  <HIPPO Compound ID>  (1392) 
129948

>  <gnina_score_min>  (1392) 
5.311

>  <name>  (1392) 
P95965

>  <exports>  (1392) 
['/opt/xchem-fragalysis-2/maxwin/BulkDock/OUTPUTS/openbind_d68ev3c_c2_elabs_1LOTQJ3.sdf', '/opt/xchem-fragalysis-2/maxwin/BulkDock/OUTPUTS/openbind_d68ev3c_c2_elabs_1LSYI5W.sdf']

$$$$
P95966
     RDKit          3D

 29 32  0  0  0  0  0  0  0  0999 V2000
   16.7354    0.3217   17.1547 O   0  0  0  0  0  0  0  0  0  0  0  0
   16.5825   -0.6762   17.7520 C   0  0  0  0  0  0  0  0  0  0  0  0
   15.4456   -1.7321   17.6736 N   0  0  0  0  0  0  0  0  0  0  0  0
   14.2650   -1.7327   16.9455 C   0  0  0  0  0  0  0  0  0  0  0  0
   13.8711   -0.5965   16.2353 C   0  0  0  0  0  0  0  0  0  0  0  0
   12.6289   -0.5580   15.6104 C   0  0  0  0  0  0  0  0  0  0  0  0
   11.8008   -1.6696   15.6692 C   0  0  0  0  0  0  0  0  0  0  0  0
   10.2030   -1.5350   15.0724 Cl  0  0  0  0  0  0  0  0  0  0  0  0
   12.2205   -2.8418   16.2969 C   0  0  0  0  0  0  0  0  0  0  0  0
   13.4435   -2.8759   16.9865 C   0  0  0  0  0  0  0  0  0  0  0  0
   13.8299   -4.1429   17.7156 C   0  0  0  0  0  0  0  0  0  0  0  0
   14.5098   -3.8494   18.9336 O   0  0  0  0  0  0  0  0  0  0  0  0
   17.6036   -1.1156   18.8417 C   0  0  0  0  0  0  0  0  0  0  0  0
   18.5517   -2.5100   18.1852 S   0  0  0  0  0  0  0  0  0  0  0  0
   19.8480   -2.5681   18.8377 O   0  0  0  0  0  0  0  0  0  0  0  0
   17.6852   -3.6795   18.2435 O   0  0  0  0  0  0  0  0  0  0  0  0
   18.9118   -2.2560   16.4560 C   0  0  0  0  0  0  0  0  0  0  0  0
   18.5258   -3.2149   15.5173 C   0  0  0  0  0  0  0  0  0  0  0  0
   18.8211   -3.0105   14.1686 C   0  0  0  0  0  0  0  0  0  0  0  0
   19.4896   -1.8498   13.7480 C   0  0  0  0  0  0  0  0  0  0  0  0
   19.7795   -1.6287   12.3926 C   0  0  0  0  0  0  0  0  0  0  0  0
   20.4493   -0.4738   11.9863 C   0  0  0  0  0  0  0  0  0  0  0  0
   20.8392    0.4730   12.9288 C   0  0  0  0  0  0  0  0  0  0  0  0
   20.5593    0.2685   14.2809 C   0  0  0  0  0  0  0  0  0  0  0  0
   19.8844   -0.8865   14.7071 C   0  0  0  0  0  0  0  0  0  0  0  0
   19.5965   -1.1034   16.0635 C   0  0  0  0  0  0  0  0  0  0  0  0
   17.0392   -1.3632   20.2784 C   0  0  0  0  0  0  0  0  0  0  0  0
   18.2726   -0.6544   20.8550 C   0  0  0  0  0  0  0  0  0  0  0  0
   18.4718    0.0139   19.4862 C   0  0  0  0  0  0  0  0  0  0  0  0
  1  2  2  0
  2  3  1  0
  3  4  1  0
  4  5  2  0
  5  6  1  0
  6  7  2  0
  7  8  1  0
  7  9  1  0
  9 10  2  0
 10 11  1  0
 11 12  1  0
  2 13  1  0
 13 14  1  0
 14 15  2  0
 14 16  2  0
 14 17  1  0
 17 18  2  0
 18 19  1  0
 19 20  2  0
 20 21  1  0
 21 22  2  0
 22 23  1  0
 23 24  2  0
 24 25  1  0
 25 26  2  0
 13 27  1  0
 27 28  1  0
 28 29  1  0
 10  4  1  0
 29 13  1  0
 26 17  1  0
 25 20  1  0
M  END
>  <ref_mols>  (1393) 
B1396a

>  <gnina_score>  (1393) 
5.356

>  <smina_score_min>  (1393) 
-3.479

>  <ref_pdb>  (1393) 
B1396a

>  <inspiration_score>  (1393) 
None

>  <inchikey>  (1393) 
OBOZBHUPQQWHSS-UHFFFAOYSA-N

>  <tags>  (1393) 
BulkDock Fragalysis export,openbind_d68ev3c_c2_elabs_scored,openbind_d68ev3c_c2_elabs_scored_4.5plus,openbind_d68ev3c_c2_elabs,openbind_d68ev3c_c2_elabs_scored_5plus,syndirella_product,openbind_d68ev3c_c2_elabs_scored_top80percent,syndirella_placed

>  <smiles>  (1393) 
O=C(Nc1ccc(Cl)cc1CO)C1(S(=O)(=O)c2ccc3ccccc3c2)CCC1

>  <subsites>  (1393) 
None

>  <rmsd(smina/fragmenstein)>  (1393) 
2.534

>  <alias>  (1393) 
None

>  <energy_score>  (1393) 
-28.88687

>  <HIPPO Pose ID>  (1393) 
95966

>  <distance_score>  (1393) 
0.529726

>  <HIPPO Compound ID>  (1393) 
129950

>  <gnina_score_min>  (1393) 
5.289

>  <name>  (1393) 
P95966

>  <exports>  (1393) 
['/opt/xchem-fragalysis-2/maxwin/BulkDock/OUTPUTS/openbind_d68ev3c_c2_elabs_1LOTQJ3.sdf', '/opt/xchem-fragalysis-2/maxwin/BulkDock/OUTPUTS/openbind_d68ev3c_c2_elabs_1LSYI5W.sdf']

$$$$
P95967
     RDKit          3D

 29 33  0  0  0  0  0  0  0  0999 V2000
   16.6851   -0.5809   16.3603 O   0  0  0  0  0  0  0  0  0  0  0  0
   16.2577   -1.0867   17.3395 C   0  0  0  0  0  0  0  0  0  0  0  0
   14.9023   -1.7155   17.6085 N   0  0  0  0  0  0  0  0  0  0  0  0
   14.9075   -3.2552   17.2662 C   0  0  0  0  0  0  0  0  0  0  0  0
   13.5973   -3.9725   17.4639 C   0  0  0  0  0  0  0  0  0  0  0  0
   12.9278   -2.9563   16.6724 C   0  0  0  0  0  0  0  0  0  0  0  0
   11.7985   -3.0744   15.8791 C   0  0  0  0  0  0  0  0  0  0  0  0
   11.3499   -1.9593   15.1823 C   0  0  0  0  0  0  0  0  0  0  0  0
   12.0315   -0.7470   15.3000 C   0  0  0  0  0  0  0  0  0  0  0  0
   13.1852   -0.6547   16.0904 C   0  0  0  0  0  0  0  0  0  0  0  0
   13.8871    0.9125   16.2725 Cl  0  0  0  0  0  0  0  0  0  0  0  0
   13.6781   -1.7916   16.7549 C   0  0  0  0  0  0  0  0  0  0  0  0
   17.1525   -1.1706   18.6088 C   0  0  0  0  0  0  0  0  0  0  0  0
   18.4851   -2.3782   18.2644 S   0  0  0  0  0  0  0  0  0  0  0  0
   17.9139   -3.7120   18.3857 O   0  0  0  0  0  0  0  0  0  0  0  0
   19.6550   -2.0593   19.0668 O   0  0  0  0  0  0  0  0  0  0  0  0
   19.0455   -2.2490   16.5713 C   0  0  0  0  0  0  0  0  0  0  0  0
   19.6470   -1.0664   16.1416 C   0  0  0  0  0  0  0  0  0  0  0  0
   20.0282   -0.9388   14.8050 C   0  0  0  0  0  0  0  0  0  0  0  0
   19.8473   -1.9976   13.9003 C   0  0  0  0  0  0  0  0  0  0  0  0
   20.2259   -1.8775   12.5538 C   0  0  0  0  0  0  0  0  0  0  0  0
   20.0684   -2.9464   11.6708 C   0  0  0  0  0  0  0  0  0  0  0  0
   19.5488   -4.1533   12.1273 C   0  0  0  0  0  0  0  0  0  0  0  0
   19.1736   -4.2905   13.4643 C   0  0  0  0  0  0  0  0  0  0  0  0
   19.2900   -3.2151   14.3578 C   0  0  0  0  0  0  0  0  0  0  0  0
   18.8800   -3.3277   15.6955 C   0  0  0  0  0  0  0  0  0  0  0  0
   17.6696    0.1990   19.1563 C   0  0  0  0  0  0  0  0  0  0  0  0
   17.4660   -0.3294   20.5847 C   0  0  0  0  0  0  0  0  0  0  0  0
   16.4933   -1.3708   20.0120 C   0  0  0  0  0  0  0  0  0  0  0  0
  1  2  2  0
  2  3  1  0
  3  4  1  0
  4  5  1  0
  5  6  1  0
  6  7  2  0
  7  8  1  0
  8  9  2  0
  9 10  1  0
 10 11  1  0
 10 12  2  0
  2 13  1  0
 13 14  1  0
 14 15  2  0
 14 16  2  0
 14 17  1  0
 17 18  2  0
 18 19  1  0
 19 20  2  0
 20 21  1  0
 21 22  2  0
 22 23  1  0
 23 24  2  0
 24 25  1  0
 25 26  2  0
 13 27  1  0
 27 28  1  0
 28 29  1  0
 12  3  1  0
 29 13  1  0
 12  6  1  0
 26 17  1  0
 25 20  1  0
M  END
>  <ref_mols>  (1394) 
B1396a

>  <gnina_score>  (1394) 
5.453

>  <smina_score_min>  (1394) 
-3.941

>  <ref_pdb>  (1394) 
B1396a

>  <inspiration_score>  (1394) 
None

>  <inchikey>  (1394) 
OXRQCGNXVZKKSZ-UHFFFAOYSA-N

>  <tags>  (1394) 
BulkDock Fragalysis export,openbind_d68ev3c_c2_elabs_scored,openbind_d68ev3c_c2_elabs_scored_4.5plus,openbind_d68ev3c_c2_elabs,openbind_d68ev3c_c2_elabs_scored_5plus,syndirella_product,openbind_d68ev3c_c2_elabs_scored_top80percent,syndirella_placed

>  <smiles>  (1394) 
O=C(N1CCc2cccc(Cl)c21)C1(S(=O)(=O)c2ccc3ccccc3c2)CCC1

>  <subsites>  (1394) 
None

>  <rmsd(smina/fragmenstein)>  (1394) 
1.471

>  <alias>  (1394) 
None

>  <energy_score>  (1394) 
-4.30962

>  <HIPPO Pose ID>  (1394) 
95967

>  <distance_score>  (1394) 
0.389143

>  <HIPPO Compound ID>  (1394) 
129951

>  <gnina_score_min>  (1394) 
5.287

>  <name>  (1394) 
P95967

>  <exports>  (1394) 
['/opt/xchem-fragalysis-2/maxwin/BulkDock/OUTPUTS/openbind_d68ev3c_c2_elabs_1LOTQJ3.sdf', '/opt/xchem-fragalysis-2/maxwin/BulkDock/OUTPUTS/openbind_d68ev3c_c2_elabs_1LSYI5W.sdf']

$$$$
P95968
     RDKit          3D

 29 32  0  0  0  0  0  0  0  0999 V2000
   13.7578   -4.0088   17.5490 C   0  0  0  0  0  0  0  0  0  0  0  0
   13.2990   -2.7778   16.8103 C   0  0  0  0  0  0  0  0  0  0  0  0
   12.1899   -2.8834   15.9596 C   0  0  0  0  0  0  0  0  0  0  0  0
   11.5714   -4.0573   15.8183 F   0  0  0  0  0  0  0  0  0  0  0  0
   11.6929   -1.8036   15.2473 C   0  0  0  0  0  0  0  0  0  0  0  0
   12.2978   -0.5657   15.3999 C   0  0  0  0  0  0  0  0  0  0  0  0
   13.4124   -0.4190   16.2401 C   0  0  0  0  0  0  0  0  0  0  0  0
   13.8968    1.2156   16.5234 Cl  0  0  0  0  0  0  0  0  0  0  0  0
   13.9555   -1.5307   16.9212 C   0  0  0  0  0  0  0  0  0  0  0  0
   15.1061   -1.4822   17.7309 N   0  0  0  0  0  0  0  0  0  0  0  0
   16.3672   -0.5677   17.6454 C   0  0  0  0  0  0  0  0  0  0  0  0
   16.6043    0.3360   16.9347 O   0  0  0  0  0  0  0  0  0  0  0  0
   17.3742   -0.9636   18.7654 C   0  0  0  0  0  0  0  0  0  0  0  0
   18.2879   -2.4172   18.1936 S   0  0  0  0  0  0  0  0  0  0  0  0
   17.3510   -3.5320   18.2478 O   0  0  0  0  0  0  0  0  0  0  0  0
   19.5442   -2.5226   18.9151 O   0  0  0  0  0  0  0  0  0  0  0  0
   18.7508   -2.2481   16.4793 C   0  0  0  0  0  0  0  0  0  0  0  0
   18.4517   -3.2722   15.5783 C   0  0  0  0  0  0  0  0  0  0  0  0
   18.8280   -3.1402   14.2404 C   0  0  0  0  0  0  0  0  0  0  0  0
   19.4900   -1.9868   13.7907 C   0  0  0  0  0  0  0  0  0  0  0  0
   19.8593   -1.8382   12.4447 C   0  0  0  0  0  0  0  0  0  0  0  0
   20.5203   -0.6887   12.0098 C   0  0  0  0  0  0  0  0  0  0  0  0
   20.8221    0.3249   12.9143 C   0  0  0  0  0  0  0  0  0  0  0  0
   20.4629    0.1925   14.2566 C   0  0  0  0  0  0  0  0  0  0  0  0
   19.7958   -0.9563   14.7110 C   0  0  0  0  0  0  0  0  0  0  0  0
   19.4281   -1.1013   16.0580 C   0  0  0  0  0  0  0  0  0  0  0  0
   16.8044   -1.1138   20.2145 C   0  0  0  0  0  0  0  0  0  0  0  0
   18.0478   -0.3929   20.7512 C   0  0  0  0  0  0  0  0  0  0  0  0
   18.2679    0.1813   19.3440 C   0  0  0  0  0  0  0  0  0  0  0  0
  1  2  1  0
  2  3  2  0
  3  4  1  0
  3  5  1  0
  5  6  2  0
  6  7  1  0
  7  8  1  0
  7  9  2  0
  9 10  1  0
 10 11  1  0
 11 12  2  0
 11 13  1  0
 13 14  1  0
 14 15  2  0
 14 16  2  0
 14 17  1  0
 17 18  2  0
 18 19  1  0
 19 20  2  0
 20 21  1  0
 21 22  2  0
 22 23  1  0
 23 24  2  0
 24 25  1  0
 25 26  2  0
 13 27  1  0
 27 28  1  0
 28 29  1  0
  9  2  1  0
 29 13  1  0
 26 17  1  0
 25 20  1  0
M  END
>  <ref_mols>  (1395) 
B1396a

>  <gnina_score>  (1395) 
5.645

>  <smina_score_min>  (1395) 
-3.918

>  <ref_pdb>  (1395) 
B1396a

>  <inspiration_score>  (1395) 
None

>  <inchikey>  (1395) 
DPTOFNOBWBZNIT-UHFFFAOYSA-N

>  <tags>  (1395) 
BulkDock Fragalysis export,openbind_d68ev3c_c2_elabs_scored,openbind_d68ev3c_c2_elabs_scored_4.5plus,openbind_d68ev3c_c2_elabs,openbind_d68ev3c_c2_elabs_scored_5plus,syndirella_product,openbind_d68ev3c_c2_elabs_scored_top80percent,syndirella_placed

>  <smiles>  (1395) 
Cc1c(F)ccc(Cl)c1NC(=O)C1(S(=O)(=O)c2ccc3ccccc3c2)CCC1

>  <subsites>  (1395) 
None

>  <rmsd(smina/fragmenstein)>  (1395) 
2.003

>  <alias>  (1395) 
None

>  <energy_score>  (1395) 
-36.218016

>  <HIPPO Pose ID>  (1395) 
95968

>  <distance_score>  (1395) 
0.421866

>  <HIPPO Compound ID>  (1395) 
129952

>  <gnina_score_min>  (1395) 
5.641

>  <name>  (1395) 
P95968

>  <exports>  (1395) 
['/opt/xchem-fragalysis-2/maxwin/BulkDock/OUTPUTS/openbind_d68ev3c_c2_elabs_1LOTQJ3.sdf', '/opt/xchem-fragalysis-2/maxwin/BulkDock/OUTPUTS/openbind_d68ev3c_c2_elabs_1LSYI5W.sdf']

$$$$
P95969
     RDKit          3D

 29 32  0  0  0  0  0  0  0  0999 V2000
   14.3500    1.0817   16.5633 C   0  0  0  0  0  0  0  0  0  0  0  0
   13.6971   -0.2670   16.4501 C   0  0  0  0  0  0  0  0  0  0  0  0
   12.4420   -0.2593   15.8156 C   0  0  0  0  0  0  0  0  0  0  0  0
   11.6667   -1.4032   15.7382 C   0  0  0  0  0  0  0  0  0  0  0  0
    9.8822   -1.2039   15.1727 Br  0  0  0  0  0  0  0  0  0  0  0  0
   12.1522   -2.6109   16.2140 C   0  0  0  0  0  0  0  0  0  0  0  0
   13.4023   -2.6574   16.8593 C   0  0  0  0  0  0  0  0  0  0  0  0
   13.8272   -3.9809   17.4552 C   0  0  0  0  0  0  0  0  0  0  0  0
   14.1938   -1.4769   16.9794 C   0  0  0  0  0  0  0  0  0  0  0  0
   15.4019   -1.6122   17.6918 N   0  0  0  0  0  0  0  0  0  0  0  0
   16.6225   -0.6468   17.8104 C   0  0  0  0  0  0  0  0  0  0  0  0
   16.8408    0.3738   17.2708 O   0  0  0  0  0  0  0  0  0  0  0  0
   17.6248   -1.1842   18.8744 C   0  0  0  0  0  0  0  0  0  0  0  0
   18.4717   -2.6088   18.1749 S   0  0  0  0  0  0  0  0  0  0  0  0
   19.7177   -2.8249   18.8877 O   0  0  0  0  0  0  0  0  0  0  0  0
   17.4843   -3.6795   18.1332 O   0  0  0  0  0  0  0  0  0  0  0  0
   18.9502   -2.3203   16.4836 C   0  0  0  0  0  0  0  0  0  0  0  0
   19.4289   -1.0721   16.0917 C   0  0  0  0  0  0  0  0  0  0  0  0
   19.7575   -0.8548   14.7522 C   0  0  0  0  0  0  0  0  0  0  0  0
   19.6378   -1.8830   13.8036 C   0  0  0  0  0  0  0  0  0  0  0  0
   19.9666   -1.6723   12.4549 C   0  0  0  0  0  0  0  0  0  0  0  0
   19.8658   -2.7090   11.5265 C   0  0  0  0  0  0  0  0  0  0  0  0
   19.4532   -3.9720   11.9382 C   0  0  0  0  0  0  0  0  0  0  0  0
   19.1301   -4.1988   13.2767 C   0  0  0  0  0  0  0  0  0  0  0  0
   19.1906   -3.1595   14.2172 C   0  0  0  0  0  0  0  0  0  0  0  0
   18.8318   -3.3634   15.5586 C   0  0  0  0  0  0  0  0  0  0  0  0
   18.5719   -0.1323   19.5506 C   0  0  0  0  0  0  0  0  0  0  0  0
   17.5407   -0.0241   20.6872 C   0  0  0  0  0  0  0  0  0  0  0  0
   17.0759   -1.4429   20.3176 C   0  0  0  0  0  0  0  0  0  0  0  0
  1  2  1  0
  2  3  2  0
  3  4  1  0
  4  5  1  0
  4  6  2  0
  6  7  1  0
  7  8  1  0
  7  9  2  0
  9 10  1  0
 10 11  1  0
 11 12  2  0
 11 13  1  0
 13 14  1  0
 14 15  2  0
 14 16  2  0
 14 17  1  0
 17 18  2  0
 18 19  1  0
 19 20  2  0
 20 21  1  0
 21 22  2  0
 22 23  1  0
 23 24  2  0
 24 25  1  0
 25 26  2  0
 13 27  1  0
 27 28  1  0
 28 29  1  0
  9  2  1  0
 29 13  1  0
 26 17  1  0
 25 20  1  0
M  END
>  <ref_mols>  (1396) 
B1396a

>  <gnina_score>  (1396) 
5.659

>  <smina_score_min>  (1396) 
-3.677

>  <ref_pdb>  (1396) 
B1396a

>  <inspiration_score>  (1396) 
None

>  <inchikey>  (1396) 
POLFMZHBLIPBPE-UHFFFAOYSA-N

>  <tags>  (1396) 
BulkDock Fragalysis export,openbind_d68ev3c_c2_elabs_scored,openbind_d68ev3c_c2_elabs_scored_4.5plus,openbind_d68ev3c_c2_elabs,openbind_d68ev3c_c2_elabs_scored_5plus,syndirella_product,openbind_d68ev3c_c2_elabs_scored_top80percent,syndirella_placed

>  <smiles>  (1396) 
Cc1cc(Br)cc(C)c1NC(=O)C1(S(=O)(=O)c2ccc3ccccc3c2)CCC1

>  <subsites>  (1396) 
None

>  <rmsd(smina/fragmenstein)>  (1396) 
3.496

>  <alias>  (1396) 
None

>  <energy_score>  (1396) 
-46.50748

>  <HIPPO Pose ID>  (1396) 
95969

>  <distance_score>  (1396) 
0.644747

>  <HIPPO Compound ID>  (1396) 
129953

>  <gnina_score_min>  (1396) 
5.378

>  <name>  (1396) 
P95969

>  <exports>  (1396) 
['/opt/xchem-fragalysis-2/maxwin/BulkDock/OUTPUTS/openbind_d68ev3c_c2_elabs_1LOTQJ3.sdf', '/opt/xchem-fragalysis-2/maxwin/BulkDock/OUTPUTS/openbind_d68ev3c_c2_elabs_1LSYI5W.sdf']

$$$$
P95971
     RDKit          3D

 29 32  0  0  0  0  0  0  0  0999 V2000
   13.9141   -4.1670   17.7226 C   0  0  0  0  0  0  0  0  0  0  0  0
   13.3664   -3.0029   16.9348 C   0  0  0  0  0  0  0  0  0  0  0  0
   12.2076   -3.2240   16.1784 C   0  0  0  0  0  0  0  0  0  0  0  0
   11.6580   -2.2048   15.4249 C   0  0  0  0  0  0  0  0  0  0  0  0
   10.5341   -2.4342   14.7387 F   0  0  0  0  0  0  0  0  0  0  0  0
   12.2230   -0.9429   15.4224 C   0  0  0  0  0  0  0  0  0  0  0  0
   13.3774   -0.6798   16.1795 C   0  0  0  0  0  0  0  0  0  0  0  0
   13.8013    1.0576   16.2532 S   0  0  0  0  0  0  0  0  0  0  0  0
   13.9807   -1.7230   16.9247 C   0  0  0  0  0  0  0  0  0  0  0  0
   15.1406   -1.5887   17.7115 N   0  0  0  0  0  0  0  0  0  0  0  0
   16.3631   -0.6344   17.5580 C   0  0  0  0  0  0  0  0  0  0  0  0
   16.5551    0.2391   16.7975 O   0  0  0  0  0  0  0  0  0  0  0  0
   17.3972   -0.9371   18.6857 C   0  0  0  0  0  0  0  0  0  0  0  0
   18.3566   -2.3821   18.1688 S   0  0  0  0  0  0  0  0  0  0  0  0
   19.6163   -2.4205   18.8905 O   0  0  0  0  0  0  0  0  0  0  0  0
   17.4564   -3.5235   18.2648 O   0  0  0  0  0  0  0  0  0  0  0  0
   18.8061   -2.2473   16.4479 C   0  0  0  0  0  0  0  0  0  0  0  0
   18.4727   -3.2717   15.5603 C   0  0  0  0  0  0  0  0  0  0  0  0
   18.8341   -3.1576   14.2165 C   0  0  0  0  0  0  0  0  0  0  0  0
   19.5140   -2.0219   13.7483 C   0  0  0  0  0  0  0  0  0  0  0  0
   19.8663   -1.8913   12.3960 C   0  0  0  0  0  0  0  0  0  0  0  0
   20.5468   -0.7603   11.9430 C   0  0  0  0  0  0  0  0  0  0  0  0
   20.8859    0.2521   12.8355 C   0  0  0  0  0  0  0  0  0  0  0  0
   20.5439    0.1375   14.1839 C   0  0  0  0  0  0  0  0  0  0  0  0
   19.8564   -0.9921   14.6561 C   0  0  0  0  0  0  0  0  0  0  0  0
   19.5047   -1.1197   16.0088 C   0  0  0  0  0  0  0  0  0  0  0  0
   16.8483   -1.0413   20.1467 C   0  0  0  0  0  0  0  0  0  0  0  0
   18.0671   -0.2479   20.6345 C   0  0  0  0  0  0  0  0  0  0  0  0
   18.2513    0.2666   19.1994 C   0  0  0  0  0  0  0  0  0  0  0  0
  1  2  1  0
  2  3  2  0
  3  4  1  0
  4  5  1  0
  4  6  2  0
  6  7  1  0
  7  8  1  0
  7  9  2  0
  9 10  1  0
 10 11  1  0
 11 12  2  0
 11 13  1  0
 13 14  1  0
 14 15  2  0
 14 16  2  0
 14 17  1  0
 17 18  2  0
 18 19  1  0
 19 20  2  0
 20 21  1  0
 21 22  2  0
 22 23  1  0
 23 24  2  0
 24 25  1  0
 25 26  2  0
 13 27  1  0
 27 28  1  0
 28 29  1  0
  9  2  1  0
 29 13  1  0
 26 17  1  0
 25 20  1  0
M  END
>  <ref_mols>  (1397) 
B1396a

>  <gnina_score>  (1397) 
5.616

>  <smina_score_min>  (1397) 
-3.841

>  <ref_pdb>  (1397) 
B1396a

>  <inspiration_score>  (1397) 
None

>  <inchikey>  (1397) 
WKVITCGHFWXURI-UHFFFAOYSA-N

>  <tags>  (1397) 
BulkDock Fragalysis export,openbind_d68ev3c_c2_elabs_scored,openbind_d68ev3c_c2_elabs_scored_4.5plus,openbind_d68ev3c_c2_elabs,openbind_d68ev3c_c2_elabs_scored_5plus,syndirella_product,openbind_d68ev3c_c2_elabs_scored_top80percent,syndirella_placed

>  <smiles>  (1397) 
Cc1cc(F)cc(S)c1NC(=O)C1(S(=O)(=O)c2ccc3ccccc3c2)CCC1

>  <subsites>  (1397) 
None

>  <rmsd(smina/fragmenstein)>  (1397) 
1.992

>  <alias>  (1397) 
None

>  <energy_score>  (1397) 
-36.311269

>  <HIPPO Pose ID>  (1397) 
95971

>  <distance_score>  (1397) 
0.328396

>  <HIPPO Compound ID>  (1397) 
129955

>  <gnina_score_min>  (1397) 
5.519

>  <name>  (1397) 
P95971

>  <exports>  (1397) 
['/opt/xchem-fragalysis-2/maxwin/BulkDock/OUTPUTS/openbind_d68ev3c_c2_elabs_1LOTQJ3.sdf', '/opt/xchem-fragalysis-2/maxwin/BulkDock/OUTPUTS/openbind_d68ev3c_c2_elabs_1LSYI5W.sdf']

$$$$
P95972
     RDKit          3D

 29 32  0  0  0  0  0  0  0  0999 V2000
   13.6731   -4.1965   17.5997 C   0  0  0  0  0  0  0  0  0  0  0  0
   13.2544   -3.0076   16.7779 C   0  0  0  0  0  0  0  0  0  0  0  0
   12.0797   -3.0908   16.0147 C   0  0  0  0  0  0  0  0  0  0  0  0
   11.6427   -2.0150   15.2431 C   0  0  0  0  0  0  0  0  0  0  0  0
   12.3834   -0.8322   15.2080 C   0  0  0  0  0  0  0  0  0  0  0  0
   11.9103    0.3349   14.3842 C   0  0  0  0  0  0  0  0  0  0  0  0
   11.2106    1.2611   15.2064 O   0  0  0  0  0  0  0  0  0  0  0  0
   13.5616   -0.7427   15.9683 C   0  0  0  0  0  0  0  0  0  0  0  0
   13.9988   -1.8177   16.7501 C   0  0  0  0  0  0  0  0  0  0  0  0
   15.1696   -1.7243   17.5034 N   0  0  0  0  0  0  0  0  0  0  0  0
   16.2288   -0.5864   17.5893 C   0  0  0  0  0  0  0  0  0  0  0  0
   16.3208    0.4142   16.9822 O   0  0  0  0  0  0  0  0  0  0  0  0
   17.2560   -0.9273   18.7196 C   0  0  0  0  0  0  0  0  0  0  0  0
   18.2654   -2.3347   18.1837 S   0  0  0  0  0  0  0  0  0  0  0  0
   19.5046   -2.3709   18.9401 O   0  0  0  0  0  0  0  0  0  0  0  0
   17.3856   -3.4962   18.2159 O   0  0  0  0  0  0  0  0  0  0  0  0
   18.7711   -2.1551   16.4844 C   0  0  0  0  0  0  0  0  0  0  0  0
   19.2108   -0.9209   16.0118 C   0  0  0  0  0  0  0  0  0  0  0  0
   19.5865   -0.7948   14.6728 C   0  0  0  0  0  0  0  0  0  0  0  0
   19.5439   -1.8969   13.8042 C   0  0  0  0  0  0  0  0  0  0  0  0
   19.9175   -1.7778   12.4561 C   0  0  0  0  0  0  0  0  0  0  0  0
   19.8884   -2.8856   11.6082 C   0  0  0  0  0  0  0  0  0  0  0  0
   19.5026   -4.1278   12.1014 C   0  0  0  0  0  0  0  0  0  0  0  0
   19.1358   -4.2639   13.4409 C   0  0  0  0  0  0  0  0  0  0  0  0
   19.1272   -3.1545   14.2996 C   0  0  0  0  0  0  0  0  0  0  0  0
   18.7285   -3.2701   15.6401 C   0  0  0  0  0  0  0  0  0  0  0  0
   18.0735    0.2633   19.3179 C   0  0  0  0  0  0  0  0  0  0  0  0
   17.8437   -0.3170   20.7214 C   0  0  0  0  0  0  0  0  0  0  0  0
   16.6573   -1.1076   20.1542 C   0  0  0  0  0  0  0  0  0  0  0  0
  1  2  1  0
  2  3  2  0
  3  4  1  0
  4  5  2  0
  5  6  1  0
  6  7  1  0
  5  8  1  0
  8  9  2  0
  9 10  1  0
 10 11  1  0
 11 12  2  0
 11 13  1  0
 13 14  1  0
 14 15  2  0
 14 16  2  0
 14 17  1  0
 17 18  2  0
 18 19  1  0
 19 20  2  0
 20 21  1  0
 21 22  2  0
 22 23  1  0
 23 24  2  0
 24 25  1  0
 25 26  2  0
 13 27  1  0
 27 28  1  0
 28 29  1  0
  9  2  1  0
 29 13  1  0
 26 17  1  0
 25 20  1  0
M  END
>  <ref_mols>  (1398) 
B1396a

>  <gnina_score>  (1398) 
5.115

>  <smina_score_min>  (1398) 
-4.133

>  <ref_pdb>  (1398) 
B1396a

>  <inspiration_score>  (1398) 
None

>  <inchikey>  (1398) 
KBBBKXKUDSJFRU-UHFFFAOYSA-N

>  <tags>  (1398) 
BulkDock Fragalysis export,openbind_d68ev3c_c2_elabs_scored,openbind_d68ev3c_c2_elabs_scored_4.5plus,openbind_d68ev3c_c2_elabs,openbind_d68ev3c_c2_elabs_scored_5plus,syndirella_product,openbind_d68ev3c_c2_elabs_scored_top80percent,syndirella_placed

>  <smiles>  (1398) 
Cc1ccc(CO)cc1NC(=O)C1(S(=O)(=O)c2ccc3ccccc3c2)CCC1

>  <subsites>  (1398) 
None

>  <rmsd(smina/fragmenstein)>  (1398) 
2.052

>  <alias>  (1398) 
None

>  <energy_score>  (1398) 
-43.147107

>  <HIPPO Pose ID>  (1398) 
95972

>  <distance_score>  (1398) 
0.430358

>  <HIPPO Compound ID>  (1398) 
129956

>  <gnina_score_min>  (1398) 
5.005

>  <name>  (1398) 
P95972

>  <exports>  (1398) 
['/opt/xchem-fragalysis-2/maxwin/BulkDock/OUTPUTS/openbind_d68ev3c_c2_elabs_1LOTQJ3.sdf', '/opt/xchem-fragalysis-2/maxwin/BulkDock/OUTPUTS/openbind_d68ev3c_c2_elabs_1LSYI5W.sdf']

$$$$
P95973
     RDKit          3D

 29 32  0  0  0  0  0  0  0  0999 V2000
   13.6095   -4.1631   17.5669 C   0  0  0  0  0  0  0  0  0  0  0  0
   13.2211   -2.9620   16.7463 C   0  0  0  0  0  0  0  0  0  0  0  0
   12.0776   -3.0358   15.9328 C   0  0  0  0  0  0  0  0  0  0  0  0
   11.6716   -1.9466   15.1611 C   0  0  0  0  0  0  0  0  0  0  0  0
   12.4125   -0.7654   15.1880 C   0  0  0  0  0  0  0  0  0  0  0  0
   11.9868    0.3703   14.4192 C   0  0  0  0  0  0  0  0  0  0  0  0
   11.6340    1.3042   13.8257 N   0  0  0  0  0  0  0  0  0  0  0  0
   13.5644   -0.6851   15.9831 C   0  0  0  0  0  0  0  0  0  0  0  0
   13.9688   -1.7722   16.7663 C   0  0  0  0  0  0  0  0  0  0  0  0
   15.0957   -1.6805   17.5867 N   0  0  0  0  0  0  0  0  0  0  0  0
   16.1742   -0.5626   17.7029 C   0  0  0  0  0  0  0  0  0  0  0  0
   16.2395    0.4881   17.1830 O   0  0  0  0  0  0  0  0  0  0  0  0
   17.2344   -0.9721   18.7812 C   0  0  0  0  0  0  0  0  0  0  0  0
   18.2056   -2.3749   18.1733 S   0  0  0  0  0  0  0  0  0  0  0  0
   19.4559   -2.4588   18.9080 O   0  0  0  0  0  0  0  0  0  0  0  0
   17.3079   -3.5227   18.1810 O   0  0  0  0  0  0  0  0  0  0  0  0
   18.6934   -2.1507   16.4755 C   0  0  0  0  0  0  0  0  0  0  0  0
   19.0955   -0.8986   16.0176 C   0  0  0  0  0  0  0  0  0  0  0  0
   19.4695   -0.7472   14.6805 C   0  0  0  0  0  0  0  0  0  0  0  0
   19.4603   -1.8401   13.7990 C   0  0  0  0  0  0  0  0  0  0  0  0
   19.8302   -1.6942   12.4526 C   0  0  0  0  0  0  0  0  0  0  0  0
   19.8333   -2.7923   11.5917 C   0  0  0  0  0  0  0  0  0  0  0  0
   19.4837   -4.0509   12.0700 C   0  0  0  0  0  0  0  0  0  0  0  0
   19.1211   -4.2135   13.4076 C   0  0  0  0  0  0  0  0  0  0  0  0
   19.0804   -3.1149   14.2793 C   0  0  0  0  0  0  0  0  0  0  0  0
   18.6848   -3.2570   15.6181 C   0  0  0  0  0  0  0  0  0  0  0  0
   18.0924    0.1815   19.4003 C   0  0  0  0  0  0  0  0  0  0  0  0
   17.8893   -0.4437   20.7882 C   0  0  0  0  0  0  0  0  0  0  0  0
   16.6745   -1.1938   20.2272 C   0  0  0  0  0  0  0  0  0  0  0  0
  1  2  1  0
  2  3  2  0
  3  4  1  0
  4  5  2  0
  5  6  1  0
  6  7  3  0
  5  8  1  0
  8  9  2  0
  9 10  1  0
 10 11  1  0
 11 12  2  0
 11 13  1  0
 13 14  1  0
 14 15  2  0
 14 16  2  0
 14 17  1  0
 17 18  2  0
 18 19  1  0
 19 20  2  0
 20 21  1  0
 21 22  2  0
 22 23  1  0
 23 24  2  0
 24 25  1  0
 25 26  2  0
 13 27  1  0
 27 28  1  0
 28 29  1  0
  9  2  1  0
 29 13  1  0
 26 17  1  0
 25 20  1  0
M  END
>  <ref_mols>  (1399) 
B1396a

>  <gnina_score>  (1399) 
5.247

>  <smina_score_min>  (1399) 
-4.093

>  <ref_pdb>  (1399) 
B1396a

>  <inspiration_score>  (1399) 
None

>  <inchikey>  (1399) 
BYUWGRRXWVCDPQ-UHFFFAOYSA-N

>  <tags>  (1399) 
BulkDock Fragalysis export,openbind_d68ev3c_c2_elabs_scored,openbind_d68ev3c_c2_elabs_scored_4.5plus,openbind_d68ev3c_c2_elabs,openbind_d68ev3c_c2_elabs_scored_5plus,syndirella_product,openbind_d68ev3c_c2_elabs_scored_top80percent,syndirella_placed

>  <smiles>  (1399) 
Cc1ccc(C#N)cc1NC(=O)C1(S(=O)(=O)c2ccc3ccccc3c2)CCC1

>  <subsites>  (1399) 
None

>  <rmsd(smina/fragmenstein)>  (1399) 
1.909

>  <alias>  (1399) 
None

>  <energy_score>  (1399) 
-40.901388

>  <HIPPO Pose ID>  (1399) 
95973

>  <distance_score>  (1399) 
0.477454

>  <HIPPO Compound ID>  (1399) 
129959

>  <gnina_score_min>  (1399) 
5.146

>  <name>  (1399) 
P95973

>  <exports>  (1399) 
['/opt/xchem-fragalysis-2/maxwin/BulkDock/OUTPUTS/openbind_d68ev3c_c2_elabs_1LOTQJ3.sdf', '/opt/xchem-fragalysis-2/maxwin/BulkDock/OUTPUTS/openbind_d68ev3c_c2_elabs_1LSYI5W.sdf']

$$$$
P95977
     RDKit          3D

 29 32  0  0  0  0  0  0  0  0999 V2000
   10.7938   -2.1327   14.6260 C   0  0  0  0  0  0  0  0  0  0  0  0
   11.9407   -1.9934   15.5654 C   0  0  0  0  0  0  0  0  0  0  0  0
   12.4011   -3.0908   16.2947 C   0  0  0  0  0  0  0  0  0  0  0  0
   13.5421   -2.9943   17.1072 C   0  0  0  0  0  0  0  0  0  0  0  0
   13.9913   -4.2238   17.8492 C   0  0  0  0  0  0  0  0  0  0  0  0
   14.2370   -1.7693   17.1746 C   0  0  0  0  0  0  0  0  0  0  0  0
   15.3959   -1.6900   17.9559 N   0  0  0  0  0  0  0  0  0  0  0  0
   16.5362   -0.6271   17.9706 C   0  0  0  0  0  0  0  0  0  0  0  0
   16.6400    0.3848   17.3849 O   0  0  0  0  0  0  0  0  0  0  0  0
   17.6324   -1.0614   18.9831 C   0  0  0  0  0  0  0  0  0  0  0  0
   18.4969   -2.4869   18.2836 S   0  0  0  0  0  0  0  0  0  0  0  0
   17.5687   -3.6071   18.3745 O   0  0  0  0  0  0  0  0  0  0  0  0
   19.8075   -2.6106   18.8958 O   0  0  0  0  0  0  0  0  0  0  0  0
   18.8209   -2.2655   16.5432 C   0  0  0  0  0  0  0  0  0  0  0  0
   18.5440   -3.3087   15.6563 C   0  0  0  0  0  0  0  0  0  0  0  0
   18.8304   -3.1522   14.2991 C   0  0  0  0  0  0  0  0  0  0  0  0
   19.3762   -1.9533   13.8151 C   0  0  0  0  0  0  0  0  0  0  0  0
   19.6619   -1.7827   12.4514 C   0  0  0  0  0  0  0  0  0  0  0  0
   20.2068   -0.5869   11.9819 C   0  0  0  0  0  0  0  0  0  0  0  0
   20.4735    0.4518   12.8690 C   0  0  0  0  0  0  0  0  0  0  0  0
   20.1981    0.2972   14.2287 C   0  0  0  0  0  0  0  0  0  0  0  0
   19.6508   -0.8990   14.7189 C   0  0  0  0  0  0  0  0  0  0  0  0
   19.3751   -1.0684   16.0856 C   0  0  0  0  0  0  0  0  0  0  0  0
   18.5688    0.0569   19.5443 C   0  0  0  0  0  0  0  0  0  0  0  0
   18.4480   -0.5782   20.9377 C   0  0  0  0  0  0  0  0  0  0  0  0
   17.1677   -1.2767   20.4605 C   0  0  0  0  0  0  0  0  0  0  0  0
   13.7470   -0.6727   16.4547 C   0  0  0  0  0  0  0  0  0  0  0  0
   14.3171    0.5349   16.5377 F   0  0  0  0  0  0  0  0  0  0  0  0
   12.6179   -0.7808   15.6527 C   0  0  0  0  0  0  0  0  0  0  0  0
  1  2  1  0
  2  3  2  0
  3  4  1  0
  4  5  1  0
  4  6  2  0
  6  7  1  0
  7  8  1  0
  8  9  2  0
  8 10  1  0
 10 11  1  0
 11 12  2  0
 11 13  2  0
 11 14  1  0
 14 15  2  0
 15 16  1  0
 16 17  2  0
 17 18  1  0
 18 19  2  0
 19 20  1  0
 20 21  2  0
 21 22  1  0
 22 23  2  0
 10 24  1  0
 24 25  1  0
 25 26  1  0
  6 27  1  0
 27 28  1  0
 27 29  2  0
 29  2  1  0
 26 10  1  0
 23 14  1  0
 22 17  1  0
M  END
>  <ref_mols>  (1400) 
B1396a

>  <gnina_score>  (1400) 
5.453

>  <smina_score_min>  (1400) 
-3.65

>  <ref_pdb>  (1400) 
B1396a

>  <inspiration_score>  (1400) 
None

>  <inchikey>  (1400) 
DHYANGJKZSHULY-UHFFFAOYSA-N

>  <tags>  (1400) 
BulkDock Fragalysis export,openbind_d68ev3c_c2_elabs_scored,openbind_d68ev3c_c2_elabs_scored_4.5plus,openbind_d68ev3c_c2_elabs,openbind_d68ev3c_c2_elabs_scored_5plus,syndirella_product,openbind_d68ev3c_c2_elabs_scored_top80percent,syndirella_placed

>  <smiles>  (1400) 
Cc1cc(C)c(NC(=O)C2(S(=O)(=O)c3ccc4ccccc4c3)CCC2)c(F)c1

>  <subsites>  (1400) 
None

>  <rmsd(smina/fragmenstein)>  (1400) 
2.337

>  <alias>  (1400) 
None

>  <energy_score>  (1400) 
-35.628574

>  <HIPPO Pose ID>  (1400) 
95977

>  <distance_score>  (1400) 
0.572025

>  <HIPPO Compound ID>  (1400) 
129967

>  <gnina_score_min>  (1400) 
5.259

>  <name>  (1400) 
P95977

>  <exports>  (1400) 
['/opt/xchem-fragalysis-2/maxwin/BulkDock/OUTPUTS/openbind_d68ev3c_c2_elabs_1LOTQJ3.sdf', '/opt/xchem-fragalysis-2/maxwin/BulkDock/OUTPUTS/openbind_d68ev3c_c2_elabs_1LSYI5W.sdf']

$$$$
P95978
     RDKit          3D

 29 32  0  0  0  0  0  0  0  0999 V2000
   12.2210   -3.1694   13.4502 C   0  0  0  0  0  0  0  0  0  0  0  0
   11.5008   -3.4288   15.0859 S   0  0  0  0  0  0  0  0  0  0  0  0
   12.3669   -2.1384   15.9373 C   0  0  0  0  0  0  0  0  0  0  0  0
   12.0155   -0.8399   15.5436 C   0  0  0  0  0  0  0  0  0  0  0  0
   12.7779    0.2391   15.9452 C   0  0  0  0  0  0  0  0  0  0  0  0
   13.8971    0.0211   16.7386 C   0  0  0  0  0  0  0  0  0  0  0  0
   14.2259   -1.2625   17.1922 C   0  0  0  0  0  0  0  0  0  0  0  0
   15.3788   -1.4223   17.9647 N   0  0  0  0  0  0  0  0  0  0  0  0
   16.5855   -0.4612   18.1937 C   0  0  0  0  0  0  0  0  0  0  0  0
   16.7590    0.6425   17.8303 O   0  0  0  0  0  0  0  0  0  0  0  0
   17.6441   -1.1391   19.1182 C   0  0  0  0  0  0  0  0  0  0  0  0
   18.3510   -2.5636   18.2724 S   0  0  0  0  0  0  0  0  0  0  0  0
   17.3019   -3.5749   18.2450 O   0  0  0  0  0  0  0  0  0  0  0  0
   19.6305   -2.8931   18.8743 O   0  0  0  0  0  0  0  0  0  0  0  0
   18.7276   -2.2216   16.5654 C   0  0  0  0  0  0  0  0  0  0  0  0
   18.4493   -3.1966   15.6028 C   0  0  0  0  0  0  0  0  0  0  0  0
   18.7784   -2.9610   14.2674 C   0  0  0  0  0  0  0  0  0  0  0  0
   19.3727   -1.7500   13.8811 C   0  0  0  0  0  0  0  0  0  0  0  0
   19.7058   -1.4988   12.5408 C   0  0  0  0  0  0  0  0  0  0  0  0
   20.2983   -0.2914   12.1685 C   0  0  0  0  0  0  0  0  0  0  0  0
   20.5662    0.6781   13.1303 C   0  0  0  0  0  0  0  0  0  0  0  0
   20.2445    0.4430   14.4681 C   0  0  0  0  0  0  0  0  0  0  0  0
   19.6485   -0.7656   14.8614 C   0  0  0  0  0  0  0  0  0  0  0  0
   19.3265   -1.0138   16.2061 C   0  0  0  0  0  0  0  0  0  0  0  0
   17.1855   -1.4689   20.5791 C   0  0  0  0  0  0  0  0  0  0  0  0
   17.7727   -0.1139   21.0101 C   0  0  0  0  0  0  0  0  0  0  0  0
   18.7058   -0.1979   19.7893 C   0  0  0  0  0  0  0  0  0  0  0  0
   13.4226   -2.3670   16.8451 C   0  0  0  0  0  0  0  0  0  0  0  0
   13.7315   -3.7438   17.3837 C   0  0  0  0  0  0  0  0  0  0  0  0
  1  2  1  0
  2  3  1  0
  3  4  2  0
  4  5  1  0
  5  6  2  0
  6  7  1  0
  7  8  1  0
  8  9  1  0
  9 10  2  0
  9 11  1  0
 11 12  1  0
 12 13  2  0
 12 14  2  0
 12 15  1  0
 15 16  2  0
 16 17  1  0
 17 18  2  0
 18 19  1  0
 19 20  2  0
 20 21  1  0
 21 22  2  0
 22 23  1  0
 23 24  2  0
 11 25  1  0
 25 26  1  0
 26 27  1  0
  7 28  2  0
 28 29  1  0
 28  3  1  0
 27 11  1  0
 24 15  1  0
 23 18  1  0
M  END
>  <ref_mols>  (1401) 
B1396a

>  <gnina_score>  (1401) 
5.365

>  <smina_score_min>  (1401) 
-3.189

>  <ref_pdb>  (1401) 
B1396a

>  <inspiration_score>  (1401) 
None

>  <inchikey>  (1401) 
OMXITWOVRFZTNX-UHFFFAOYSA-N

>  <tags>  (1401) 
BulkDock Fragalysis export,openbind_d68ev3c_c2_elabs_scored,openbind_d68ev3c_c2_elabs_scored_4.5plus,openbind_d68ev3c_c2_elabs,openbind_d68ev3c_c2_elabs_scored_5plus,syndirella_product,openbind_d68ev3c_c2_elabs_scored_top80percent,syndirella_placed

>  <smiles>  (1401) 
CSc1cccc(NC(=O)C2(S(=O)(=O)c3ccc4ccccc4c3)CCC2)c1C

>  <subsites>  (1401) 
None

>  <rmsd(smina/fragmenstein)>  (1401) 
1.37

>  <alias>  (1401) 
None

>  <energy_score>  (1401) 
-44.513506

>  <HIPPO Pose ID>  (1401) 
95978

>  <distance_score>  (1401) 
0.902099

>  <HIPPO Compound ID>  (1401) 
129970

>  <gnina_score_min>  (1401) 
5.407

>  <name>  (1401) 
P95978

>  <exports>  (1401) 
['/opt/xchem-fragalysis-2/maxwin/BulkDock/OUTPUTS/openbind_d68ev3c_c2_elabs_1LOTQJ3.sdf', '/opt/xchem-fragalysis-2/maxwin/BulkDock/OUTPUTS/openbind_d68ev3c_c2_elabs_1LSYI5W.sdf']

$$$$
P95979
     RDKit          3D

 29 32  0  0  0  0  0  0  0  0999 V2000
   13.2459    0.5419   12.9762 C   0  0  0  0  0  0  0  0  0  0  0  0
   11.8553    0.4890   14.1404 S   0  0  0  0  0  0  0  0  0  0  0  0
   12.4061   -0.8563   15.1762 C   0  0  0  0  0  0  0  0  0  0  0  0
   11.6576   -2.0306   15.2162 C   0  0  0  0  0  0  0  0  0  0  0  0
   12.0824   -3.0992   16.0050 C   0  0  0  0  0  0  0  0  0  0  0  0
   13.2527   -3.0115   16.7746 C   0  0  0  0  0  0  0  0  0  0  0  0
   13.6670   -4.1955   17.6061 C   0  0  0  0  0  0  0  0  0  0  0  0
   13.9995   -1.8226   16.7414 C   0  0  0  0  0  0  0  0  0  0  0  0
   15.1681   -1.7266   17.4988 N   0  0  0  0  0  0  0  0  0  0  0  0
   16.2356   -0.5954   17.5722 C   0  0  0  0  0  0  0  0  0  0  0  0
   16.3379    0.3950   16.9504 O   0  0  0  0  0  0  0  0  0  0  0  0
   17.2573   -0.9285   18.7090 C   0  0  0  0  0  0  0  0  0  0  0  0
   18.2708   -2.3357   18.1804 S   0  0  0  0  0  0  0  0  0  0  0  0
   19.5082   -2.3665   18.9399 O   0  0  0  0  0  0  0  0  0  0  0  0
   17.3925   -3.4982   18.2143 O   0  0  0  0  0  0  0  0  0  0  0  0
   18.7791   -2.1592   16.4814 C   0  0  0  0  0  0  0  0  0  0  0  0
   19.2225   -0.9263   16.0086 C   0  0  0  0  0  0  0  0  0  0  0  0
   19.5964   -0.8006   14.6691 C   0  0  0  0  0  0  0  0  0  0  0  0
   19.5486   -1.9021   13.8001 C   0  0  0  0  0  0  0  0  0  0  0  0
   19.9197   -1.7834   12.4512 C   0  0  0  0  0  0  0  0  0  0  0  0
   19.8856   -2.8906   11.6030 C   0  0  0  0  0  0  0  0  0  0  0  0
   19.4976   -4.1319   12.0965 C   0  0  0  0  0  0  0  0  0  0  0  0
   19.1335   -4.2678   13.4368 C   0  0  0  0  0  0  0  0  0  0  0  0
   19.1293   -3.1587   14.2959 C   0  0  0  0  0  0  0  0  0  0  0  0
   18.7322   -3.2739   15.6369 C   0  0  0  0  0  0  0  0  0  0  0  0
   16.6544   -1.1044   20.1422 C   0  0  0  0  0  0  0  0  0  0  0  0
   17.8374   -0.3093   20.7099 C   0  0  0  0  0  0  0  0  0  0  0  0
   18.0700    0.2663   19.3050 C   0  0  0  0  0  0  0  0  0  0  0  0
   13.5706   -0.7536   15.9469 C   0  0  0  0  0  0  0  0  0  0  0  0
  1  2  1  0
  2  3  1  0
  3  4  2  0
  4  5  1  0
  5  6  2  0
  6  7  1  0
  6  8  1  0
  8  9  1  0
  9 10  1  0
 10 11  2  0
 10 12  1  0
 12 13  1  0
 13 14  2  0
 13 15  2  0
 13 16  1  0
 16 17  2  0
 17 18  1  0
 18 19  2  0
 19 20  1  0
 20 21  2  0
 21 22  1  0
 22 23  2  0
 23 24  1  0
 24 25  2  0
 12 26  1  0
 26 27  1  0
 27 28  1  0
  8 29  2  0
 29  3  1  0
 28 12  1  0
 25 16  1  0
 24 19  1  0
M  END
>  <ref_mols>  (1402) 
B1396a

>  <gnina_score>  (1402) 
5.313

>  <smina_score_min>  (1402) 
-3.999

>  <ref_pdb>  (1402) 
B1396a

>  <inspiration_score>  (1402) 
None

>  <inchikey>  (1402) 
PFOVFCGERHGSMO-UHFFFAOYSA-N

>  <tags>  (1402) 
BulkDock Fragalysis export,openbind_d68ev3c_c2_elabs_scored,openbind_d68ev3c_c2_elabs_scored_4.5plus,openbind_d68ev3c_c2_elabs,openbind_d68ev3c_c2_elabs_scored_5plus,syndirella_product,openbind_d68ev3c_c2_elabs_scored_top80percent,syndirella_placed

>  <smiles>  (1402) 
CSc1ccc(C)c(NC(=O)C2(S(=O)(=O)c3ccc4ccccc4c3)CCC2)c1

>  <subsites>  (1402) 
None

>  <rmsd(smina/fragmenstein)>  (1402) 
1.977

>  <alias>  (1402) 
None

>  <energy_score>  (1402) 
-58.898805

>  <HIPPO Pose ID>  (1402) 
95979

>  <distance_score>  (1402) 
0.426727

>  <HIPPO Compound ID>  (1402) 
129971

>  <gnina_score_min>  (1402) 
5.17

>  <name>  (1402) 
P95979

>  <exports>  (1402) 
['/opt/xchem-fragalysis-2/maxwin/BulkDock/OUTPUTS/openbind_d68ev3c_c2_elabs_1LOTQJ3.sdf', '/opt/xchem-fragalysis-2/maxwin/BulkDock/OUTPUTS/openbind_d68ev3c_c2_elabs_1LSYI5W.sdf']

$$$$
P95980
     RDKit          3D

 29 32  0  0  0  0  0  0  0  0999 V2000
   13.8478   -4.1163   17.5996 C   0  0  0  0  0  0  0  0  0  0  0  0
   13.4808   -2.8647   16.8376 C   0  0  0  0  0  0  0  0  0  0  0  0
   12.2056   -2.8193   16.2498 C   0  0  0  0  0  0  0  0  0  0  0  0
   11.7696   -1.6621   15.6254 C   0  0  0  0  0  0  0  0  0  0  0  0
   10.1394   -1.4877   15.1335 Cl  0  0  0  0  0  0  0  0  0  0  0  0
   12.6375   -0.5981   15.4518 C   0  0  0  0  0  0  0  0  0  0  0  0
   13.9483   -0.6398   15.9621 C   0  0  0  0  0  0  0  0  0  0  0  0
   14.8236    0.5184   15.5751 C   0  0  0  0  0  0  0  0  0  0  0  0
   14.3421   -1.7366   16.7546 C   0  0  0  0  0  0  0  0  0  0  0  0
   15.5271   -1.8047   17.5119 N   0  0  0  0  0  0  0  0  0  0  0  0
   16.5258   -0.6813   17.9362 C   0  0  0  0  0  0  0  0  0  0  0  0
   16.5536    0.4590   17.6536 O   0  0  0  0  0  0  0  0  0  0  0  0
   17.5746   -1.2484   18.9468 C   0  0  0  0  0  0  0  0  0  0  0  0
   18.4546   -2.6248   18.1884 S   0  0  0  0  0  0  0  0  0  0  0  0
   17.5157   -3.7397   18.1726 O   0  0  0  0  0  0  0  0  0  0  0  0
   19.7433   -2.7961   18.8335 O   0  0  0  0  0  0  0  0  0  0  0  0
   18.8259   -2.2741   16.4823 C   0  0  0  0  0  0  0  0  0  0  0  0
   18.4894   -3.2065   15.4982 C   0  0  0  0  0  0  0  0  0  0  0  0
   18.7810   -2.9291   14.1624 C   0  0  0  0  0  0  0  0  0  0  0  0
   19.3981   -1.7216   13.8003 C   0  0  0  0  0  0  0  0  0  0  0  0
   19.6847   -1.4264   12.4586 C   0  0  0  0  0  0  0  0  0  0  0  0
   20.3020   -0.2245   12.1098 C   0  0  0  0  0  0  0  0  0  0  0  0
   20.6422    0.6958   13.0968 C   0  0  0  0  0  0  0  0  0  0  0  0
   20.3649    0.4180   14.4363 C   0  0  0  0  0  0  0  0  0  0  0  0
   19.7423   -0.7850   14.8053 C   0  0  0  0  0  0  0  0  0  0  0  0
   19.4559   -1.0738   16.1487 C   0  0  0  0  0  0  0  0  0  0  0  0
   18.5044   -0.2084   19.6643 C   0  0  0  0  0  0  0  0  0  0  0  0
   17.4831   -0.1787   20.8155 C   0  0  0  0  0  0  0  0  0  0  0  0
   17.0395   -1.5856   20.3784 C   0  0  0  0  0  0  0  0  0  0  0  0
  1  2  1  0
  2  3  2  0
  3  4  1  0
  4  5  1  0
  4  6  2  0
  6  7  1  0
  7  8  1  0
  7  9  2  0
  9 10  1  0
 10 11  1  0
 11 12  2  0
 11 13  1  0
 13 14  1  0
 14 15  2  0
 14 16  2  0
 14 17  1  0
 17 18  2  0
 18 19  1  0
 19 20  2  0
 20 21  1  0
 21 22  2  0
 22 23  1  0
 23 24  2  0
 24 25  1  0
 25 26  2  0
 13 27  1  0
 27 28  1  0
 28 29  1  0
  9  2  1  0
 29 13  1  0
 26 17  1  0
 25 20  1  0
M  END
>  <ref_mols>  (1403) 
B1396a

>  <gnina_score>  (1403) 
5.53

>  <smina_score_min>  (1403) 
-3.234

>  <ref_pdb>  (1403) 
B1396a

>  <inspiration_score>  (1403) 
None

>  <inchikey>  (1403) 
CBNSNNIENXXBLW-UHFFFAOYSA-N

>  <tags>  (1403) 
BulkDock Fragalysis export,openbind_d68ev3c_c2_elabs_scored,openbind_d68ev3c_c2_elabs_scored_4.5plus,openbind_d68ev3c_c2_elabs,openbind_d68ev3c_c2_elabs_scored_5plus,syndirella_product,openbind_d68ev3c_c2_elabs_scored_top80percent,syndirella_placed

>  <smiles>  (1403) 
Cc1cc(Cl)cc(C)c1NC(=O)C1(S(=O)(=O)c2ccc3ccccc3c2)CCC1

>  <subsites>  (1403) 
None

>  <rmsd(smina/fragmenstein)>  (1403) 
1.235

>  <alias>  (1403) 
None

>  <energy_score>  (1403) 
-30.528941

>  <HIPPO Pose ID>  (1403) 
95980

>  <distance_score>  (1403) 
0.613387

>  <HIPPO Compound ID>  (1403) 
129972

>  <gnina_score_min>  (1403) 
5.364

>  <name>  (1403) 
P95980

>  <exports>  (1403) 
['/opt/xchem-fragalysis-2/maxwin/BulkDock/OUTPUTS/openbind_d68ev3c_c2_elabs_1LOTQJ3.sdf', '/opt/xchem-fragalysis-2/maxwin/BulkDock/OUTPUTS/openbind_d68ev3c_c2_elabs_1LSYI5W.sdf']

$$$$
P95982
     RDKit          3D

 29 32  0  0  0  0  0  0  0  0999 V2000
   14.5858   -3.3291   20.4435 C   0  0  0  0  0  0  0  0  0  0  0  0
   13.6554   -4.5785   19.5414 S   0  0  0  0  0  0  0  0  0  0  0  0
   14.2090   -4.3076   17.8354 C   0  0  0  0  0  0  0  0  0  0  0  0
   13.6075   -3.1195   17.1148 C   0  0  0  0  0  0  0  0  0  0  0  0
   12.3874   -3.3044   16.4299 C   0  0  0  0  0  0  0  0  0  0  0  0
   11.8251   -2.2916   15.6515 C   0  0  0  0  0  0  0  0  0  0  0  0
   12.4614   -1.0612   15.5659 C   0  0  0  0  0  0  0  0  0  0  0  0
   13.6590   -0.8478   16.2521 C   0  0  0  0  0  0  0  0  0  0  0  0
   14.2402   -1.8641   17.0220 C   0  0  0  0  0  0  0  0  0  0  0  0
   15.4349   -1.6221   17.7058 N   0  0  0  0  0  0  0  0  0  0  0  0
   16.4381   -0.4341   17.6014 C   0  0  0  0  0  0  0  0  0  0  0  0
   16.3763    0.5612   16.9815 O   0  0  0  0  0  0  0  0  0  0  0  0
   17.6311   -0.6736   18.6001 C   0  0  0  0  0  0  0  0  0  0  0  0
   18.5279   -2.1660   18.1137 S   0  0  0  0  0  0  0  0  0  0  0  0
   19.7975   -2.2233   18.8142 O   0  0  0  0  0  0  0  0  0  0  0  0
   17.5934   -3.2741   18.2690 O   0  0  0  0  0  0  0  0  0  0  0  0
   18.9434   -2.1107   16.3856 C   0  0  0  0  0  0  0  0  0  0  0  0
   19.3501   -0.9128   15.8029 C   0  0  0  0  0  0  0  0  0  0  0  0
   19.6468   -0.8803   14.4396 C   0  0  0  0  0  0  0  0  0  0  0  0
   19.5589   -2.0405   13.6552 C   0  0  0  0  0  0  0  0  0  0  0  0
   19.8549   -2.0166   12.2832 C   0  0  0  0  0  0  0  0  0  0  0  0
   19.7834   -3.1817   11.5191 C   0  0  0  0  0  0  0  0  0  0  0  0
   19.4329   -4.3860   12.1204 C   0  0  0  0  0  0  0  0  0  0  0  0
   19.1420   -4.4273   13.4847 C   0  0  0  0  0  0  0  0  0  0  0  0
   19.1758   -3.2599   14.2612 C   0  0  0  0  0  0  0  0  0  0  0  0
   18.8529   -3.2815   15.6263 C   0  0  0  0  0  0  0  0  0  0  0  0
   18.5535    0.5532   18.9204 C   0  0  0  0  0  0  0  0  0  0  0  0
   17.6729    0.8280   20.1497 C   0  0  0  0  0  0  0  0  0  0  0  0
   17.2720   -0.6554   20.1244 C   0  0  0  0  0  0  0  0  0  0  0  0
  1  2  1  0
  2  3  1  0
  3  4  1  0
  4  5  2  0
  5  6  1  0
  6  7  2  0
  7  8  1  0
  8  9  2  0
  9 10  1  0
 10 11  1  0
 11 12  2  0
 11 13  1  0
 13 14  1  0
 14 15  2  0
 14 16  2  0
 14 17  1  0
 17 18  2  0
 18 19  1  0
 19 20  2  0
 20 21  1  0
 21 22  2  0
 22 23  1  0
 23 24  2  0
 24 25  1  0
 25 26  2  0
 13 27  1  0
 27 28  1  0
 28 29  1  0
  9  4  1  0
 29 13  1  0
 26 17  1  0
 25 20  1  0
M  END
>  <ref_mols>  (1404) 
B1396a

>  <gnina_score>  (1404) 
5.265

>  <smina_score_min>  (1404) 
-2.846

>  <ref_pdb>  (1404) 
B1396a

>  <inspiration_score>  (1404) 
None

>  <inchikey>  (1404) 
JGVVRYKZIRGBKH-UHFFFAOYSA-N

>  <tags>  (1404) 
BulkDock Fragalysis export,openbind_d68ev3c_c2_elabs_scored,openbind_d68ev3c_c2_elabs_scored_4.5plus,openbind_d68ev3c_c2_elabs,openbind_d68ev3c_c2_elabs_scored_5plus,syndirella_product,openbind_d68ev3c_c2_elabs_scored_top80percent,syndirella_placed

>  <smiles>  (1404) 
CSCc1ccccc1NC(=O)C1(S(=O)(=O)c2ccc3ccccc3c2)CCC1

>  <subsites>  (1404) 
None

>  <rmsd(smina/fragmenstein)>  (1404) 
2.116

>  <alias>  (1404) 
None

>  <energy_score>  (1404) 
-55.458341

>  <HIPPO Pose ID>  (1404) 
95982

>  <distance_score>  (1404) 
0.56295

>  <HIPPO Compound ID>  (1404) 
129975

>  <gnina_score_min>  (1404) 
5.125

>  <name>  (1404) 
P95982

>  <exports>  (1404) 
['/opt/xchem-fragalysis-2/maxwin/BulkDock/OUTPUTS/openbind_d68ev3c_c2_elabs_1LOTQJ3.sdf', '/opt/xchem-fragalysis-2/maxwin/BulkDock/OUTPUTS/openbind_d68ev3c_c2_elabs_1LSYI5W.sdf']

$$$$
P95983
     RDKit          3D

 29 32  0  0  0  0  0  0  0  0999 V2000
   14.0759   -5.0051   18.1621 N   0  0  0  0  0  0  0  0  0  0  0  0
   13.6651   -4.1129   17.5480 C   0  0  0  0  0  0  0  0  0  0  0  0
   13.2214   -2.9798   16.7913 C   0  0  0  0  0  0  0  0  0  0  0  0
   12.0564   -3.0947   16.0197 C   0  0  0  0  0  0  0  0  0  0  0  0
   11.5948   -2.0152   15.2677 C   0  0  0  0  0  0  0  0  0  0  0  0
   12.3049   -0.8189   15.2866 C   0  0  0  0  0  0  0  0  0  0  0  0
   11.6740    0.6514   14.2793 Br  0  0  0  0  0  0  0  0  0  0  0  0
   13.4790   -0.6965   16.0347 C   0  0  0  0  0  0  0  0  0  0  0  0
   13.9502   -1.7776   16.7877 C   0  0  0  0  0  0  0  0  0  0  0  0
   15.1508   -1.6745   17.5033 N   0  0  0  0  0  0  0  0  0  0  0  0
   16.1871   -0.5131   17.5794 C   0  0  0  0  0  0  0  0  0  0  0  0
   16.2334    0.5037   16.9950 O   0  0  0  0  0  0  0  0  0  0  0  0
   17.2938   -0.8673   18.6372 C   0  0  0  0  0  0  0  0  0  0  0  0
   18.2300   -2.2955   18.0492 S   0  0  0  0  0  0  0  0  0  0  0  0
   19.4398   -2.4396   18.8420 O   0  0  0  0  0  0  0  0  0  0  0  0
   17.3079   -3.4188   17.9805 O   0  0  0  0  0  0  0  0  0  0  0  0
   18.7656   -1.9927   16.3753 C   0  0  0  0  0  0  0  0  0  0  0  0
   20.0371   -1.4690   16.1526 C   0  0  0  0  0  0  0  0  0  0  0  0
   20.4839   -1.2896   14.8436 C   0  0  0  0  0  0  0  0  0  0  0  0
   19.6688   -1.6241   13.7513 C   0  0  0  0  0  0  0  0  0  0  0  0
   20.1242   -1.4591   12.4340 C   0  0  0  0  0  0  0  0  0  0  0  0
   19.3108   -1.7928   11.3518 C   0  0  0  0  0  0  0  0  0  0  0  0
   18.0237   -2.2699   11.5733 C   0  0  0  0  0  0  0  0  0  0  0  0
   17.5481   -2.4188   12.8773 C   0  0  0  0  0  0  0  0  0  0  0  0
   18.3701   -2.1358   13.9811 C   0  0  0  0  0  0  0  0  0  0  0  0
   17.9366   -2.3410   15.3024 C   0  0  0  0  0  0  0  0  0  0  0  0
   16.8284   -1.0040   20.1225 C   0  0  0  0  0  0  0  0  0  0  0  0
   17.2189    0.4717   20.3201 C   0  0  0  0  0  0  0  0  0  0  0  0
   18.1937    0.3121   19.1394 C   0  0  0  0  0  0  0  0  0  0  0  0
  1  2  3  0
  2  3  1  0
  3  4  2  0
  4  5  1  0
  5  6  2  0
  6  7  1  0
  6  8  1  0
  8  9  2  0
  9 10  1  0
 10 11  1  0
 11 12  2  0
 11 13  1  0
 13 14  1  0
 14 15  2  0
 14 16  2  0
 14 17  1  0
 17 18  2  0
 18 19  1  0
 19 20  2  0
 20 21  1  0
 21 22  2  0
 22 23  1  0
 23 24  2  0
 24 25  1  0
 25 26  2  0
 13 27  1  0
 27 28  1  0
 28 29  1  0
  9  3  1  0
 29 13  1  0
 26 17  1  0
 25 20  1  0
M  END
>  <ref_mols>  (1405) 
B1396a

>  <gnina_score>  (1405) 
5.419

>  <smina_score_min>  (1405) 
-3.922

>  <ref_pdb>  (1405) 
B1396a

>  <inspiration_score>  (1405) 
None

>  <inchikey>  (1405) 
NUNKHUVCFFSZFY-UHFFFAOYSA-N

>  <tags>  (1405) 
BulkDock Fragalysis export,openbind_d68ev3c_c2_elabs_scored,openbind_d68ev3c_c2_elabs_scored_4.5plus,openbind_d68ev3c_c2_elabs,openbind_d68ev3c_c2_elabs_scored_5plus,syndirella_product,openbind_d68ev3c_c2_elabs_scored_top80percent,syndirella_placed

>  <smiles>  (1405) 
N#Cc1ccc(Br)cc1NC(=O)C1(S(=O)(=O)c2ccc3ccccc3c2)CCC1

>  <subsites>  (1405) 
None

>  <rmsd(smina/fragmenstein)>  (1405) 
1.702

>  <alias>  (1405) 
None

>  <energy_score>  (1405) 
-32.486419

>  <HIPPO Pose ID>  (1405) 
95983

>  <distance_score>  (1405) 
0.500853

>  <HIPPO Compound ID>  (1405) 
129976

>  <gnina_score_min>  (1405) 
5.491

>  <name>  (1405) 
P95983

>  <exports>  (1405) 
['/opt/xchem-fragalysis-2/maxwin/BulkDock/OUTPUTS/openbind_d68ev3c_c2_elabs_1LOTQJ3.sdf', '/opt/xchem-fragalysis-2/maxwin/BulkDock/OUTPUTS/openbind_d68ev3c_c2_elabs_1LSYI5W.sdf']

$$$$
P95984
     RDKit          3D

 29 32  0  0  0  0  0  0  0  0999 V2000
   14.1610   -4.9648   18.1294 N   0  0  0  0  0  0  0  0  0  0  0  0
   13.7641   -4.0511   17.5369 C   0  0  0  0  0  0  0  0  0  0  0  0
   13.3706   -2.8791   16.8197 C   0  0  0  0  0  0  0  0  0  0  0  0
   12.2129   -2.9162   16.0444 C   0  0  0  0  0  0  0  0  0  0  0  0
   11.4881   -4.0348   15.9832 F   0  0  0  0  0  0  0  0  0  0  0  0
   11.7776   -1.8129   15.3198 C   0  0  0  0  0  0  0  0  0  0  0  0
   12.5209   -0.6410   15.3661 C   0  0  0  0  0  0  0  0  0  0  0  0
   13.6962   -0.5888   16.1242 C   0  0  0  0  0  0  0  0  0  0  0  0
   14.1347   -1.7039   16.8510 C   0  0  0  0  0  0  0  0  0  0  0  0
   15.3283   -1.6458   17.5824 N   0  0  0  0  0  0  0  0  0  0  0  0
   16.3885   -0.5101   17.7003 C   0  0  0  0  0  0  0  0  0  0  0  0
   16.4641    0.5204   17.1427 O   0  0  0  0  0  0  0  0  0  0  0  0
   17.4587   -0.8987   18.7793 C   0  0  0  0  0  0  0  0  0  0  0  0
   18.3950   -2.3260   18.1895 S   0  0  0  0  0  0  0  0  0  0  0  0
   17.4637   -3.4447   18.2110 O   0  0  0  0  0  0  0  0  0  0  0  0
   19.6453   -2.4292   18.9197 O   0  0  0  0  0  0  0  0  0  0  0  0
   18.8668   -2.1289   16.4844 C   0  0  0  0  0  0  0  0  0  0  0  0
   19.3030   -0.8925   16.0160 C   0  0  0  0  0  0  0  0  0  0  0  0
   19.6365   -0.7525   14.6672 C   0  0  0  0  0  0  0  0  0  0  0  0
   19.5557   -1.8427   13.7856 C   0  0  0  0  0  0  0  0  0  0  0  0
   19.8862   -1.7092   12.4275 C   0  0  0  0  0  0  0  0  0  0  0  0
   19.8210   -2.8059   11.5671 C   0  0  0  0  0  0  0  0  0  0  0  0
   19.4424   -4.0516   12.0570 C   0  0  0  0  0  0  0  0  0  0  0  0
   19.1183   -4.2022   13.4059 C   0  0  0  0  0  0  0  0  0  0  0  0
   19.1451   -3.1035   14.2776 C   0  0  0  0  0  0  0  0  0  0  0  0
   18.7875   -3.2329   15.6278 C   0  0  0  0  0  0  0  0  0  0  0  0
   18.3429    0.2607   19.3541 C   0  0  0  0  0  0  0  0  0  0  0  0
   17.3247    0.3898   20.5006 C   0  0  0  0  0  0  0  0  0  0  0  0
   16.9418   -1.0780   20.2463 C   0  0  0  0  0  0  0  0  0  0  0  0
  1  2  3  0
  2  3  1  0
  3  4  2  0
  4  5  1  0
  4  6  1  0
  6  7  2  0
  7  8  1  0
  8  9  2  0
  9 10  1  0
 10 11  1  0
 11 12  2  0
 11 13  1  0
 13 14  1  0
 14 15  2  0
 14 16  2  0
 14 17  1  0
 17 18  2  0
 18 19  1  0
 19 20  2  0
 20 21  1  0
 21 22  2  0
 22 23  1  0
 23 24  2  0
 24 25  1  0
 25 26  2  0
 13 27  1  0
 27 28  1  0
 28 29  1  0
  9  3  1  0
 29 13  1  0
 26 17  1  0
 25 20  1  0
M  END
>  <ref_mols>  (1406) 
B1396a

>  <gnina_score>  (1406) 
5.562

>  <smina_score_min>  (1406) 
-3.57

>  <ref_pdb>  (1406) 
B1396a

>  <inspiration_score>  (1406) 
None

>  <inchikey>  (1406) 
RJZTVGMWNCMFIM-UHFFFAOYSA-N

>  <tags>  (1406) 
BulkDock Fragalysis export,openbind_d68ev3c_c2_elabs_scored,openbind_d68ev3c_c2_elabs_scored_4.5plus,openbind_d68ev3c_c2_elabs,openbind_d68ev3c_c2_elabs_scored_5plus,syndirella_product,openbind_d68ev3c_c2_elabs_scored_top80percent,syndirella_placed

>  <smiles>  (1406) 
N#Cc1c(F)cccc1NC(=O)C1(S(=O)(=O)c2ccc3ccccc3c2)CCC1

>  <subsites>  (1406) 
None

>  <rmsd(smina/fragmenstein)>  (1406) 
1.439

>  <alias>  (1406) 
None

>  <energy_score>  (1406) 
-39.583965

>  <HIPPO Pose ID>  (1406) 
95984

>  <distance_score>  (1406) 
0.522387

>  <HIPPO Compound ID>  (1406) 
129977

>  <gnina_score_min>  (1406) 
5.518

>  <name>  (1406) 
P95984

>  <exports>  (1406) 
['/opt/xchem-fragalysis-2/maxwin/BulkDock/OUTPUTS/openbind_d68ev3c_c2_elabs_1LOTQJ3.sdf', '/opt/xchem-fragalysis-2/maxwin/BulkDock/OUTPUTS/openbind_d68ev3c_c2_elabs_1LSYI5W.sdf']

$$$$
P95986
     RDKit          3D

 29 32  0  0  0  0  0  0  0  0999 V2000
   13.8320   -3.9896   17.4510 C   0  0  0  0  0  0  0  0  0  0  0  0
   13.4004   -2.6642   16.8689 C   0  0  0  0  0  0  0  0  0  0  0  0
   12.1600   -2.6068   16.2050 C   0  0  0  0  0  0  0  0  0  0  0  0
   11.6745   -1.3887   15.7422 C   0  0  0  0  0  0  0  0  0  0  0  0
    9.8942   -1.1950   15.1614 Br  0  0  0  0  0  0  0  0  0  0  0  0
   12.4305   -0.2358   15.8624 C   0  0  0  0  0  0  0  0  0  0  0  0
   13.6631   -0.2703   16.5158 C   0  0  0  0  0  0  0  0  0  0  0  0
   14.3001    1.2957   16.8814 Cl  0  0  0  0  0  0  0  0  0  0  0  0
   14.1770   -1.4837   17.0162 C   0  0  0  0  0  0  0  0  0  0  0  0
   15.3894   -1.5991   17.7176 N   0  0  0  0  0  0  0  0  0  0  0  0
   16.6564   -0.6888   17.7073 C   0  0  0  0  0  0  0  0  0  0  0  0
   16.9110    0.2528   17.0540 O   0  0  0  0  0  0  0  0  0  0  0  0
   17.6466   -1.1625   18.8039 C   0  0  0  0  0  0  0  0  0  0  0  0
   18.4986   -2.6150   18.1583 S   0  0  0  0  0  0  0  0  0  0  0  0
   19.7667   -2.7808   18.8451 O   0  0  0  0  0  0  0  0  0  0  0  0
   17.5268   -3.7007   18.1935 O   0  0  0  0  0  0  0  0  0  0  0  0
   18.9193   -2.3856   16.4401 C   0  0  0  0  0  0  0  0  0  0  0  0
   18.5542   -3.3545   15.5036 C   0  0  0  0  0  0  0  0  0  0  0  0
   18.8782   -3.1639   14.1592 C   0  0  0  0  0  0  0  0  0  0  0  0
   19.5524   -2.0060   13.7396 C   0  0  0  0  0  0  0  0  0  0  0  0
   19.8690   -1.7987   12.3880 C   0  0  0  0  0  0  0  0  0  0  0  0
   20.5423   -0.6455   11.9826 C   0  0  0  0  0  0  0  0  0  0  0  0
   20.9089    0.3132   12.9224 C   0  0  0  0  0  0  0  0  0  0  0  0
   20.6027    0.1220   14.2707 C   0  0  0  0  0  0  0  0  0  0  0  0
   19.9245   -1.0315   14.6958 C   0  0  0  0  0  0  0  0  0  0  0  0
   19.6101   -1.2360   16.0484 C   0  0  0  0  0  0  0  0  0  0  0  0
   17.0739   -1.3556   20.2456 C   0  0  0  0  0  0  0  0  0  0  0  0
   18.3458   -0.7082   20.8093 C   0  0  0  0  0  0  0  0  0  0  0  0
   18.5817   -0.0772   19.4290 C   0  0  0  0  0  0  0  0  0  0  0  0
  1  2  1  0
  2  3  2  0
  3  4  1  0
  4  5  1  0
  4  6  2  0
  6  7  1  0
  7  8  1  0
  7  9  2  0
  9 10  1  0
 10 11  1  0
 11 12  2  0
 11 13  1  0
 13 14  1  0
 14 15  2  0
 14 16  2  0
 14 17  1  0
 17 18  2  0
 18 19  1  0
 19 20  2  0
 20 21  1  0
 21 22  2  0
 22 23  1  0
 23 24  2  0
 24 25  1  0
 25 26  2  0
 13 27  1  0
 27 28  1  0
 28 29  1  0
  9  2  1  0
 29 13  1  0
 26 17  1  0
 25 20  1  0
M  END
>  <ref_mols>  (1407) 
B1396a

>  <gnina_score>  (1407) 
5.818

>  <smina_score_min>  (1407) 
-3.79

>  <ref_pdb>  (1407) 
B1396a

>  <inspiration_score>  (1407) 
None

>  <inchikey>  (1407) 
CCIICOBXGLTURK-UHFFFAOYSA-N

>  <tags>  (1407) 
BulkDock Fragalysis export,openbind_d68ev3c_c2_elabs_scored,openbind_d68ev3c_c2_elabs_scored_4.5plus,openbind_d68ev3c_c2_elabs,openbind_d68ev3c_c2_elabs_scored_5plus,syndirella_product,openbind_d68ev3c_c2_elabs_scored_top80percent,syndirella_placed

>  <smiles>  (1407) 
Cc1cc(Br)cc(Cl)c1NC(=O)C1(S(=O)(=O)c2ccc3ccccc3c2)CCC1

>  <subsites>  (1407) 
None

>  <rmsd(smina/fragmenstein)>  (1407) 
2.842

>  <alias>  (1407) 
None

>  <energy_score>  (1407) 
-30.580764

>  <HIPPO Pose ID>  (1407) 
95986

>  <distance_score>  (1407) 
0.588392

>  <HIPPO Compound ID>  (1407) 
129979

>  <gnina_score_min>  (1407) 
5.3

>  <name>  (1407) 
P95986

>  <exports>  (1407) 
['/opt/xchem-fragalysis-2/maxwin/BulkDock/OUTPUTS/openbind_d68ev3c_c2_elabs_1LOTQJ3.sdf', '/opt/xchem-fragalysis-2/maxwin/BulkDock/OUTPUTS/openbind_d68ev3c_c2_elabs_1LSYI5W.sdf']

$$$$
P95987
     RDKit          3D

 29 32  0  0  0  0  0  0  0  0999 V2000
   14.9482   -4.8804   17.5394 C   0  0  0  0  0  0  0  0  0  0  0  0
   13.5996   -4.1894   17.6623 C   0  0  0  0  0  0  0  0  0  0  0  0
   13.4080   -2.8715   16.9372 C   0  0  0  0  0  0  0  0  0  0  0  0
   12.1751   -2.7006   16.2663 C   0  0  0  0  0  0  0  0  0  0  0  0
   11.8203   -1.4711   15.7137 C   0  0  0  0  0  0  0  0  0  0  0  0
   10.0541   -1.1286   15.1583 Br  0  0  0  0  0  0  0  0  0  0  0  0
   12.7249   -0.4264   15.6954 C   0  0  0  0  0  0  0  0  0  0  0  0
   13.9602   -0.5884   16.3129 C   0  0  0  0  0  0  0  0  0  0  0  0
   14.2919   -1.7773   16.9792 C   0  0  0  0  0  0  0  0  0  0  0  0
   15.4721   -1.8087   17.7207 N   0  0  0  0  0  0  0  0  0  0  0  0
   16.6084   -0.7495   17.8611 C   0  0  0  0  0  0  0  0  0  0  0  0
   16.7623    0.2785   17.3137 O   0  0  0  0  0  0  0  0  0  0  0  0
   17.6269   -1.2073   18.9379 C   0  0  0  0  0  0  0  0  0  0  0  0
   18.6356   -2.5274   18.2286 S   0  0  0  0  0  0  0  0  0  0  0  0
   19.9470   -2.5287   18.8515 O   0  0  0  0  0  0  0  0  0  0  0  0
   17.8300   -3.7372   18.2925 O   0  0  0  0  0  0  0  0  0  0  0  0
   18.9384   -2.2358   16.4959 C   0  0  0  0  0  0  0  0  0  0  0  0
   18.5500   -3.1886   15.5514 C   0  0  0  0  0  0  0  0  0  0  0  0
   18.8085   -2.9582   14.1994 C   0  0  0  0  0  0  0  0  0  0  0  0
   19.4445   -1.7786   13.7819 C   0  0  0  0  0  0  0  0  0  0  0  0
   19.6984   -1.5317   12.4238 C   0  0  0  0  0  0  0  0  0  0  0  0
   20.3361   -0.3578   12.0201 C   0  0  0  0  0  0  0  0  0  0  0  0
   20.7295    0.5822   12.9679 C   0  0  0  0  0  0  0  0  0  0  0  0
   20.4852    0.3521   14.3228 C   0  0  0  0  0  0  0  0  0  0  0  0
   19.8428   -0.8221   14.7467 C   0  0  0  0  0  0  0  0  0  0  0  0
   19.5908   -1.0641   16.1060 C   0  0  0  0  0  0  0  0  0  0  0  0
   17.0577   -1.5412   20.3553 C   0  0  0  0  0  0  0  0  0  0  0  0
   18.2664   -0.8270   20.9771 C   0  0  0  0  0  0  0  0  0  0  0  0
   18.4473   -0.0789   19.6473 C   0  0  0  0  0  0  0  0  0  0  0  0
  1  2  1  0
  2  3  1  0
  3  4  2  0
  4  5  1  0
  5  6  1  0
  5  7  2  0
  7  8  1  0
  8  9  2  0
  9 10  1  0
 10 11  1  0
 11 12  2  0
 11 13  1  0
 13 14  1  0
 14 15  2  0
 14 16  2  0
 14 17  1  0
 17 18  2  0
 18 19  1  0
 19 20  2  0
 20 21  1  0
 21 22  2  0
 22 23  1  0
 23 24  2  0
 24 25  1  0
 25 26  2  0
 13 27  1  0
 27 28  1  0
 28 29  1  0
  9  3  1  0
 29 13  1  0
 26 17  1  0
 25 20  1  0
M  END
>  <ref_mols>  (1408) 
B1396a

>  <gnina_score>  (1408) 
5.548

>  <smina_score_min>  (1408) 
-2.831

>  <ref_pdb>  (1408) 
B1396a

>  <inspiration_score>  (1408) 
None

>  <inchikey>  (1408) 
DQYUMICPPIUHJG-UHFFFAOYSA-N

>  <tags>  (1408) 
BulkDock Fragalysis export,openbind_d68ev3c_c2_elabs_scored,openbind_d68ev3c_c2_elabs_scored_4.5plus,openbind_d68ev3c_c2_elabs,openbind_d68ev3c_c2_elabs_scored_5plus,syndirella_product,openbind_d68ev3c_c2_elabs_scored_top80percent,syndirella_placed

>  <smiles>  (1408) 
CCc1cc(Br)ccc1NC(=O)C1(S(=O)(=O)c2ccc3ccccc3c2)CCC1

>  <subsites>  (1408) 
None

>  <rmsd(smina/fragmenstein)>  (1408) 
1.541

>  <alias>  (1408) 
None

>  <energy_score>  (1408) 
-40.157731

>  <HIPPO Pose ID>  (1408) 
95987

>  <distance_score>  (1408) 
0.599194

>  <HIPPO Compound ID>  (1408) 
129980

>  <gnina_score_min>  (1408) 
5.552

>  <name>  (1408) 
P95987

>  <exports>  (1408) 
['/opt/xchem-fragalysis-2/maxwin/BulkDock/OUTPUTS/openbind_d68ev3c_c2_elabs_1LOTQJ3.sdf', '/opt/xchem-fragalysis-2/maxwin/BulkDock/OUTPUTS/openbind_d68ev3c_c2_elabs_1LSYI5W.sdf']

$$$$
P95988
     RDKit          3D

 29 32  0  0  0  0  0  0  0  0999 V2000
   13.7544   -4.1357   17.4897 C   0  0  0  0  0  0  0  0  0  0  0  0
   13.3857   -2.8654   16.7692 C   0  0  0  0  0  0  0  0  0  0  0  0
   12.1224   -2.7729   16.1572 C   0  0  0  0  0  0  0  0  0  0  0  0
   11.6842   -1.5642   15.6009 C   0  0  0  0  0  0  0  0  0  0  0  0
   10.2952   -1.3497   15.3265 C   0  0  0  0  0  0  0  0  0  0  0  0
    9.1567   -1.1249   15.3441 N   0  0  0  0  0  0  0  0  0  0  0  0
   12.5550   -0.4810   15.5306 C   0  0  0  0  0  0  0  0  0  0  0  0
   13.8236   -0.5734   16.1010 C   0  0  0  0  0  0  0  0  0  0  0  0
   14.2232   -1.7362   16.7659 C   0  0  0  0  0  0  0  0  0  0  0  0
   15.4138   -1.7442   17.4900 N   0  0  0  0  0  0  0  0  0  0  0  0
   16.5148   -0.6508   17.6398 C   0  0  0  0  0  0  0  0  0  0  0  0
   16.6256    0.3938   17.1151 O   0  0  0  0  0  0  0  0  0  0  0  0
   17.5362   -1.0930   18.7326 C   0  0  0  0  0  0  0  0  0  0  0  0
   18.4512   -2.5200   18.1094 S   0  0  0  0  0  0  0  0  0  0  0  0
   19.7214   -2.6327   18.8024 O   0  0  0  0  0  0  0  0  0  0  0  0
   17.5190   -3.6400   18.1461 O   0  0  0  0  0  0  0  0  0  0  0  0
   18.8672   -2.2857   16.3922 C   0  0  0  0  0  0  0  0  0  0  0  0
   18.5338   -3.2704   15.4602 C   0  0  0  0  0  0  0  0  0  0  0  0
   18.8523   -3.0764   14.1155 C   0  0  0  0  0  0  0  0  0  0  0  0
   19.4921   -1.9008   13.6920 C   0  0  0  0  0  0  0  0  0  0  0  0
   19.8045   -1.6903   12.3401 C   0  0  0  0  0  0  0  0  0  0  0  0
   20.4454   -0.5202   11.9306 C   0  0  0  0  0  0  0  0  0  0  0  0
   20.7836    0.4525   12.8667 C   0  0  0  0  0  0  0  0  0  0  0  0
   20.4806    0.2589   14.2154 C   0  0  0  0  0  0  0  0  0  0  0  0
   19.8341   -0.9112   14.6446 C   0  0  0  0  0  0  0  0  0  0  0  0
   19.5218   -1.1168   15.9973 C   0  0  0  0  0  0  0  0  0  0  0  0
   18.4261    0.0236   19.3694 C   0  0  0  0  0  0  0  0  0  0  0  0
   18.1934   -0.6147   20.7472 C   0  0  0  0  0  0  0  0  0  0  0  0
   16.9521   -1.3066   20.1681 C   0  0  0  0  0  0  0  0  0  0  0  0
  1  2  1  0
  2  3  2  0
  3  4  1  0
  4  5  1  0
  5  6  3  0
  4  7  2  0
  7  8  1  0
  8  9  2  0
  9 10  1  0
 10 11  1  0
 11 12  2  0
 11 13  1  0
 13 14  1  0
 14 15  2  0
 14 16  2  0
 14 17  1  0
 17 18  2  0
 18 19  1  0
 19 20  2  0
 20 21  1  0
 21 22  2  0
 22 23  1  0
 23 24  2  0
 24 25  1  0
 25 26  2  0
 13 27  1  0
 27 28  1  0
 28 29  1  0
  9  2  1  0
 29 13  1  0
 26 17  1  0
 25 20  1  0
M  END
>  <ref_mols>  (1409) 
B1396a

>  <gnina_score>  (1409) 
5.289

>  <smina_score_min>  (1409) 
-3.557

>  <ref_pdb>  (1409) 
B1396a

>  <inspiration_score>  (1409) 
None

>  <inchikey>  (1409) 
MKLJNNZNMOLXQJ-UHFFFAOYSA-N

>  <tags>  (1409) 
BulkDock Fragalysis export,openbind_d68ev3c_c2_elabs_scored,openbind_d68ev3c_c2_elabs_scored_4.5plus,openbind_d68ev3c_c2_elabs,openbind_d68ev3c_c2_elabs_scored_5plus,syndirella_product,openbind_d68ev3c_c2_elabs_scored_top80percent,syndirella_placed

>  <smiles>  (1409) 
Cc1cc(C#N)ccc1NC(=O)C1(S(=O)(=O)c2ccc3ccccc3c2)CCC1

>  <subsites>  (1409) 
None

>  <rmsd(smina/fragmenstein)>  (1409) 
1.759

>  <alias>  (1409) 
None

>  <energy_score>  (1409) 
-29.347203

>  <HIPPO Pose ID>  (1409) 
95988

>  <distance_score>  (1409) 
0.501033

>  <HIPPO Compound ID>  (1409) 
129982

>  <gnina_score_min>  (1409) 
5.255

>  <name>  (1409) 
P95988

>  <exports>  (1409) 
['/opt/xchem-fragalysis-2/maxwin/BulkDock/OUTPUTS/openbind_d68ev3c_c2_elabs_1LOTQJ3.sdf', '/opt/xchem-fragalysis-2/maxwin/BulkDock/OUTPUTS/openbind_d68ev3c_c2_elabs_1LSYI5W.sdf']

$$$$
P116694
     RDKit          3D

 20 22  0  0  0  0  0  0  0  0999 V2000
   -1.8750   -4.4055   31.9811 O   0  0  0  0  0  0  0  0  0  0  0  0
   -0.7709   -4.1539   32.2969 C   0  0  0  0  0  0  0  0  0  0  0  0
    0.3081   -5.2317   32.4818 C   0  0  0  0  0  0  0  0  0  0  0  0
   -0.2641   -6.5125   32.1278 N   0  0  0  0  0  0  0  0  0  0  0  0
   -0.4337   -7.0052   30.8890 C   0  0  0  0  0  0  0  0  0  0  0  0
   -1.2355   -8.0174   30.7994 N   0  0  0  0  0  0  0  0  0  0  0  0
   -1.6504   -8.2086   32.0918 N   0  0  0  0  0  0  0  0  0  0  0  0
   -1.1020   -7.2403   32.9299 C   0  0  0  0  0  0  0  0  0  0  0  0
   -1.3578   -7.0507   34.1055 O   0  0  0  0  0  0  0  0  0  0  0  0
   -0.1292   -2.8331   32.6211 N   0  0  0  0  0  0  0  0  0  0  0  0
   -0.2445   -2.4997   34.1368 C   0  0  0  0  0  0  0  0  0  0  0  0
    0.1688   -1.0946   33.7500 C   0  0  0  0  0  0  0  0  0  0  0  0
   -0.6773   -1.4225   32.5431 C   0  0  1  0  0  0  0  0  0  0  0  0
   -0.5218   -0.7423   31.1326 C   0  0  0  0  0  0  0  0  0  0  0  0
   -1.1189   -1.3187   29.9836 C   0  0  0  0  0  0  0  0  0  0  0  0
   -1.1419   -0.6680   28.7474 C   0  0  0  0  0  0  0  0  0  0  0  0
   -0.5656    0.5887   28.6385 C   0  0  0  0  0  0  0  0  0  0  0  0
   -0.7252    1.5096   27.2016 Cl  0  0  0  0  0  0  0  0  0  0  0  0
    0.0944    1.1550   29.7233 C   0  0  0  0  0  0  0  0  0  0  0  0
    0.1157    0.4949   30.9533 C   0  0  0  0  0  0  0  0  0  0  0  0
  1  2  2  0
  2  3  1  0
  3  4  1  0
  4  5  1  0
  5  6  2  0
  6  7  1  0
  7  8  1  0
  8  9  2  0
  2 10  1  0
 10 11  1  0
 11 12  1  0
 12 13  1  0
 13 14  1  6
 14 15  2  0
 15 16  1  0
 16 17  2  0
 17 18  1  0
 17 19  1  0
 19 20  2  0
  8  4  1  0
 13 10  1  0
 20 14  1  0
M  END
>  <ref_mols>  (1410) 
B0454a

>  <gnina_score>  (1410) 
5.085

>  <smina_score_min>  (1410) 
-6.566

>  <ref_pdb>  (1410) 
B0454a

>  <inspiration_score>  (1410) 
None

>  <inchikey>  (1410) 
XPTLUUAKBCHPCD-NSHDSACASA-N

>  <tags>  (1410) 
BulkDock Fragalysis export,openbind_d68ev3c_c2_elabs_scored,openbind_d68ev3c_c2_elabs_scored_4.5plus,openbind_d68ev3c_c2_elabs,openbind_d68ev3c_c2_elabs_scored_5plus,syndirella_product,openbind_d68ev3c_c2_elabs_scored_top80percent,syndirella_placed

>  <smiles>  (1410) 
O=C(Cn1cn[nH]c1=O)N1CC[C@H]1c1ccc(Cl)cc1

>  <subsites>  (1410) 
None

>  <rmsd(smina/fragmenstein)>  (1410) 
0.916

>  <alias>  (1410) 
None

>  <energy_score>  (1410) 
-9.376061

>  <HIPPO Pose ID>  (1410) 
116694

>  <distance_score>  (1410) 
0.610652

>  <HIPPO Compound ID>  (1410) 
150626

>  <gnina_score_min>  (1410) 
5.004

>  <name>  (1410) 
P116694

>  <exports>  (1410) 
['/opt/xchem-fragalysis-2/maxwin/BulkDock/OUTPUTS/openbind_d68ev3c_c2_elabs_1LOTQJ3.sdf', '/opt/xchem-fragalysis-2/maxwin/BulkDock/OUTPUTS/openbind_d68ev3c_c2_elabs_1LSYI5W.sdf']

$$$$
P116697
     RDKit          3D

 20 22  0  0  0  0  0  0  0  0999 V2000
   -2.0013   -4.2692   32.0598 O   0  0  0  0  0  0  0  0  0  0  0  0
   -0.8963   -4.0513   32.3961 C   0  0  0  0  0  0  0  0  0  0  0  0
    0.1039   -5.1657   32.7094 C   0  0  0  0  0  0  0  0  0  0  0  0
   -0.3360   -6.3824   32.0678 N   0  0  0  0  0  0  0  0  0  0  0  0
   -1.1587   -7.3412   32.5290 C   0  0  0  0  0  0  0  0  0  0  0  0
   -1.3635   -8.3178   31.7026 N   0  0  0  0  0  0  0  0  0  0  0  0
   -0.6533   -7.9635   30.5866 N   0  0  0  0  0  0  0  0  0  0  0  0
    0.0178   -6.7693   30.8112 C   0  0  0  0  0  0  0  0  0  0  0  0
    0.8103   -6.2207   30.0643 O   0  0  0  0  0  0  0  0  0  0  0  0
   -0.2116   -2.7473   32.7010 N   0  0  0  0  0  0  0  0  0  0  0  0
   -0.3497   -2.3685   34.2027 C   0  0  0  0  0  0  0  0  0  0  0  0
    0.1298   -0.9924   33.7885 C   0  0  0  0  0  0  0  0  0  0  0  0
   -0.7015   -1.3228   32.5722 C   0  0  1  0  0  0  0  0  0  0  0  0
   -0.5098   -0.6723   31.1555 C   0  0  0  0  0  0  0  0  0  0  0  0
    0.1315    0.5626   30.9764 C   0  0  0  0  0  0  0  0  0  0  0  0
    0.0869    1.2355   29.7556 C   0  0  0  0  0  0  0  0  0  0  0  0
   -0.6013    0.6821   28.6819 C   0  0  0  0  0  0  0  0  0  0  0  0
   -0.8948    1.7557   27.1616 Br  0  0  0  0  0  0  0  0  0  0  0  0
   -1.1509   -0.5878   28.7779 C   0  0  0  0  0  0  0  0  0  0  0  0
   -1.1019   -1.2520   30.0059 C   0  0  0  0  0  0  0  0  0  0  0  0
  1  2  2  0
  2  3  1  0
  3  4  1  0
  4  5  1  0
  5  6  2  0
  6  7  1  0
  7  8  1  0
  8  9  2  0
  2 10  1  0
 10 11  1  0
 11 12  1  0
 12 13  1  0
 13 14  1  6
 14 15  2  0
 15 16  1  0
 16 17  2  0
 17 18  1  0
 17 19  1  0
 19 20  2  0
  8  4  1  0
 13 10  1  0
 20 14  1  0
M  END
>  <ref_mols>  (1411) 
B0454a

>  <gnina_score>  (1411) 
5.006

>  <smina_score_min>  (1411) 
-5.507

>  <ref_pdb>  (1411) 
B0454a

>  <inspiration_score>  (1411) 
None

>  <inchikey>  (1411) 
GOCAKBDAKGYJJM-NSHDSACASA-N

>  <tags>  (1411) 
BulkDock Fragalysis export,openbind_d68ev3c_c2_elabs_scored,openbind_d68ev3c_c2_elabs_scored_4.5plus,openbind_d68ev3c_c2_elabs,openbind_d68ev3c_c2_elabs_scored_5plus,syndirella_product,openbind_d68ev3c_c2_elabs_scored_top80percent,syndirella_placed

>  <smiles>  (1411) 
O=C(Cn1cn[nH]c1=O)N1CC[C@H]1c1ccc(Br)cc1

>  <subsites>  (1411) 
None

>  <rmsd(smina/fragmenstein)>  (1411) 
0.882

>  <alias>  (1411) 
None

>  <energy_score>  (1411) 
-1.190981

>  <HIPPO Pose ID>  (1411) 
116697

>  <distance_score>  (1411) 
0.743976

>  <HIPPO Compound ID>  (1411) 
150630

>  <gnina_score_min>  (1411) 
5.004

>  <name>  (1411) 
P116697

>  <exports>  (1411) 
['/opt/xchem-fragalysis-2/maxwin/BulkDock/OUTPUTS/openbind_d68ev3c_c2_elabs_1LOTQJ3.sdf', '/opt/xchem-fragalysis-2/maxwin/BulkDock/OUTPUTS/openbind_d68ev3c_c2_elabs_1LSYI5W.sdf']

$$$$
P116714
     RDKit          3D

 21 24  0  0  0  0  0  0  0  0999 V2000
   -1.2380   -7.2697   34.3352 C   0  0  0  0  0  0  0  0  0  0  0  0
   -1.0060   -7.2054   32.8782 C   0  0  0  0  0  0  0  0  0  0  0  0
   -1.2937   -8.1203   31.9613 N   0  0  0  0  0  0  0  0  0  0  0  0
   -0.8050   -7.6958   30.7268 N   0  0  0  0  0  0  0  0  0  0  0  0
   -0.2407   -6.5398   30.9439 C   0  0  0  0  0  0  0  0  0  0  0  0
   -0.4192   -6.1768   32.2400 N   0  0  0  0  0  0  0  0  0  0  0  0
    0.1224   -4.8614   32.5401 C   0  0  2  0  0  0  0  0  0  0  0  0
   -0.9657   -3.7897   32.4403 C   0  0  0  0  0  0  0  0  0  0  0  0
   -2.0851   -4.0387   32.1823 O   0  0  0  0  0  0  0  0  0  0  0  0
   -0.2825   -2.4612   32.6302 N   0  0  0  0  0  0  0  0  0  0  0  0
   -0.3390   -1.9987   34.1113 C   0  0  0  0  0  0  0  0  0  0  0  0
    0.0916   -0.6408   33.5954 C   0  0  0  0  0  0  0  0  0  0  0  0
   -0.8016   -1.0462   32.4485 C   0  0  1  0  0  0  0  0  0  0  0  0
   -0.6261   -0.5594   30.9623 C   0  0  0  0  0  0  0  0  0  0  0  0
    0.0787    0.5977   30.6002 C   0  0  0  0  0  0  0  0  0  0  0  0
    0.1648    1.0138   29.2685 C   0  0  0  0  0  0  0  0  0  0  0  0
   -0.4456    0.2745   28.2600 C   0  0  0  0  0  0  0  0  0  0  0  0
   -1.1353   -0.8858   28.5754 C   0  0  0  0  0  0  0  0  0  0  0  0
   -1.2228   -1.2887   29.9056 C   0  0  0  0  0  0  0  0  0  0  0  0
    1.1389   -4.7092   31.3804 C   0  0  0  0  0  0  0  0  0  0  0  0
    0.5249   -5.5203   30.2084 C   0  0  0  0  0  0  0  0  0  0  0  0
  1  2  1  0
  2  3  2  0
  3  4  1  0
  4  5  2  0
  5  6  1  0
  6  7  1  0
  7  8  1  6
  8  9  2  0
  8 10  1  0
 10 11  1  0
 11 12  1  0
 12 13  1  0
 13 14  1  6
 14 15  2  0
 15 16  1  0
 16 17  2  0
 17 18  1  0
 18 19  2  0
  7 20  1  0
 20 21  1  0
  6  2  1  0
 13 10  1  0
 19 14  1  0
 21  5  1  0
M  END
>  <ref_mols>  (1412) 
B0454a

>  <gnina_score>  (1412) 
5.091

>  <smina_score_min>  (1412) 
-6.274

>  <ref_pdb>  (1412) 
B0454a

>  <inspiration_score>  (1412) 
None

>  <inchikey>  (1412) 
KUCRJHAFWJIGRJ-KBPBESRZSA-N

>  <tags>  (1412) 
BulkDock Fragalysis export,openbind_d68ev3c_c2_elabs_scored,openbind_d68ev3c_c2_elabs_scored_4.5plus,openbind_d68ev3c_c2_elabs,openbind_d68ev3c_c2_elabs_scored_5plus,syndirella_product,openbind_d68ev3c_c2_elabs_scored_top80percent,syndirella_placed

>  <smiles>  (1412) 
Cc1nnc2n1[C@H](C(=O)N1CC[C@H]1c1ccccc1)CC2

>  <subsites>  (1412) 
None

>  <rmsd(smina/fragmenstein)>  (1412) 
0.82

>  <alias>  (1412) 
None

>  <energy_score>  (1412) 
-21.321166

>  <HIPPO Pose ID>  (1412) 
116714

>  <distance_score>  (1412) 
0.695864

>  <HIPPO Compound ID>  (1412) 
150647

>  <gnina_score_min>  (1412) 
5.056

>  <name>  (1412) 
P116714

>  <exports>  (1412) 
['/opt/xchem-fragalysis-2/maxwin/BulkDock/OUTPUTS/openbind_d68ev3c_c2_elabs_1LOTQJ3.sdf', '/opt/xchem-fragalysis-2/maxwin/BulkDock/OUTPUTS/openbind_d68ev3c_c2_elabs_1LSYI5W.sdf']

$$$$
P116757
     RDKit          3D

 21 23  0  0  0  0  0  0  0  0999 V2000
   -1.6995   -4.4704   31.9619 O   0  0  0  0  0  0  0  0  0  0  0  0
   -0.5324   -4.3371   31.8758 C   0  0  0  0  0  0  0  0  0  0  0  0
    0.4312   -5.5049   31.6179 C   0  0  0  0  0  0  0  0  0  0  0  0
   -0.2441   -6.6825   32.0980 N   0  0  0  0  0  0  0  0  0  0  0  0
   -0.3866   -6.9926   33.4260 C   0  0  0  0  0  0  0  0  0  0  0  0
    0.2889   -6.5570   34.3453 O   0  0  0  0  0  0  0  0  0  0  0  0
   -1.3898   -7.9539   33.5271 N   0  0  0  0  0  0  0  0  0  0  0  0
   -1.6882   -8.3669   32.2239 N   0  0  0  0  0  0  0  0  0  0  0  0
   -1.0519   -7.4919   31.3535 C   0  0  0  0  0  0  0  0  0  0  0  0
   -1.2351   -7.4683   30.1493 O   0  0  0  0  0  0  0  0  0  0  0  0
    0.3188   -3.0979   31.9923 N   0  0  0  0  0  0  0  0  0  0  0  0
    0.7730   -2.8539   33.4617 C   0  0  0  0  0  0  0  0  0  0  0  0
    1.1588   -1.4656   33.0146 C   0  0  0  0  0  0  0  0  0  0  0  0
   -0.0720   -1.6406   32.1539 C   0  0  1  0  0  0  0  0  0  0  0  0
   -0.2701   -0.8604   30.8007 C   0  0  0  0  0  0  0  0  0  0  0  0
   -0.9822   -1.4233   29.7160 C   0  0  0  0  0  0  0  0  0  0  0  0
   -1.2732   -0.6959   28.5594 C   0  0  0  0  0  0  0  0  0  0  0  0
   -0.8684    0.6285   28.4730 C   0  0  0  0  0  0  0  0  0  0  0  0
   -1.4318    1.7199   27.0407 Br  0  0  0  0  0  0  0  0  0  0  0  0
   -0.1118    1.1988   29.4893 C   0  0  0  0  0  0  0  0  0  0  0  0
    0.1791    0.4613   30.6376 C   0  0  0  0  0  0  0  0  0  0  0  0
  1  2  2  0
  2  3  1  0
  3  4  1  0
  4  5  1  0
  5  6  2  0
  5  7  1  0
  7  8  1  0
  8  9  1  0
  9 10  2  0
  2 11  1  0
 11 12  1  0
 12 13  1  0
 13 14  1  0
 14 15  1  6
 15 16  2  0
 16 17  1  0
 17 18  2  0
 18 19  1  0
 18 20  1  0
 20 21  2  0
  9  4  1  0
 14 11  1  0
 21 15  1  0
M  END
>  <ref_mols>  (1413) 
B0454a

>  <gnina_score>  (1413) 
5.051

>  <smina_score_min>  (1413) 
-6.679

>  <ref_pdb>  (1413) 
B0454a

>  <inspiration_score>  (1413) 
None

>  <inchikey>  (1413) 
BNFQORNVLFAPDQ-JTQLQIEISA-N

>  <tags>  (1413) 
BulkDock Fragalysis export,openbind_d68ev3c_c2_elabs_scored,openbind_d68ev3c_c2_elabs_scored_4.5plus,openbind_d68ev3c_c2_elabs,openbind_d68ev3c_c2_elabs_scored_5plus,syndirella_product,openbind_d68ev3c_c2_elabs_scored_top80percent,syndirella_placed

>  <smiles>  (1413) 
O=C(Cn1c(=O)[nH][nH]c1=O)N1CC[C@H]1c1ccc(Br)cc1

>  <subsites>  (1413) 
None

>  <rmsd(smina/fragmenstein)>  (1413) 
0.53

>  <alias>  (1413) 
None

>  <energy_score>  (1413) 
-14.069678

>  <HIPPO Pose ID>  (1413) 
116757

>  <distance_score>  (1413) 
0.846056

>  <HIPPO Compound ID>  (1413) 
150754

>  <gnina_score_min>  (1413) 
5.054

>  <name>  (1413) 
P116757

>  <exports>  (1413) 
['/opt/xchem-fragalysis-2/maxwin/BulkDock/OUTPUTS/openbind_d68ev3c_c2_elabs_1LOTQJ3.sdf', '/opt/xchem-fragalysis-2/maxwin/BulkDock/OUTPUTS/openbind_d68ev3c_c2_elabs_1LSYI5W.sdf']

$$$$
P116774
     RDKit          3D

 22 24  0  0  0  0  0  0  0  0999 V2000
   -0.3226   -5.4121   35.3540 C   0  0  0  0  0  0  0  0  0  0  0  0
    0.7115   -5.2288   34.2411 C   0  0  0  0  0  0  0  0  0  0  0  0
    1.7732   -6.3240   34.3462 C   0  0  0  0  0  0  0  0  0  0  0  0
    0.1426   -5.0820   32.8024 C   0  0  2  0  0  0  0  0  0  0  0  0
   -0.9178   -3.9648   32.5979 C   0  0  0  0  0  0  0  0  0  0  0  0
   -2.0051   -4.2378   32.2403 O   0  0  0  0  0  0  0  0  0  0  0  0
   -0.2758   -2.6196   32.8272 N   0  0  0  0  0  0  0  0  0  0  0  0
   -0.4798   -2.1304   34.2957 C   0  0  0  0  0  0  0  0  0  0  0  0
   -0.0339   -0.7738   33.7948 C   0  0  0  0  0  0  0  0  0  0  0  0
   -0.7968   -1.2213   32.5729 C   0  0  1  0  0  0  0  0  0  0  0  0
   -0.5615   -0.6513   31.1307 C   0  0  0  0  0  0  0  0  0  0  0  0
    0.1028    0.5648   30.9062 C   0  0  0  0  0  0  0  0  0  0  0  0
    0.0944    1.1784   29.6544 C   0  0  0  0  0  0  0  0  0  0  0  0
   -0.5743    0.5814   28.5929 C   0  0  0  0  0  0  0  0  0  0  0  0
   -0.7646    1.4765   27.1451 Cl  0  0  0  0  0  0  0  0  0  0  0  0
   -1.1500   -0.6724   28.7405 C   0  0  0  0  0  0  0  0  0  0  0  0
   -1.1400   -1.2777   29.9998 C   0  0  0  0  0  0  0  0  0  0  0  0
   -0.3248   -6.3101   32.1559 N   0  0  0  0  0  0  0  0  0  0  0  0
   -1.1086   -7.3114   32.6372 C   0  0  0  0  0  0  0  0  0  0  0  0
   -1.3816   -8.1635   31.6735 N   0  0  0  0  0  0  0  0  0  0  0  0
   -0.7853   -7.7082   30.5277 N   0  0  0  0  0  0  0  0  0  0  0  0
   -0.1641   -6.5924   30.8275 C   0  0  0  0  0  0  0  0  0  0  0  0
  1  2  1  0
  2  3  1  0
  4  2  1  1
  4  5  1  0
  5  6  2  0
  5  7  1  0
  7  8  1  0
  8  9  1  0
  9 10  1  0
 10 11  1  6
 11 12  2  0
 12 13  1  0
 13 14  2  0
 14 15  1  0
 14 16  1  0
 16 17  2  0
  4 18  1  0
 18 19  1  0
 19 20  2  0
 20 21  1  0
 21 22  2  0
 10  7  1  0
 17 11  1  0
 22 18  1  0
M  END
>  <ref_mols>  (1414) 
B0454a

>  <gnina_score>  (1414) 
5.232

>  <smina_score_min>  (1414) 
-5.553

>  <ref_pdb>  (1414) 
B0454a

>  <inspiration_score>  (1414) 
None

>  <inchikey>  (1414) 
QZRXUVPAYXOZFG-LSDHHAIUSA-N

>  <tags>  (1414) 
BulkDock Fragalysis export,openbind_d68ev3c_c2_elabs_scored,openbind_d68ev3c_c2_elabs_scored_4.5plus,openbind_d68ev3c_c2_elabs,openbind_d68ev3c_c2_elabs_scored_5plus,syndirella_product,openbind_d68ev3c_c2_elabs_scored_top80percent,syndirella_placed

>  <smiles>  (1414) 
CC(C)[C@H](C(=O)N1CC[C@H]1c1ccc(Cl)cc1)n1cnnc1

>  <subsites>  (1414) 
None

>  <rmsd(smina/fragmenstein)>  (1414) 
0.677

>  <alias>  (1414) 
None

>  <energy_score>  (1414) 
-4.010761

>  <HIPPO Pose ID>  (1414) 
116774

>  <distance_score>  (1414) 
0.749966

>  <HIPPO Compound ID>  (1414) 
150814

>  <gnina_score_min>  (1414) 
5.176

>  <name>  (1414) 
P116774

>  <exports>  (1414) 
['/opt/xchem-fragalysis-2/maxwin/BulkDock/OUTPUTS/openbind_d68ev3c_c2_elabs_1LOTQJ3.sdf', '/opt/xchem-fragalysis-2/maxwin/BulkDock/OUTPUTS/openbind_d68ev3c_c2_elabs_1LSYI5W.sdf']

$$$$
P116778
     RDKit          3D

 22 24  0  0  0  0  0  0  0  0999 V2000
    1.7635   -6.3642   34.3583 C   0  0  0  0  0  0  0  0  0  0  0  0
    0.7135   -5.2592   34.2468 C   0  0  0  0  0  0  0  0  0  0  0  0
   -0.3275   -5.4302   35.3553 C   0  0  0  0  0  0  0  0  0  0  0  0
    0.1525   -5.1055   32.8052 C   0  0  2  0  0  0  0  0  0  0  0  0
   -0.8996   -3.9804   32.6059 C   0  0  0  0  0  0  0  0  0  0  0  0
   -1.9923   -4.2430   32.2564 O   0  0  0  0  0  0  0  0  0  0  0  0
   -0.2423   -2.6409   32.8285 N   0  0  0  0  0  0  0  0  0  0  0  0
   -0.4309   -2.1473   34.2981 C   0  0  0  0  0  0  0  0  0  0  0  0
    0.0262   -0.7967   33.7913 C   0  0  0  0  0  0  0  0  0  0  0  0
   -0.7507   -1.2389   32.5760 C   0  0  1  0  0  0  0  0  0  0  0  0
   -0.5319   -0.6617   31.1348 C   0  0  0  0  0  0  0  0  0  0  0  0
    0.1203    0.5617   30.9142 C   0  0  0  0  0  0  0  0  0  0  0  0
    0.0583    1.2068   29.6805 C   0  0  0  0  0  0  0  0  0  0  0  0
   -0.6544    0.6325   28.6353 C   0  0  0  0  0  0  0  0  0  0  0  0
   -1.0136    1.6905   27.1187 Br  0  0  0  0  0  0  0  0  0  0  0  0
   -1.1963   -0.6383   28.7659 C   0  0  0  0  0  0  0  0  0  0  0  0
   -1.1319   -1.2744   30.0081 C   0  0  0  0  0  0  0  0  0  0  0  0
   -0.3234   -6.3270   32.1538 N   0  0  0  0  0  0  0  0  0  0  0  0
   -1.1090   -7.3283   32.6320 C   0  0  0  0  0  0  0  0  0  0  0  0
   -1.3879   -8.1740   31.6644 N   0  0  0  0  0  0  0  0  0  0  0  0
   -0.7937   -7.7144   30.5193 N   0  0  0  0  0  0  0  0  0  0  0  0
   -0.1682   -6.6021   30.8233 C   0  0  0  0  0  0  0  0  0  0  0  0
  1  2  1  0
  2  3  1  0
  4  2  1  1
  4  5  1  0
  5  6  2  0
  5  7  1  0
  7  8  1  0
  8  9  1  0
  9 10  1  0
 10 11  1  6
 11 12  2  0
 12 13  1  0
 13 14  2  0
 14 15  1  0
 14 16  1  0
 16 17  2  0
  4 18  1  0
 18 19  1  0
 19 20  2  0
 20 21  1  0
 21 22  2  0
 10  7  1  0
 17 11  1  0
 22 18  1  0
M  END
>  <ref_mols>  (1415) 
B0454a

>  <gnina_score>  (1415) 
5.226

>  <smina_score_min>  (1415) 
-5.635

>  <ref_pdb>  (1415) 
B0454a

>  <inspiration_score>  (1415) 
None

>  <inchikey>  (1415) 
RIRILEIHRYZKDZ-LSDHHAIUSA-N

>  <tags>  (1415) 
BulkDock Fragalysis export,openbind_d68ev3c_c2_elabs_scored,openbind_d68ev3c_c2_elabs_scored_4.5plus,openbind_d68ev3c_c2_elabs,openbind_d68ev3c_c2_elabs_scored_5plus,syndirella_product,openbind_d68ev3c_c2_elabs_scored_top80percent,syndirella_placed

>  <smiles>  (1415) 
CC(C)[C@H](C(=O)N1CC[C@H]1c1ccc(Br)cc1)n1cnnc1

>  <subsites>  (1415) 
None

>  <rmsd(smina/fragmenstein)>  (1415) 
0.62

>  <alias>  (1415) 
None

>  <energy_score>  (1415) 
-17.335896

>  <HIPPO Pose ID>  (1415) 
116778

>  <distance_score>  (1415) 
0.749595

>  <HIPPO Compound ID>  (1415) 
150816

>  <gnina_score_min>  (1415) 
5.176

>  <name>  (1415) 
P116778

>  <exports>  (1415) 
['/opt/xchem-fragalysis-2/maxwin/BulkDock/OUTPUTS/openbind_d68ev3c_c2_elabs_1LOTQJ3.sdf', '/opt/xchem-fragalysis-2/maxwin/BulkDock/OUTPUTS/openbind_d68ev3c_c2_elabs_1LSYI5W.sdf']

$$$$
P116802
     RDKit          3D

 22 24  0  0  0  0  0  0  0  0999 V2000
    1.1156   -7.1871   36.1506 C   0  0  0  0  0  0  0  0  0  0  0  0
    0.6571   -5.8093   35.7095 C   0  0  0  0  0  0  0  0  0  0  0  0
   -0.7356   -5.8045   35.0801 C   0  0  0  0  0  0  0  0  0  0  0  0
   -0.8444   -6.5816   33.8105 C   0  0  0  0  0  0  0  0  0  0  0  0
   -1.4538   -7.7405   33.6721 N   0  0  0  0  0  0  0  0  0  0  0  0
   -1.3395   -8.1455   32.3707 N   0  0  0  0  0  0  0  0  0  0  0  0
   -0.6812   -7.2169   31.7375 C   0  0  0  0  0  0  0  0  0  0  0  0
   -0.1909   -7.3568   30.1126 S   0  0  0  0  0  0  0  0  0  0  0  0
   -0.3933   -6.1812   32.5734 N   0  0  0  0  0  0  0  0  0  0  0  0
    0.1815   -4.8964   32.2432 C   0  0  0  0  0  0  0  0  0  0  0  0
   -0.8941   -3.8248   32.1833 C   0  0  0  0  0  0  0  0  0  0  0  0
   -2.0264   -4.0585   31.9683 O   0  0  0  0  0  0  0  0  0  0  0  0
   -0.1915   -2.5063   32.3802 N   0  0  0  0  0  0  0  0  0  0  0  0
   -0.1785   -2.0854   33.8768 C   0  0  0  0  0  0  0  0  0  0  0  0
    0.2358   -0.7162   33.3834 C   0  0  0  0  0  0  0  0  0  0  0  0
   -0.7061   -1.0839   32.2620 C   0  0  1  0  0  0  0  0  0  0  0  0
   -0.5867   -0.5401   30.7969 C   0  0  0  0  0  0  0  0  0  0  0  0
    0.0788    0.6488   30.4643 C   0  0  0  0  0  0  0  0  0  0  0  0
    0.1091    1.1242   29.1515 C   0  0  0  0  0  0  0  0  0  0  0  0
   -0.5205    0.4146   28.1344 C   0  0  0  0  0  0  0  0  0  0  0  0
   -1.1700   -0.7761   28.4210 C   0  0  0  0  0  0  0  0  0  0  0  0
   -1.2008   -1.2399   29.7323 C   0  0  0  0  0  0  0  0  0  0  0  0
  1  2  1  0
  2  3  1  0
  3  4  1  0
  4  5  2  0
  5  6  1  0
  6  7  2  0
  7  8  1  0
  7  9  1  0
  9 10  1  0
 10 11  1  0
 11 12  2  0
 11 13  1  0
 13 14  1  0
 14 15  1  0
 15 16  1  0
 16 17  1  6
 17 18  2  0
 18 19  1  0
 19 20  2  0
 20 21  1  0
 21 22  2  0
  9  4  1  0
 16 13  1  0
 22 17  1  0
M  END
>  <ref_mols>  (1416) 
B0454a

>  <gnina_score>  (1416) 
5.419

>  <smina_score_min>  (1416) 
-4.791

>  <ref_pdb>  (1416) 
B0454a

>  <inspiration_score>  (1416) 
None

>  <inchikey>  (1416) 
NTTPLCMIRGMGCN-ZDUSSCGKSA-N

>  <tags>  (1416) 
BulkDock Fragalysis export,openbind_d68ev3c_c2_elabs_scored,openbind_d68ev3c_c2_elabs_scored_4.5plus,openbind_d68ev3c_c2_elabs,openbind_d68ev3c_c2_elabs_scored_5plus,syndirella_product,openbind_d68ev3c_c2_elabs_scored_top80percent,syndirella_placed

>  <smiles>  (1416) 
CCCc1nnc(S)n1CC(=O)N1CC[C@H]1c1ccccc1

>  <subsites>  (1416) 
None

>  <rmsd(smina/fragmenstein)>  (1416) 
0.899

>  <alias>  (1416) 
None

>  <energy_score>  (1416) 
-23.957002

>  <HIPPO Pose ID>  (1416) 
116802

>  <distance_score>  (1416) 
0.879564

>  <HIPPO Compound ID>  (1416) 
150872

>  <gnina_score_min>  (1416) 
5.112

>  <name>  (1416) 
P116802

>  <exports>  (1416) 
['/opt/xchem-fragalysis-2/maxwin/BulkDock/OUTPUTS/openbind_d68ev3c_c2_elabs_1LOTQJ3.sdf', '/opt/xchem-fragalysis-2/maxwin/BulkDock/OUTPUTS/openbind_d68ev3c_c2_elabs_1LSYI5W.sdf']

$$$$
P116832
     RDKit          3D

 22 25  0  0  0  0  0  0  0  0999 V2000
   -1.9366   -4.2322   32.1374 O   0  0  0  0  0  0  0  0  0  0  0  0
   -0.8398   -3.9621   32.4684 C   0  0  0  0  0  0  0  0  0  0  0  0
    0.2431   -5.0653   32.5961 C   0  0  1  0  0  0  0  0  0  0  0  0
    0.7801   -5.3253   34.0083 C   0  0  0  0  0  0  0  0  0  0  0  0
   -0.3207   -5.8958   34.9110 C   0  0  0  0  0  0  0  0  0  0  0  0
   -0.8999   -7.2095   34.3664 C   0  0  0  0  0  0  0  0  0  0  0  0
   -0.9017   -7.2734   32.8783 C   0  0  0  0  0  0  0  0  0  0  0  0
   -1.3770   -8.2135   32.0879 N   0  0  0  0  0  0  0  0  0  0  0  0
   -1.0756   -7.8743   30.7855 N   0  0  0  0  0  0  0  0  0  0  0  0
   -0.4282   -6.7331   30.8143 C   0  0  0  0  0  0  0  0  0  0  0  0
   -0.3101   -6.3196   32.0980 N   0  0  0  0  0  0  0  0  0  0  0  0
   -0.2031   -2.6221   32.7277 N   0  0  0  0  0  0  0  0  0  0  0  0
   -0.3609   -2.1922   34.2202 C   0  0  0  0  0  0  0  0  0  0  0  0
    0.0560   -0.8126   33.7571 C   0  0  0  0  0  0  0  0  0  0  0  0
   -0.7444   -1.2207   32.5461 C   0  0  1  0  0  0  0  0  0  0  0  0
   -0.5490   -0.6173   31.1104 C   0  0  0  0  0  0  0  0  0  0  0  0
   -1.1420   -1.2327   29.9802 C   0  0  0  0  0  0  0  0  0  0  0  0
   -1.1617   -0.6204   28.7248 C   0  0  0  0  0  0  0  0  0  0  0  0
   -0.5840    0.6325   28.5799 C   0  0  0  0  0  0  0  0  0  0  0  0
   -0.7741    1.5303   27.1331 Cl  0  0  0  0  0  0  0  0  0  0  0  0
    0.0904    1.2236   29.6415 C   0  0  0  0  0  0  0  0  0  0  0  0
    0.1094    0.6019   30.8898 C   0  0  0  0  0  0  0  0  0  0  0  0
  1  2  2  0
  3  2  1  1
  3  4  1  0
  4  5  1  0
  5  6  1  0
  6  7  1  0
  7  8  2  0
  8  9  1  0
  9 10  2  0
 10 11  1  0
  2 12  1  0
 12 13  1  0
 13 14  1  0
 14 15  1  0
 15 16  1  6
 16 17  2  0
 17 18  1  0
 18 19  2  0
 19 20  1  0
 19 21  1  0
 21 22  2  0
 11  3  1  0
 15 12  1  0
 22 16  1  0
 11  7  1  0
M  END
>  <ref_mols>  (1417) 
B0454a

>  <gnina_score>  (1417) 
5.298

>  <smina_score_min>  (1417) 
-6.571

>  <ref_pdb>  (1417) 
B0454a

>  <inspiration_score>  (1417) 
None

>  <inchikey>  (1417) 
RJUFTAXAJFOMOU-UONOGXRCSA-N

>  <tags>  (1417) 
BulkDock Fragalysis export,openbind_d68ev3c_c2_elabs_scored,openbind_d68ev3c_c2_elabs_scored_4.5plus,openbind_d68ev3c_c2_elabs,openbind_d68ev3c_c2_elabs_scored_5plus,syndirella_product,openbind_d68ev3c_c2_elabs_scored_top80percent,syndirella_placed

>  <smiles>  (1417) 
O=C([C@H]1CCCc2nncn21)N1CC[C@H]1c1ccc(Cl)cc1

>  <subsites>  (1417) 
None

>  <rmsd(smina/fragmenstein)>  (1417) 
0.623

>  <alias>  (1417) 
None

>  <energy_score>  (1417) 
-18.290905

>  <HIPPO Pose ID>  (1417) 
116832

>  <distance_score>  (1417) 
0.688948

>  <HIPPO Compound ID>  (1417) 
150936

>  <gnina_score_min>  (1417) 
5.271

>  <name>  (1417) 
P116832

>  <exports>  (1417) 
['/opt/xchem-fragalysis-2/maxwin/BulkDock/OUTPUTS/openbind_d68ev3c_c2_elabs_1LOTQJ3.sdf', '/opt/xchem-fragalysis-2/maxwin/BulkDock/OUTPUTS/openbind_d68ev3c_c2_elabs_1LSYI5W.sdf']

$$$$
P116833
     RDKit          3D

 22 25  0  0  0  0  0  0  0  0999 V2000
   -2.0869   -4.0261   32.1192 O   0  0  0  0  0  0  0  0  0  0  0  0
   -1.0033   -3.7665   32.4998 C   0  0  0  0  0  0  0  0  0  0  0  0
    0.0163   -4.8735   32.8487 C   0  0  1  0  0  0  0  0  0  0  0  0
    0.2056   -4.9773   34.3814 C   0  0  0  0  0  0  0  0  0  0  0  0
    0.3375   -6.4013   34.9170 C   0  0  0  0  0  0  0  0  0  0  0  0
   -0.8351   -7.2478   34.4301 C   0  0  0  0  0  0  0  0  0  0  0  0
   -0.8611   -7.2234   32.9497 C   0  0  0  0  0  0  0  0  0  0  0  0
   -1.2281   -8.1512   32.0929 N   0  0  0  0  0  0  0  0  0  0  0  0
   -0.9647   -7.6834   30.8234 N   0  0  0  0  0  0  0  0  0  0  0  0
   -0.4522   -6.4793   30.9437 C   0  0  0  0  0  0  0  0  0  0  0  0
   -0.4136   -6.1351   32.2564 N   0  0  0  0  0  0  0  0  0  0  0  0
   -0.3450   -2.4277   32.7328 N   0  0  0  0  0  0  0  0  0  0  0  0
   -0.5752   -1.9224   34.1931 C   0  0  0  0  0  0  0  0  0  0  0  0
   -0.1036   -0.5764   33.6931 C   0  0  0  0  0  0  0  0  0  0  0  0
   -0.8365   -1.0290   32.4558 C   0  0  1  0  0  0  0  0  0  0  0  0
   -0.5609   -0.4743   31.0202 C   0  0  0  0  0  0  0  0  0  0  0  0
    0.1413    0.7213   30.8082 C   0  0  0  0  0  0  0  0  0  0  0  0
    0.1155    1.3659   29.5745 C   0  0  0  0  0  0  0  0  0  0  0  0
   -0.6051    0.8148   28.5221 C   0  0  0  0  0  0  0  0  0  0  0  0
   -0.9301    1.8980   27.0146 Br  0  0  0  0  0  0  0  0  0  0  0  0
   -1.1819   -0.4417   28.6423 C   0  0  0  0  0  0  0  0  0  0  0  0
   -1.1553   -1.0768   29.8853 C   0  0  0  0  0  0  0  0  0  0  0  0
  1  2  2  0
  3  2  1  1
  3  4  1  0
  4  5  1  0
  5  6  1  0
  6  7  1  0
  7  8  2  0
  8  9  1  0
  9 10  2  0
 10 11  1  0
  2 12  1  0
 12 13  1  0
 13 14  1  0
 14 15  1  0
 15 16  1  6
 16 17  2  0
 17 18  1  0
 18 19  2  0
 19 20  1  0
 19 21  1  0
 21 22  2  0
 11  3  1  0
 15 12  1  0
 22 16  1  0
 11  7  1  0
M  END
>  <ref_mols>  (1418) 
B0454a

>  <gnina_score>  (1418) 
5.239

>  <smina_score_min>  (1418) 
-6.396

>  <ref_pdb>  (1418) 
B0454a

>  <inspiration_score>  (1418) 
None

>  <inchikey>  (1418) 
FGLMRNIYBOVDAK-UONOGXRCSA-N

>  <tags>  (1418) 
BulkDock Fragalysis export,openbind_d68ev3c_c2_elabs_scored,openbind_d68ev3c_c2_elabs_scored_4.5plus,openbind_d68ev3c_c2_elabs,openbind_d68ev3c_c2_elabs_scored_5plus,syndirella_product,openbind_d68ev3c_c2_elabs_scored_top80percent,syndirella_placed

>  <smiles>  (1418) 
O=C([C@H]1CCCc2nncn21)N1CC[C@H]1c1ccc(Br)cc1

>  <subsites>  (1418) 
None

>  <rmsd(smina/fragmenstein)>  (1418) 
0.668

>  <alias>  (1418) 
None

>  <energy_score>  (1418) 
-31.588999

>  <HIPPO Pose ID>  (1418) 
116833

>  <distance_score>  (1418) 
0.831845

>  <HIPPO Compound ID>  (1418) 
150939

>  <gnina_score_min>  (1418) 
5.268

>  <name>  (1418) 
P116833

>  <exports>  (1418) 
['/opt/xchem-fragalysis-2/maxwin/BulkDock/OUTPUTS/openbind_d68ev3c_c2_elabs_1LOTQJ3.sdf', '/opt/xchem-fragalysis-2/maxwin/BulkDock/OUTPUTS/openbind_d68ev3c_c2_elabs_1LSYI5W.sdf']

$$$$
P116839
     RDKit          3D

 22 25  0  0  0  0  0  0  0  0999 V2000
   -1.9540   -4.1440   32.2311 O   0  0  0  0  0  0  0  0  0  0  0  0
   -0.8398   -3.8829   32.5112 C   0  0  0  0  0  0  0  0  0  0  0  0
    0.2303   -4.9994   32.6418 C   0  0  1  0  0  0  0  0  0  0  0  0
    0.7535   -5.2666   34.0587 C   0  0  0  0  0  0  0  0  0  0  0  0
   -0.3463   -5.8617   34.9456 C   0  0  0  0  0  0  0  0  0  0  0  0
   -0.8979   -7.1795   34.3845 C   0  0  0  0  0  0  0  0  0  0  0  0
   -0.9007   -7.2213   32.8959 C   0  0  0  0  0  0  0  0  0  0  0  0
   -1.3628   -8.1591   32.0949 N   0  0  0  0  0  0  0  0  0  0  0  0
   -1.0641   -7.8015   30.7972 N   0  0  0  0  0  0  0  0  0  0  0  0
   -0.4300   -6.6527   30.8395 C   0  0  0  0  0  0  0  0  0  0  0  0
   -0.3227   -6.2487   32.1280 N   0  0  0  0  0  0  0  0  0  0  0  0
   -0.1676   -2.5426   32.6962 N   0  0  0  0  0  0  0  0  0  0  0  0
   -0.2613   -2.0550   34.1734 C   0  0  0  0  0  0  0  0  0  0  0  0
    0.1642   -0.7000   33.6416 C   0  0  0  0  0  0  0  0  0  0  0  0
   -0.6924   -1.1330   32.4804 C   0  0  1  0  0  0  0  0  0  0  0  0
   -0.5317   -0.6240   31.0067 C   0  0  0  0  0  0  0  0  0  0  0  0
    0.2204    0.5055   30.6411 C   0  0  0  0  0  0  0  0  0  0  0  0
    0.2621    0.9666   29.3195 C   0  0  0  0  0  0  0  0  0  0  0  0
   -0.4534    0.3074   28.3260 C   0  0  0  0  0  0  0  0  0  0  0  0
   -1.1914   -0.8124   28.6592 C   0  0  0  0  0  0  0  0  0  0  0  0
   -1.9267   -1.4249   27.7290 F   0  0  0  0  0  0  0  0  0  0  0  0
   -1.2243   -1.2789   29.9656 C   0  0  0  0  0  0  0  0  0  0  0  0
  1  2  2  0
  3  2  1  1
  3  4  1  0
  4  5  1  0
  5  6  1  0
  6  7  1  0
  7  8  2  0
  8  9  1  0
  9 10  2  0
 10 11  1  0
  2 12  1  0
 12 13  1  0
 13 14  1  0
 14 15  1  0
 15 16  1  6
 16 17  2  0
 17 18  1  0
 18 19  2  0
 19 20  1  0
 20 21  1  0
 20 22  2  0
 11  3  1  0
 15 12  1  0
 22 16  1  0
 11  7  1  0
M  END
>  <ref_mols>  (1419) 
B0454a

>  <gnina_score>  (1419) 
5.2

>  <smina_score_min>  (1419) 
-6.722

>  <ref_pdb>  (1419) 
B0454a

>  <inspiration_score>  (1419) 
None

>  <inchikey>  (1419) 
BRAYMPDWYPPQPN-UONOGXRCSA-N

>  <tags>  (1419) 
BulkDock Fragalysis export,openbind_d68ev3c_c2_elabs_scored,openbind_d68ev3c_c2_elabs_scored_4.5plus,openbind_d68ev3c_c2_elabs,openbind_d68ev3c_c2_elabs_scored_5plus,syndirella_product,openbind_d68ev3c_c2_elabs_scored_top80percent,syndirella_placed

>  <smiles>  (1419) 
O=C([C@H]1CCCc2nncn21)N1CC[C@H]1c1cccc(F)c1

>  <subsites>  (1419) 
None

>  <rmsd(smina/fragmenstein)>  (1419) 
0.763

>  <alias>  (1419) 
None

>  <energy_score>  (1419) 
-18.928624

>  <HIPPO Pose ID>  (1419) 
116839

>  <distance_score>  (1419) 
0.649534

>  <HIPPO Compound ID>  (1419) 
150962

>  <gnina_score_min>  (1419) 
5.097

>  <name>  (1419) 
P116839

>  <exports>  (1419) 
['/opt/xchem-fragalysis-2/maxwin/BulkDock/OUTPUTS/openbind_d68ev3c_c2_elabs_1LOTQJ3.sdf', '/opt/xchem-fragalysis-2/maxwin/BulkDock/OUTPUTS/openbind_d68ev3c_c2_elabs_1LSYI5W.sdf']

$$$$
P116844
     RDKit          3D

 22 25  0  0  0  0  0  0  0  0999 V2000
   -1.9289   -4.1935   32.3341 O   0  0  0  0  0  0  0  0  0  0  0  0
   -0.7968   -3.9293   32.5218 C   0  0  0  0  0  0  0  0  0  0  0  0
    0.2660   -5.0471   32.6365 C   0  0  1  0  0  0  0  0  0  0  0  0
    0.7789   -5.3067   34.0594 C   0  0  0  0  0  0  0  0  0  0  0  0
   -0.3303   -5.8860   34.9458 C   0  0  0  0  0  0  0  0  0  0  0  0
   -0.8951   -7.1997   34.3904 C   0  0  0  0  0  0  0  0  0  0  0  0
   -0.8951   -7.2512   32.9026 C   0  0  0  0  0  0  0  0  0  0  0  0
   -1.3726   -8.1861   32.1074 N   0  0  0  0  0  0  0  0  0  0  0  0
   -1.0781   -7.8351   30.8071 N   0  0  0  0  0  0  0  0  0  0  0  0
   -0.4294   -6.6940   30.8422 C   0  0  0  0  0  0  0  0  0  0  0  0
   -0.3024   -6.2915   32.1293 N   0  0  0  0  0  0  0  0  0  0  0  0
   -0.1046   -2.5872   32.5880 N   0  0  0  0  0  0  0  0  0  0  0  0
   -0.0921   -2.0219   34.0396 C   0  0  0  0  0  0  0  0  0  0  0  0
    0.2871   -0.6960   33.4226 C   0  0  0  0  0  0  0  0  0  0  0  0
   -0.6355   -1.1831   32.3335 C   0  0  1  0  0  0  0  0  0  0  0  0
   -0.5365   -0.6997   30.8453 C   0  0  0  0  0  0  0  0  0  0  0  0
    0.0719    0.5092   30.4666 C   0  0  0  0  0  0  0  0  0  0  0  0
    0.0483    0.9580   29.1425 C   0  0  0  0  0  0  0  0  0  0  0  0
   -0.5823    0.2040   28.1580 C   0  0  0  0  0  0  0  0  0  0  0  0
   -1.1738   -1.0057   28.4899 C   0  0  0  0  0  0  0  0  0  0  0  0
   -1.1440   -1.4376   29.8090 C   0  0  0  0  0  0  0  0  0  0  0  0
   -1.7538   -2.5938   30.1033 F   0  0  0  0  0  0  0  0  0  0  0  0
  1  2  2  0
  3  2  1  1
  3  4  1  0
  4  5  1  0
  5  6  1  0
  6  7  1  0
  7  8  2  0
  8  9  1  0
  9 10  2  0
 10 11  1  0
  2 12  1  0
 12 13  1  0
 13 14  1  0
 14 15  1  0
 15 16  1  6
 16 17  2  0
 17 18  1  0
 18 19  2  0
 19 20  1  0
 20 21  2  0
 21 22  1  0
 11  3  1  0
 15 12  1  0
 21 16  1  0
 11  7  1  0
M  END
>  <ref_mols>  (1420) 
B0454a

>  <gnina_score>  (1420) 
5.261

>  <smina_score_min>  (1420) 
-6.601

>  <ref_pdb>  (1420) 
B0454a

>  <inspiration_score>  (1420) 
None

>  <inchikey>  (1420) 
NTFGDLUZYZUBRM-UONOGXRCSA-N

>  <tags>  (1420) 
BulkDock Fragalysis export,openbind_d68ev3c_c2_elabs_scored,openbind_d68ev3c_c2_elabs_scored_4.5plus,openbind_d68ev3c_c2_elabs,openbind_d68ev3c_c2_elabs_scored_5plus,syndirella_product,openbind_d68ev3c_c2_elabs_scored_top80percent,syndirella_placed

>  <smiles>  (1420) 
O=C([C@H]1CCCc2nncn21)N1CC[C@H]1c1ccccc1F

>  <subsites>  (1420) 
None

>  <rmsd(smina/fragmenstein)>  (1420) 
0.806

>  <alias>  (1420) 
None

>  <energy_score>  (1420) 
-15.607806

>  <HIPPO Pose ID>  (1420) 
116844

>  <distance_score>  (1420) 
0.581942

>  <HIPPO Compound ID>  (1420) 
150978

>  <gnina_score_min>  (1420) 
5.087

>  <name>  (1420) 
P116844

>  <exports>  (1420) 
['/opt/xchem-fragalysis-2/maxwin/BulkDock/OUTPUTS/openbind_d68ev3c_c2_elabs_1LOTQJ3.sdf', '/opt/xchem-fragalysis-2/maxwin/BulkDock/OUTPUTS/openbind_d68ev3c_c2_elabs_1LSYI5W.sdf']

$$$$
P116852
     RDKit          3D

 22 25  0  0  0  0  0  0  0  0999 V2000
   -2.2940   -1.2202   33.4661 C   0  0  0  0  0  0  0  0  0  0  0  0
   -0.7867   -1.0687   33.5663 C   0  0  1  0  0  0  0  0  0  0  0  0
    0.0431   -2.1849   34.1489 C   0  0  0  0  0  0  0  0  0  0  0  0
    0.3172   -2.7651   32.7131 N   0  0  0  0  0  0  0  0  0  0  0  0
   -0.5487   -3.9911   32.4314 C   0  0  0  0  0  0  0  0  0  0  0  0
   -1.6261   -4.0719   31.9512 O   0  0  0  0  0  0  0  0  0  0  0  0
    0.3004   -5.2321   32.8016 C   0  0  1  0  0  0  0  0  0  0  0  0
    0.6596   -5.4404   34.2780 C   0  0  0  0  0  0  0  0  0  0  0  0
   -0.5286   -5.9866   35.0710 C   0  0  0  0  0  0  0  0  0  0  0  0
   -1.0358   -7.3155   34.5011 C   0  0  0  0  0  0  0  0  0  0  0  0
   -1.0054   -7.3527   33.0133 C   0  0  0  0  0  0  0  0  0  0  0  0
   -1.5134   -8.2483   32.1924 N   0  0  0  0  0  0  0  0  0  0  0  0
   -1.1620   -7.9049   30.9046 N   0  0  0  0  0  0  0  0  0  0  0  0
   -0.4507   -6.8046   30.9719 C   0  0  0  0  0  0  0  0  0  0  0  0
   -0.3390   -6.4244   32.2692 N   0  0  0  0  0  0  0  0  0  0  0  0
    0.0987   -1.2834   32.3675 C   0  0  1  0  0  0  0  0  0  0  0  0
   -0.3485   -0.8546   30.9028 C   0  0  0  0  0  0  0  0  0  0  0  0
   -0.1005    0.4688   30.4719 C   0  0  0  0  0  0  0  0  0  0  0  0
   -0.4163    0.9198   29.1865 C   0  0  0  0  0  0  0  0  0  0  0  0
   -1.0019    0.0541   28.2771 C   0  0  0  0  0  0  0  0  0  0  0  0
   -1.2661   -1.2527   28.6570 C   0  0  0  0  0  0  0  0  0  0  0  0
   -0.9443   -1.6940   29.9448 C   0  0  0  0  0  0  0  0  0  0  0  0
  2  1  1  6
  2  3  1  0
  3  4  1  0
  4  5  1  0
  5  6  2  0
  7  5  1  1
  7  8  1  0
  8  9  1  0
  9 10  1  0
 10 11  1  0
 11 12  2  0
 12 13  1  0
 13 14  2  0
 14 15  1  0
  4 16  1  0
 16 17  1  6
 17 18  2  0
 18 19  1  0
 19 20  2  0
 20 21  1  0
 21 22  2  0
 16  2  1  0
 22 17  1  0
 15  7  1  0
 15 11  1  0
M  END
>  <ref_mols>  (1421) 
B0454a

>  <gnina_score>  (1421) 
5.149

>  <smina_score_min>  (1421) 
-6.954

>  <ref_pdb>  (1421) 
B0454a

>  <inspiration_score>  (1421) 
None

>  <inchikey>  (1421) 
QRIINONEAFNOKJ-JGGQBBKZSA-N

>  <tags>  (1421) 
BulkDock Fragalysis export,openbind_d68ev3c_c2_elabs_scored,openbind_d68ev3c_c2_elabs_scored_4.5plus,openbind_d68ev3c_c2_elabs,openbind_d68ev3c_c2_elabs_scored_5plus,syndirella_product,openbind_d68ev3c_c2_elabs_scored_top80percent,syndirella_placed

>  <smiles>  (1421) 
C[C@H]1CN(C(=O)[C@H]2CCCc3nncn32)[C@H]1c1ccccc1

>  <subsites>  (1421) 
None

>  <rmsd(smina/fragmenstein)>  (1421) 
0.336

>  <alias>  (1421) 
None

>  <energy_score>  (1421) 
-14.820088

>  <HIPPO Pose ID>  (1421) 
116852

>  <distance_score>  (1421) 
0.533984

>  <HIPPO Compound ID>  (1421) 
150985

>  <gnina_score_min>  (1421) 
5.22

>  <name>  (1421) 
P116852

>  <exports>  (1421) 
['/opt/xchem-fragalysis-2/maxwin/BulkDock/OUTPUTS/openbind_d68ev3c_c2_elabs_1LOTQJ3.sdf', '/opt/xchem-fragalysis-2/maxwin/BulkDock/OUTPUTS/openbind_d68ev3c_c2_elabs_1LSYI5W.sdf']

$$$$
P116855
     RDKit          3D

 22 25  0  0  0  0  0  0  0  0999 V2000
    0.3644   -5.5984   30.2325 C   0  0  0  0  0  0  0  0  0  0  0  0
   -0.2809   -6.3047   31.3374 C   0  0  0  0  0  0  0  0  0  0  0  0
   -0.6330   -7.5785   31.3584 N   0  0  0  0  0  0  0  0  0  0  0  0
   -0.9634   -7.9221   32.6538 N   0  0  0  0  0  0  0  0  0  0  0  0
   -0.8157   -6.8385   33.3607 C   0  0  0  0  0  0  0  0  0  0  0  0
   -0.5601   -5.7845   32.5413 N   0  0  0  0  0  0  0  0  0  0  0  0
   -0.6471   -4.5135   33.2386 C   0  0  2  0  0  0  0  0  0  0  0  0
    0.1565   -3.3568   32.6674 C   0  0  0  0  0  0  0  0  0  0  0  0
    1.1468   -2.9423   33.1364 O   0  0  0  0  0  0  0  0  0  0  0  0
   -0.6855   -2.8382   31.4470 N   0  0  0  0  0  0  0  0  0  0  0  0
   -0.4301   -1.8067   30.5453 C   0  0  0  0  0  0  0  0  0  0  0  0
   -1.1952   -1.8299   29.3656 C   0  0  0  0  0  0  0  0  0  0  0  0
   -1.0978   -0.8214   28.3942 C   0  0  0  0  0  0  0  0  0  0  0  0
   -0.2358    0.2486   28.5844 C   0  0  0  0  0  0  0  0  0  0  0  0
    0.5110    0.2532   29.7473 C   0  0  0  0  0  0  0  0  0  0  0  0
    0.4420   -0.7515   30.7267 C   0  0  0  0  0  0  0  0  0  0  0  0
    1.3897   -0.4166   31.8300 C   0  0  0  0  0  0  0  0  0  0  0  0
    1.9244    0.8614   31.4265 N   0  0  0  0  0  0  0  0  0  0  0  0
    1.4871    1.2564   30.1849 C   0  0  0  0  0  0  0  0  0  0  0  0
    1.8464    2.2338   29.5627 O   0  0  0  0  0  0  0  0  0  0  0  0
   -0.3308   -4.9585   34.6705 C   0  0  0  0  0  0  0  0  0  0  0  0
   -0.8432   -6.4302   34.7751 C   0  0  0  0  0  0  0  0  0  0  0  0
  1  2  1  0
  2  3  2  0
  3  4  1  0
  4  5  2  0
  5  6  1  0
  6  7  1  0
  7  8  1  6
  8  9  2  0
  8 10  1  0
 10 11  1  0
 11 12  2  0
 12 13  1  0
 13 14  2  0
 14 15  1  0
 15 16  2  0
 16 17  1  0
 17 18  1  0
 18 19  1  0
 19 20  2  0
  7 21  1  0
 21 22  1  0
  6  2  1  0
 16 11  1  0
 22  5  1  0
 19 15  1  0
M  END
>  <ref_mols>  (1422) 
B0454a

>  <gnina_score>  (1422) 
4.869

>  <smina_score_min>  (1422) 
-5.266

>  <ref_pdb>  (1422) 
B0454a

>  <inspiration_score>  (1422) 
None

>  <inchikey>  (1422) 
PBNMEIVFMBCLMF-LBPRGKRZSA-N

>  <tags>  (1422) 
BulkDock Fragalysis export,openbind_d68ev3c_c2_elabs_scored,openbind_d68ev3c_c2_elabs_scored_4.5plus,openbind_d68ev3c_c2_elabs,openbind_d68ev3c_c2_elabs_scored_5plus,syndirella_product,openbind_d68ev3c_c2_elabs_scored_top80percent,syndirella_placed

>  <smiles>  (1422) 
Cc1nnc2n1[C@H](C(=O)Nc1cccc3c1CNC3=O)CC2

>  <subsites>  (1422) 
None

>  <rmsd(smina/fragmenstein)>  (1422) 
0.749

>  <alias>  (1422) 
None

>  <energy_score>  (1422) 
-24.907545

>  <HIPPO Pose ID>  (1422) 
116855

>  <distance_score>  (1422) 
1.449963

>  <HIPPO Compound ID>  (1422) 
150994

>  <gnina_score_min>  (1422) 
5.019

>  <name>  (1422) 
P116855

>  <exports>  (1422) 
['/opt/xchem-fragalysis-2/maxwin/BulkDock/OUTPUTS/openbind_d68ev3c_c2_elabs_1LOTQJ3.sdf', '/opt/xchem-fragalysis-2/maxwin/BulkDock/OUTPUTS/openbind_d68ev3c_c2_elabs_1LSYI5W.sdf']

$$$$
P116857
     RDKit          3D

 22 25  0  0  0  0  0  0  0  0999 V2000
   -1.2570   -7.3165   34.2936 C   0  0  0  0  0  0  0  0  0  0  0  0
   -1.0129   -7.2571   32.8383 C   0  0  0  0  0  0  0  0  0  0  0  0
   -1.3162   -8.1597   31.9145 N   0  0  0  0  0  0  0  0  0  0  0  0
   -0.8214   -7.7328   30.6823 N   0  0  0  0  0  0  0  0  0  0  0  0
   -0.2358   -6.5890   30.9079 C   0  0  0  0  0  0  0  0  0  0  0  0
   -0.3988   -6.2403   32.2087 N   0  0  0  0  0  0  0  0  0  0  0  0
    0.1493   -4.9325   32.5174 C   0  0  2  0  0  0  0  0  0  0  0  0
   -0.9366   -3.8604   32.4497 C   0  0  0  0  0  0  0  0  0  0  0  0
   -2.0505   -4.0919   32.1562 O   0  0  0  0  0  0  0  0  0  0  0  0
   -0.2581   -2.5487   32.7338 N   0  0  0  0  0  0  0  0  0  0  0  0
   -0.3423   -2.1783   34.2418 C   0  0  0  0  0  0  0  0  0  0  0  0
    0.0977   -0.7934   33.8188 C   0  0  0  0  0  0  0  0  0  0  0  0
   -0.7719   -1.1303   32.6311 C   0  0  1  0  0  0  0  0  0  0  0  0
   -0.5842   -0.5222   31.1907 C   0  0  0  0  0  0  0  0  0  0  0  0
    0.1114    0.6729   30.9586 C   0  0  0  0  0  0  0  0  0  0  0  0
    0.1284    1.2719   29.6985 C   0  0  0  0  0  0  0  0  0  0  0  0
   -0.5461    0.6817   28.6357 C   0  0  0  0  0  0  0  0  0  0  0  0
   -0.6715    1.5498   27.1643 Cl  0  0  0  0  0  0  0  0  0  0  0  0
   -1.1688   -0.5470   28.7951 C   0  0  0  0  0  0  0  0  0  0  0  0
   -1.1878   -1.1340   30.0625 C   0  0  0  0  0  0  0  0  0  0  0  0
    1.1472   -4.7577   31.3477 C   0  0  0  0  0  0  0  0  0  0  0  0
    0.5266   -5.5638   30.1764 C   0  0  0  0  0  0  0  0  0  0  0  0
  1  2  1  0
  2  3  2  0
  3  4  1  0
  4  5  2  0
  5  6  1  0
  6  7  1  0
  7  8  1  6
  8  9  2  0
  8 10  1  0
 10 11  1  0
 11 12  1  0
 12 13  1  0
 13 14  1  6
 14 15  2  0
 15 16  1  0
 16 17  2  0
 17 18  1  0
 17 19  1  0
 19 20  2  0
  7 21  1  0
 21 22  1  0
  6  2  1  0
 13 10  1  0
 20 14  1  0
 22  5  1  0
M  END
>  <ref_mols>  (1423) 
B0454a

>  <gnina_score>  (1423) 
5.315

>  <smina_score_min>  (1423) 
-5.922

>  <ref_pdb>  (1423) 
B0454a

>  <inspiration_score>  (1423) 
None

>  <inchikey>  (1423) 
FOYQXVOKPJANMF-KBPBESRZSA-N

>  <tags>  (1423) 
BulkDock Fragalysis export,openbind_d68ev3c_c2_elabs_scored,openbind_d68ev3c_c2_elabs_scored_4.5plus,openbind_d68ev3c_c2_elabs,openbind_d68ev3c_c2_elabs_scored_5plus,syndirella_product,openbind_d68ev3c_c2_elabs_scored_top80percent,syndirella_placed

>  <smiles>  (1423) 
Cc1nnc2n1[C@H](C(=O)N1CC[C@H]1c1ccc(Cl)cc1)CC2

>  <subsites>  (1423) 
None

>  <rmsd(smina/fragmenstein)>  (1423) 
0.339

>  <alias>  (1423) 
None

>  <energy_score>  (1423) 
-23.806989

>  <HIPPO Pose ID>  (1423) 
116857

>  <distance_score>  (1423) 
0.763213

>  <HIPPO Compound ID>  (1423) 
150995

>  <gnina_score_min>  (1423) 
5.229

>  <name>  (1423) 
P116857

>  <exports>  (1423) 
['/opt/xchem-fragalysis-2/maxwin/BulkDock/OUTPUTS/openbind_d68ev3c_c2_elabs_1LOTQJ3.sdf', '/opt/xchem-fragalysis-2/maxwin/BulkDock/OUTPUTS/openbind_d68ev3c_c2_elabs_1LSYI5W.sdf']

$$$$
P116861
     RDKit          3D

 22 25  0  0  0  0  0  0  0  0999 V2000
   -1.2384   -7.2675   34.3362 C   0  0  0  0  0  0  0  0  0  0  0  0
   -1.0078   -7.2015   32.8790 C   0  0  0  0  0  0  0  0  0  0  0  0
   -1.2945   -8.1165   31.9619 N   0  0  0  0  0  0  0  0  0  0  0  0
   -0.8051   -7.6918   30.7277 N   0  0  0  0  0  0  0  0  0  0  0  0
   -0.2416   -6.5356   30.9453 C   0  0  0  0  0  0  0  0  0  0  0  0
   -0.4230   -6.1716   32.2409 N   0  0  0  0  0  0  0  0  0  0  0  0
    0.1182   -4.8560   32.5412 C   0  0  2  0  0  0  0  0  0  0  0  0
   -0.9694   -3.7833   32.4369 C   0  0  0  0  0  0  0  0  0  0  0  0
   -2.0885   -4.0319   32.1768 O   0  0  0  0  0  0  0  0  0  0  0  0
   -0.2854   -2.4548   32.6258 N   0  0  0  0  0  0  0  0  0  0  0  0
   -0.3449   -1.9893   34.1063 C   0  0  0  0  0  0  0  0  0  0  0  0
    0.0881   -0.6328   33.5883 C   0  0  0  0  0  0  0  0  0  0  0  0
   -0.8031   -1.0397   32.4403 C   0  0  1  0  0  0  0  0  0  0  0  0
   -0.6225   -0.5625   30.9518 C   0  0  0  0  0  0  0  0  0  0  0  0
   -1.2464   -1.2791   29.8996 C   0  0  0  0  0  0  0  0  0  0  0  0
   -1.1489   -0.8919   28.5635 C   0  0  0  0  0  0  0  0  0  0  0  0
   -0.4161    0.2383   28.2369 C   0  0  0  0  0  0  0  0  0  0  0  0
    0.2181    0.9513   29.2431 C   0  0  0  0  0  0  0  0  0  0  0  0
    0.9415    2.0340   28.9285 F   0  0  0  0  0  0  0  0  0  0  0  0
    0.1222    0.5642   30.5786 C   0  0  0  0  0  0  0  0  0  0  0  0
    1.1379   -4.7057   31.3840 C   0  0  0  0  0  0  0  0  0  0  0  0
    0.5262   -5.5171   30.2109 C   0  0  0  0  0  0  0  0  0  0  0  0
  1  2  1  0
  2  3  2  0
  3  4  1  0
  4  5  2  0
  5  6  1  0
  6  7  1  0
  7  8  1  6
  8  9  2  0
  8 10  1  0
 10 11  1  0
 11 12  1  0
 12 13  1  0
 13 14  1  6
 14 15  2  0
 15 16  1  0
 16 17  2  0
 17 18  1  0
 18 19  1  0
 18 20  2  0
  7 21  1  0
 21 22  1  0
  6  2  1  0
 13 10  1  0
 20 14  1  0
 22  5  1  0
M  END
>  <ref_mols>  (1424) 
B0454a

>  <gnina_score>  (1424) 
5.139

>  <smina_score_min>  (1424) 
-6.448

>  <ref_pdb>  (1424) 
B0454a

>  <inspiration_score>  (1424) 
None

>  <inchikey>  (1424) 
QLWVSCPGLDRUTO-KBPBESRZSA-N

>  <tags>  (1424) 
BulkDock Fragalysis export,openbind_d68ev3c_c2_elabs_scored,openbind_d68ev3c_c2_elabs_scored_4.5plus,openbind_d68ev3c_c2_elabs,openbind_d68ev3c_c2_elabs_scored_5plus,syndirella_product,openbind_d68ev3c_c2_elabs_scored_top80percent,syndirella_placed

>  <smiles>  (1424) 
Cc1nnc2n1[C@H](C(=O)N1CC[C@H]1c1cccc(F)c1)CC2

>  <subsites>  (1424) 
None

>  <rmsd(smina/fragmenstein)>  (1424) 
0.962

>  <alias>  (1424) 
None

>  <energy_score>  (1424) 
-15.326814

>  <HIPPO Pose ID>  (1424) 
116861

>  <distance_score>  (1424) 
0.698326

>  <HIPPO Compound ID>  (1424) 
151006

>  <gnina_score_min>  (1424) 
5.07

>  <name>  (1424) 
P116861

>  <exports>  (1424) 
['/opt/xchem-fragalysis-2/maxwin/BulkDock/OUTPUTS/openbind_d68ev3c_c2_elabs_1LOTQJ3.sdf', '/opt/xchem-fragalysis-2/maxwin/BulkDock/OUTPUTS/openbind_d68ev3c_c2_elabs_1LSYI5W.sdf']

$$$$
P116864
     RDKit          3D

 22 25  0  0  0  0  0  0  0  0999 V2000
   -1.2629   -7.3273   34.2853 C   0  0  0  0  0  0  0  0  0  0  0  0
   -1.0184   -7.2712   32.8299 C   0  0  0  0  0  0  0  0  0  0  0  0
   -1.3285   -8.1709   31.9058 N   0  0  0  0  0  0  0  0  0  0  0  0
   -0.8328   -7.7458   30.6731 N   0  0  0  0  0  0  0  0  0  0  0  0
   -0.2397   -6.6060   30.8990 C   0  0  0  0  0  0  0  0  0  0  0  0
   -0.3968   -6.2589   32.2006 N   0  0  0  0  0  0  0  0  0  0  0  0
    0.1617   -4.9566   32.5109 C   0  0  2  0  0  0  0  0  0  0  0  0
   -0.9160   -3.8771   32.4523 C   0  0  0  0  0  0  0  0  0  0  0  0
   -2.0352   -4.0980   32.1712 O   0  0  0  0  0  0  0  0  0  0  0  0
   -0.2236   -2.5723   32.7361 N   0  0  0  0  0  0  0  0  0  0  0  0
   -0.2863   -2.2105   34.2477 C   0  0  0  0  0  0  0  0  0  0  0  0
    0.1595   -0.8270   33.8274 C   0  0  0  0  0  0  0  0  0  0  0  0
   -0.7270   -1.1505   32.6485 C   0  0  1  0  0  0  0  0  0  0  0  0
   -0.5575   -0.5276   31.2127 C   0  0  0  0  0  0  0  0  0  0  0  0
   -1.1818   -1.1212   30.0864 C   0  0  0  0  0  0  0  0  0  0  0  0
   -1.2089   -0.5008   28.8355 C   0  0  0  0  0  0  0  0  0  0  0  0
   -0.6130    0.7434   28.6945 C   0  0  0  0  0  0  0  0  0  0  0  0
   -0.8833    1.7781   27.1439 Br  0  0  0  0  0  0  0  0  0  0  0  0
    0.1022    1.3063   29.7454 C   0  0  0  0  0  0  0  0  0  0  0  0
    0.1301    0.6735   30.9881 C   0  0  0  0  0  0  0  0  0  0  0  0
    1.1558   -4.7840   31.3382 C   0  0  0  0  0  0  0  0  0  0  0  0
    0.5265   -5.5834   30.1676 C   0  0  0  0  0  0  0  0  0  0  0  0
  1  2  1  0
  2  3  2  0
  3  4  1  0
  4  5  2  0
  5  6  1  0
  6  7  1  0
  7  8  1  6
  8  9  2  0
  8 10  1  0
 10 11  1  0
 11 12  1  0
 12 13  1  0
 13 14  1  6
 14 15  2  0
 15 16  1  0
 16 17  2  0
 17 18  1  0
 17 19  1  0
 19 20  2  0
  7 21  1  0
 21 22  1  0
  6  2  1  0
 13 10  1  0
 20 14  1  0
 22  5  1  0
M  END
>  <ref_mols>  (1425) 
B0454a

>  <gnina_score>  (1425) 
5.312

>  <smina_score_min>  (1425) 
-5.972

>  <ref_pdb>  (1425) 
B0454a

>  <inspiration_score>  (1425) 
None

>  <inchikey>  (1425) 
AEGKZOADYYHZIS-KBPBESRZSA-N

>  <tags>  (1425) 
BulkDock Fragalysis export,openbind_d68ev3c_c2_elabs_scored,openbind_d68ev3c_c2_elabs_scored_4.5plus,openbind_d68ev3c_c2_elabs,openbind_d68ev3c_c2_elabs_scored_5plus,syndirella_product,openbind_d68ev3c_c2_elabs_scored_top80percent,syndirella_placed

>  <smiles>  (1425) 
Cc1nnc2n1[C@H](C(=O)N1CC[C@H]1c1ccc(Br)cc1)CC2

>  <subsites>  (1425) 
None

>  <rmsd(smina/fragmenstein)>  (1425) 
0.312

>  <alias>  (1425) 
None

>  <energy_score>  (1425) 
-32.588846

>  <HIPPO Pose ID>  (1425) 
116864

>  <distance_score>  (1425) 
0.766853

>  <HIPPO Compound ID>  (1425) 
151008

>  <gnina_score_min>  (1425) 
5.233

>  <name>  (1425) 
P116864

>  <exports>  (1425) 
['/opt/xchem-fragalysis-2/maxwin/BulkDock/OUTPUTS/openbind_d68ev3c_c2_elabs_1LOTQJ3.sdf', '/opt/xchem-fragalysis-2/maxwin/BulkDock/OUTPUTS/openbind_d68ev3c_c2_elabs_1LSYI5W.sdf']

$$$$
P116874
     RDKit          3D

 22 25  0  0  0  0  0  0  0  0999 V2000
   -1.2542   -7.2873   34.3347 C   0  0  0  0  0  0  0  0  0  0  0  0
   -1.0266   -7.2212   32.8769 C   0  0  0  0  0  0  0  0  0  0  0  0
   -1.3170   -8.1339   31.9587 N   0  0  0  0  0  0  0  0  0  0  0  0
   -0.8261   -7.7096   30.7249 N   0  0  0  0  0  0  0  0  0  0  0  0
   -0.2591   -6.5553   30.9438 C   0  0  0  0  0  0  0  0  0  0  0  0
   -0.4401   -6.1922   32.2395 N   0  0  0  0  0  0  0  0  0  0  0  0
    0.1169   -4.8854   32.5453 C   0  0  2  0  0  0  0  0  0  0  0  0
   -0.9548   -3.7975   32.4468 C   0  0  0  0  0  0  0  0  0  0  0  0
   -2.0798   -4.0230   32.1906 O   0  0  0  0  0  0  0  0  0  0  0  0
   -0.2434   -2.4829   32.6370 N   0  0  0  0  0  0  0  0  0  0  0  0
   -0.2877   -2.0206   34.1200 C   0  0  0  0  0  0  0  0  0  0  0  0
    0.1738   -0.6605   33.6125 C   0  0  1  0  0  0  0  0  0  0  0  0
    1.6755   -0.4950   33.4240 C   0  0  0  0  0  0  0  0  0  0  0  0
   -0.7338   -1.0561   32.4576 C   0  0  1  0  0  0  0  0  0  0  0  0
   -0.5973   -0.5722   30.9615 C   0  0  0  0  0  0  0  0  0  0  0  0
   -1.1712   -1.3377   29.9167 C   0  0  0  0  0  0  0  0  0  0  0  0
   -1.1309   -0.9380   28.5827 C   0  0  0  0  0  0  0  0  0  0  0  0
   -0.5140    0.2568   28.2480 C   0  0  0  0  0  0  0  0  0  0  0  0
    0.0653    1.0373   29.2424 C   0  0  0  0  0  0  0  0  0  0  0  0
    0.0223    0.6262   30.5785 C   0  0  0  0  0  0  0  0  0  0  0  0
    1.1394   -4.7426   31.3894 C   0  0  0  0  0  0  0  0  0  0  0  0
    0.5181   -5.5413   30.2131 C   0  0  0  0  0  0  0  0  0  0  0  0
  1  2  1  0
  2  3  2  0
  3  4  1  0
  4  5  2  0
  5  6  1  0
  6  7  1  0
  7  8  1  6
  8  9  2  0
  8 10  1  0
 10 11  1  0
 11 12  1  0
 12 13  1  6
 12 14  1  0
 14 15  1  6
 15 16  2  0
 16 17  1  0
 17 18  2  0
 18 19  1  0
 19 20  2  0
  7 21  1  0
 21 22  1  0
  6  2  1  0
 14 10  1  0
 20 15  1  0
 22  5  1  0
M  END
>  <ref_mols>  (1426) 
B0454a

>  <gnina_score>  (1426) 
5.207

>  <smina_score_min>  (1426) 
-6.135

>  <ref_pdb>  (1426) 
B0454a

>  <inspiration_score>  (1426) 
None

>  <inchikey>  (1426) 
QQEAXVDIAKQEEV-WPGHFRTFSA-N

>  <tags>  (1426) 
BulkDock Fragalysis export,openbind_d68ev3c_c2_elabs_scored,openbind_d68ev3c_c2_elabs_scored_4.5plus,openbind_d68ev3c_c2_elabs,openbind_d68ev3c_c2_elabs_scored_5plus,syndirella_product,openbind_d68ev3c_c2_elabs_scored_top80percent,syndirella_placed

>  <smiles>  (1426) 
Cc1nnc2n1[C@H](C(=O)N1C[C@@H](C)[C@H]1c1ccccc1)CC2

>  <subsites>  (1426) 
None

>  <rmsd(smina/fragmenstein)>  (1426) 
0.407

>  <alias>  (1426) 
None

>  <energy_score>  (1426) 
-32.032572

>  <HIPPO Pose ID>  (1426) 
116874

>  <distance_score>  (1426) 
0.672749

>  <HIPPO Compound ID>  (1426) 
151026

>  <gnina_score_min>  (1426) 
5.129

>  <name>  (1426) 
P116874

>  <exports>  (1426) 
['/opt/xchem-fragalysis-2/maxwin/BulkDock/OUTPUTS/openbind_d68ev3c_c2_elabs_1LOTQJ3.sdf', '/opt/xchem-fragalysis-2/maxwin/BulkDock/OUTPUTS/openbind_d68ev3c_c2_elabs_1LSYI5W.sdf']

$$$$
P116882
     RDKit          3D

 22 25  0  0  0  0  0  0  0  0999 V2000
   -1.2309   -7.2720   34.3480 C   0  0  0  0  0  0  0  0  0  0  0  0
   -0.9933   -7.2215   32.8918 C   0  0  0  0  0  0  0  0  0  0  0  0
   -1.2918   -8.1381   31.9801 N   0  0  0  0  0  0  0  0  0  0  0  0
   -0.8094   -7.7203   30.7407 N   0  0  0  0  0  0  0  0  0  0  0  0
   -0.2370   -6.5667   30.9499 C   0  0  0  0  0  0  0  0  0  0  0  0
   -0.3920   -6.2044   32.2490 N   0  0  0  0  0  0  0  0  0  0  0  0
    0.1634   -4.8930   32.5433 C   0  0  2  0  0  0  0  0  0  0  0  0
   -0.9213   -3.8193   32.4711 C   0  0  0  0  0  0  0  0  0  0  0  0
   -2.0526   -4.0716   32.2759 O   0  0  0  0  0  0  0  0  0  0  0  0
   -0.2262   -2.4863   32.5922 N   0  0  0  0  0  0  0  0  0  0  0  0
   -0.2081   -1.9854   34.0628 C   0  0  0  0  0  0  0  0  0  0  0  0
    0.1839   -0.6388   33.5031 C   0  0  0  0  0  0  0  0  0  0  0  0
   -0.7524   -1.0732   32.3995 C   0  0  1  0  0  0  0  0  0  0  0  0
   -0.6131   -0.5780   30.9106 C   0  0  0  0  0  0  0  0  0  0  0  0
    0.0430    0.6092   30.5475 C   0  0  0  0  0  0  0  0  0  0  0  0
    0.0906    1.0426   29.2180 C   0  0  0  0  0  0  0  0  0  0  0  0
   -0.5116    0.2939   28.2109 C   0  0  0  0  0  0  0  0  0  0  0  0
   -1.1505   -0.8950   28.5268 C   0  0  0  0  0  0  0  0  0  0  0  0
   -1.1938   -1.3091   29.8517 C   0  0  0  0  0  0  0  0  0  0  0  0
   -1.8366   -2.4520   30.1246 F   0  0  0  0  0  0  0  0  0  0  0  0
    1.1592   -4.7445   31.3658 C   0  0  0  0  0  0  0  0  0  0  0  0
    0.5200   -5.5491   30.2036 C   0  0  0  0  0  0  0  0  0  0  0  0
  1  2  1  0
  2  3  2  0
  3  4  1  0
  4  5  2  0
  5  6  1  0
  6  7  1  0
  7  8  1  6
  8  9  2  0
  8 10  1  0
 10 11  1  0
 11 12  1  0
 12 13  1  0
 13 14  1  6
 14 15  2  0
 15 16  1  0
 16 17  2  0
 17 18  1  0
 18 19  2  0
 19 20  1  0
  7 21  1  0
 21 22  1  0
  6  2  1  0
 13 10  1  0
 19 14  1  0
 22  5  1  0
M  END
>  <ref_mols>  (1427) 
B0454a

>  <gnina_score>  (1427) 
5.326

>  <smina_score_min>  (1427) 
-6.258

>  <ref_pdb>  (1427) 
B0454a

>  <inspiration_score>  (1427) 
None

>  <inchikey>  (1427) 
CNDMIRDLNWBKNJ-KBPBESRZSA-N

>  <tags>  (1427) 
BulkDock Fragalysis export,openbind_d68ev3c_c2_elabs_scored,openbind_d68ev3c_c2_elabs_scored_4.5plus,openbind_d68ev3c_c2_elabs,openbind_d68ev3c_c2_elabs_scored_5plus,syndirella_product,openbind_d68ev3c_c2_elabs_scored_top80percent,syndirella_placed

>  <smiles>  (1427) 
Cc1nnc2n1[C@H](C(=O)N1CC[C@H]1c1ccccc1F)CC2

>  <subsites>  (1427) 
None

>  <rmsd(smina/fragmenstein)>  (1427) 
0.784

>  <alias>  (1427) 
None

>  <energy_score>  (1427) 
-14.1836

>  <HIPPO Pose ID>  (1427) 
116882

>  <distance_score>  (1427) 
0.669463

>  <HIPPO Compound ID>  (1427) 
151039

>  <gnina_score_min>  (1427) 
5.129

>  <name>  (1427) 
P116882

>  <exports>  (1427) 
['/opt/xchem-fragalysis-2/maxwin/BulkDock/OUTPUTS/openbind_d68ev3c_c2_elabs_1LOTQJ3.sdf', '/opt/xchem-fragalysis-2/maxwin/BulkDock/OUTPUTS/openbind_d68ev3c_c2_elabs_1LSYI5W.sdf']

$$$$
P116890
     RDKit          3D

 23 25  0  0  0  0  0  0  0  0999 V2000
    1.8443   -4.1395   34.7524 C   0  0  0  0  0  0  0  0  0  0  0  0
    0.7276   -5.1663   34.4405 C   0  0  0  0  0  0  0  0  0  0  0  0
    1.4263   -6.5411   34.6111 C   0  0  0  0  0  0  0  0  0  0  0  0
   -0.3865   -5.1089   35.4979 C   0  0  0  0  0  0  0  0  0  0  0  0
    0.2166   -4.9591   32.9724 C   0  0  2  0  0  0  0  0  0  0  0  0
   -0.9241   -3.9190   32.6250 C   0  0  0  0  0  0  0  0  0  0  0  0
   -1.9520   -4.3202   32.2073 O   0  0  0  0  0  0  0  0  0  0  0  0
   -0.4322   -2.5032   32.8124 N   0  0  0  0  0  0  0  0  0  0  0  0
   -0.7956   -1.9530   34.2265 C   0  0  0  0  0  0  0  0  0  0  0  0
   -0.4422   -0.5887   33.6714 C   0  0  0  0  0  0  0  0  0  0  0  0
   -1.0642   -1.1764   32.4300 C   0  0  1  0  0  0  0  0  0  0  0  0
   -0.7366   -0.7062   30.9710 C   0  0  0  0  0  0  0  0  0  0  0  0
   -1.2160   -1.4538   29.8724 C   0  0  0  0  0  0  0  0  0  0  0  0
   -1.0523   -1.0299   28.5565 C   0  0  0  0  0  0  0  0  0  0  0  0
   -0.3807    0.1554   28.2968 C   0  0  0  0  0  0  0  0  0  0  0  0
    0.1362    0.9026   29.3494 C   0  0  0  0  0  0  0  0  0  0  0  0
   -0.0381    0.4734   30.6679 C   0  0  0  0  0  0  0  0  0  0  0  0
   -0.2056   -6.2137   32.3045 N   0  0  0  0  0  0  0  0  0  0  0  0
   -1.1336   -7.1257   32.6597 C   0  0  0  0  0  0  0  0  0  0  0  0
   -1.3670   -8.0530   31.7838 N   0  0  0  0  0  0  0  0  0  0  0  0
   -0.5742   -7.7069   30.7330 N   0  0  0  0  0  0  0  0  0  0  0  0
    0.1428   -6.5560   31.0270 C   0  0  0  0  0  0  0  0  0  0  0  0
    0.9494   -6.0034   30.2973 O   0  0  0  0  0  0  0  0  0  0  0  0
  1  2  1  0
  2  3  1  0
  2  4  1  0
  5  2  1  1
  5  6  1  0
  6  7  2  0
  6  8  1  0
  8  9  1  0
  9 10  1  0
 10 11  1  0
 11 12  1  6
 12 13  2  0
 13 14  1  0
 14 15  2  0
 15 16  1  0
 16 17  2  0
  5 18  1  0
 18 19  1  0
 19 20  2  0
 20 21  1  0
 21 22  1  0
 22 23  2  0
 11  8  1  0
 17 12  1  0
 22 18  1  0
M  END
>  <ref_mols>  (1428) 
B0454a

>  <gnina_score>  (1428) 
5.311

>  <smina_score_min>  (1428) 
-5.489

>  <ref_pdb>  (1428) 
B0454a

>  <inspiration_score>  (1428) 
None

>  <inchikey>  (1428) 
BLGIMDTXPGPEMI-KBPBESRZSA-N

>  <tags>  (1428) 
BulkDock Fragalysis export,openbind_d68ev3c_c2_elabs_scored,openbind_d68ev3c_c2_elabs_scored_4.5plus,openbind_d68ev3c_c2_elabs,openbind_d68ev3c_c2_elabs_scored_5plus,syndirella_product,openbind_d68ev3c_c2_elabs_scored_top80percent,syndirella_placed

>  <smiles>  (1428) 
CC(C)(C)[C@H](C(=O)N1CC[C@H]1c1ccccc1)n1cn[nH]c1=O

>  <subsites>  (1428) 
None

>  <rmsd(smina/fragmenstein)>  (1428) 
0.709

>  <alias>  (1428) 
None

>  <energy_score>  (1428) 
-29.506663

>  <HIPPO Pose ID>  (1428) 
116890

>  <distance_score>  (1428) 
0.754861

>  <HIPPO Compound ID>  (1428) 
151085

>  <gnina_score_min>  (1428) 
5.141

>  <name>  (1428) 
P116890

>  <exports>  (1428) 
['/opt/xchem-fragalysis-2/maxwin/BulkDock/OUTPUTS/openbind_d68ev3c_c2_elabs_1LOTQJ3.sdf', '/opt/xchem-fragalysis-2/maxwin/BulkDock/OUTPUTS/openbind_d68ev3c_c2_elabs_1LSYI5W.sdf']

$$$$
P116909
     RDKit          3D

 23 25  0  0  0  0  0  0  0  0999 V2000
    0.4066   -7.2017   36.6712 C   0  0  0  0  0  0  0  0  0  0  0  0
    0.5679   -6.1333   35.6028 C   0  0  0  0  0  0  0  0  0  0  0  0
   -0.7526   -5.8584   34.8849 C   0  0  0  0  0  0  0  0  0  0  0  0
   -0.9145   -6.6779   33.6482 C   0  0  0  0  0  0  0  0  0  0  0  0
   -1.5831   -7.8062   33.5478 N   0  0  0  0  0  0  0  0  0  0  0  0
   -1.4789   -8.2641   32.2622 N   0  0  0  0  0  0  0  0  0  0  0  0
   -0.7600   -7.4012   31.6037 C   0  0  0  0  0  0  0  0  0  0  0  0
   -0.2434   -7.6391   29.9984 S   0  0  0  0  0  0  0  0  0  0  0  0
   -0.4282   -6.3513   32.4014 N   0  0  0  0  0  0  0  0  0  0  0  0
    0.2344   -5.1191   32.0348 C   0  0  0  0  0  0  0  0  0  0  0  0
   -0.7506   -3.9596   32.0466 C   0  0  0  0  0  0  0  0  0  0  0  0
   -1.9166   -4.1003   31.9726 O   0  0  0  0  0  0  0  0  0  0  0  0
    0.0731   -2.7048   32.1995 N   0  0  0  0  0  0  0  0  0  0  0  0
    0.3098   -2.3563   33.6991 C   0  0  0  0  0  0  0  0  0  0  0  0
    0.7644   -1.0019   33.2066 C   0  0  0  0  0  0  0  0  0  0  0  0
   -0.3383   -1.2498   32.2027 C   0  0  1  0  0  0  0  0  0  0  0  0
   -0.3804   -0.5778   30.7886 C   0  0  0  0  0  0  0  0  0  0  0  0
   -1.0609   -1.1832   29.7059 C   0  0  0  0  0  0  0  0  0  0  0  0
   -1.2849   -0.5109   28.5034 C   0  0  0  0  0  0  0  0  0  0  0  0
   -0.8419    0.7972   28.3715 C   0  0  0  0  0  0  0  0  0  0  0  0
   -1.3923    1.8637   26.9156 Br  0  0  0  0  0  0  0  0  0  0  0  0
   -0.0799    1.3871   29.3725 C   0  0  0  0  0  0  0  0  0  0  0  0
    0.1490    0.7027   30.5649 C   0  0  0  0  0  0  0  0  0  0  0  0
  1  2  1  0
  2  3  1  0
  3  4  1  0
  4  5  2  0
  5  6  1  0
  6  7  2  0
  7  8  1  0
  7  9  1  0
  9 10  1  0
 10 11  1  0
 11 12  2  0
 11 13  1  0
 13 14  1  0
 14 15  1  0
 15 16  1  0
 16 17  1  6
 17 18  2  0
 18 19  1  0
 19 20  2  0
 20 21  1  0
 20 22  1  0
 22 23  2  0
  9  4  1  0
 16 13  1  0
 23 17  1  0
M  END
>  <ref_mols>  (1429) 
B0454a

>  <gnina_score>  (1429) 
5.685

>  <smina_score_min>  (1429) 
-5.249

>  <ref_pdb>  (1429) 
B0454a

>  <inspiration_score>  (1429) 
None

>  <inchikey>  (1429) 
TZNZGNYJWGAUQX-ZDUSSCGKSA-N

>  <tags>  (1429) 
BulkDock Fragalysis export,openbind_d68ev3c_c2_elabs_scored,openbind_d68ev3c_c2_elabs_scored_4.5plus,openbind_d68ev3c_c2_elabs,openbind_d68ev3c_c2_elabs_scored_5plus,syndirella_product,openbind_d68ev3c_c2_elabs_scored_top80percent,syndirella_placed

>  <smiles>  (1429) 
CCCc1nnc(S)n1CC(=O)N1CC[C@H]1c1ccc(Br)cc1

>  <subsites>  (1429) 
None

>  <rmsd(smina/fragmenstein)>  (1429) 
0.477

>  <alias>  (1429) 
None

>  <energy_score>  (1429) 
-17.4897

>  <HIPPO Pose ID>  (1429) 
116909

>  <distance_score>  (1429) 
0.852597

>  <HIPPO Compound ID>  (1429) 
151102

>  <gnina_score_min>  (1429) 
5.608

>  <name>  (1429) 
P116909

>  <exports>  (1429) 
['/opt/xchem-fragalysis-2/maxwin/BulkDock/OUTPUTS/openbind_d68ev3c_c2_elabs_1LOTQJ3.sdf', '/opt/xchem-fragalysis-2/maxwin/BulkDock/OUTPUTS/openbind_d68ev3c_c2_elabs_1LSYI5W.sdf']

$$$$
P116920
     RDKit          3D

 23 25  0  0  0  0  0  0  0  0999 V2000
    1.6271   -3.3319   34.2683 C   0  0  0  0  0  0  0  0  0  0  0  0
    1.2961   -4.4445   33.2482 C   0  0  0  0  0  0  0  0  0  0  0  0
    1.9182   -4.0559   31.8947 C   0  0  0  0  0  0  0  0  0  0  0  0
    2.0313   -5.6974   33.7839 C   0  0  0  0  0  0  0  0  0  0  0  0
   -0.2535   -4.7406   33.1502 C   0  0  1  0  0  0  0  0  0  0  0  0
   -1.2238   -3.6855   32.5083 C   0  0  0  0  0  0  0  0  0  0  0  0
   -2.1501   -4.0621   31.8900 O   0  0  0  0  0  0  0  0  0  0  0  0
   -0.7884   -2.2975   32.8468 N   0  0  0  0  0  0  0  0  0  0  0  0
   -1.4101   -1.8152   34.1889 C   0  0  0  0  0  0  0  0  0  0  0  0
   -0.9343   -0.4291   33.7687 C   0  0  0  0  0  0  0  0  0  0  0  0
   -1.3432   -0.9553   32.4178 C   0  0  1  0  0  0  0  0  0  0  0  0
   -0.7977   -0.5145   31.0174 C   0  0  0  0  0  0  0  0  0  0  0  0
   -1.2313   -1.2156   29.8628 C   0  0  0  0  0  0  0  0  0  0  0  0
   -0.8616   -0.8465   28.5714 C   0  0  0  0  0  0  0  0  0  0  0  0
   -0.0148    0.2357   28.3952 C   0  0  0  0  0  0  0  0  0  0  0  0
    0.4529    0.9204   29.5083 C   0  0  0  0  0  0  0  0  0  0  0  0
    1.2874    1.9551   29.3413 F   0  0  0  0  0  0  0  0  0  0  0  0
    0.0746    0.5574   30.8008 C   0  0  0  0  0  0  0  0  0  0  0  0
   -0.5267   -6.0427   32.5019 N   0  0  0  0  0  0  0  0  0  0  0  0
   -1.0323   -7.1643   33.0903 C   0  0  0  0  0  0  0  0  0  0  0  0
   -1.2155   -8.0926   32.1768 N   0  0  0  0  0  0  0  0  0  0  0  0
   -0.8374   -7.5774   30.9630 N   0  0  0  0  0  0  0  0  0  0  0  0
   -0.4361   -6.3456   31.1718 C   0  0  0  0  0  0  0  0  0  0  0  0
  1  2  1  0
  2  3  1  0
  2  4  1  0
  5  2  1  6
  5  6  1  0
  6  7  2  0
  6  8  1  0
  8  9  1  0
  9 10  1  0
 10 11  1  0
 11 12  1  6
 12 13  2  0
 13 14  1  0
 14 15  2  0
 15 16  1  0
 16 17  1  0
 16 18  2  0
  5 19  1  0
 19 20  1  0
 20 21  2  0
 21 22  1  0
 22 23  2  0
 11  8  1  0
 18 12  1  0
 23 19  1  0
M  END
>  <ref_mols>  (1430) 
B0454a

>  <gnina_score>  (1430) 
5.256

>  <smina_score_min>  (1430) 
-5.256

>  <ref_pdb>  (1430) 
B0454a

>  <inspiration_score>  (1430) 
None

>  <inchikey>  (1430) 
HMSGUIZKESVWJE-LSDHHAIUSA-N

>  <tags>  (1430) 
BulkDock Fragalysis export,openbind_d68ev3c_c2_elabs_scored,openbind_d68ev3c_c2_elabs_scored_4.5plus,openbind_d68ev3c_c2_elabs,openbind_d68ev3c_c2_elabs_scored_5plus,syndirella_product,openbind_d68ev3c_c2_elabs_scored_top80percent,syndirella_placed

>  <smiles>  (1430) 
CC(C)(C)[C@@H](C(=O)N1CC[C@H]1c1cccc(F)c1)n1cnnc1

>  <subsites>  (1430) 
None

>  <rmsd(smina/fragmenstein)>  (1430) 
0.813

>  <alias>  (1430) 
None

>  <energy_score>  (1430) 
-14.906452

>  <HIPPO Pose ID>  (1430) 
116920

>  <distance_score>  (1430) 
0.957105

>  <HIPPO Compound ID>  (1430) 
151137

>  <gnina_score_min>  (1430) 
5.127

>  <name>  (1430) 
P116920

>  <exports>  (1430) 
['/opt/xchem-fragalysis-2/maxwin/BulkDock/OUTPUTS/openbind_d68ev3c_c2_elabs_1LOTQJ3.sdf', '/opt/xchem-fragalysis-2/maxwin/BulkDock/OUTPUTS/openbind_d68ev3c_c2_elabs_1LSYI5W.sdf']

$$$$
P116924
     RDKit          3D

 23 25  0  0  0  0  0  0  0  0999 V2000
    1.4515   -6.5577   34.5460 C   0  0  0  0  0  0  0  0  0  0  0  0
    0.7763   -5.1746   34.3624 C   0  0  0  0  0  0  0  0  0  0  0  0
    1.9397   -4.1750   34.5895 C   0  0  0  0  0  0  0  0  0  0  0  0
   -0.2867   -5.0590   35.4682 C   0  0  0  0  0  0  0  0  0  0  0  0
    0.1805   -4.9748   32.9180 C   0  0  2  0  0  0  0  0  0  0  0  0
   -0.9204   -3.8810   32.6418 C   0  0  0  0  0  0  0  0  0  0  0  0
   -1.9940   -4.2380   32.3121 O   0  0  0  0  0  0  0  0  0  0  0  0
   -0.3490   -2.4877   32.7630 N   0  0  0  0  0  0  0  0  0  0  0  0
   -0.5765   -1.8970   34.1913 C   0  0  0  0  0  0  0  0  0  0  0  0
   -0.2106   -0.5597   33.5880 C   0  0  0  0  0  0  0  0  0  0  0  0
   -0.9463   -1.1359   32.4026 C   0  0  1  0  0  0  0  0  0  0  0  0
   -0.6861   -0.6830   30.9250 C   0  0  0  0  0  0  0  0  0  0  0  0
   -0.0031    0.4940   30.5759 C   0  0  0  0  0  0  0  0  0  0  0  0
    0.1067    0.9079   29.2447 C   0  0  0  0  0  0  0  0  0  0  0  0
   -0.4601    0.1495   28.2248 C   0  0  0  0  0  0  0  0  0  0  0  0
   -1.1178   -1.0329   28.5295 C   0  0  0  0  0  0  0  0  0  0  0  0
   -1.2164   -1.4314   29.8551 C   0  0  0  0  0  0  0  0  0  0  0  0
   -1.8789   -2.5644   30.1251 F   0  0  0  0  0  0  0  0  0  0  0  0
   -0.2752   -6.2123   32.2512 N   0  0  0  0  0  0  0  0  0  0  0  0
   -0.0802   -6.5097   30.9303 C   0  0  0  0  0  0  0  0  0  0  0  0
   -0.7018   -7.6250   30.6243 N   0  0  0  0  0  0  0  0  0  0  0  0
   -1.3512   -8.0547   31.7524 N   0  0  0  0  0  0  0  0  0  0  0  0
   -1.1112   -7.1859   32.7095 C   0  0  0  0  0  0  0  0  0  0  0  0
  1  2  1  0
  2  3  1  0
  2  4  1  0
  5  2  1  1
  5  6  1  0
  6  7  2  0
  6  8  1  0
  8  9  1  0
  9 10  1  0
 10 11  1  0
 11 12  1  6
 12 13  2  0
 13 14  1  0
 14 15  2  0
 15 16  1  0
 16 17  2  0
 17 18  1  0
  5 19  1  0
 19 20  1  0
 20 21  2  0
 21 22  1  0
 22 23  2  0
 11  8  1  0
 17 12  1  0
 23 19  1  0
M  END
>  <ref_mols>  (1431) 
B0454a

>  <gnina_score>  (1431) 
5.311

>  <smina_score_min>  (1431) 
-5.932

>  <ref_pdb>  (1431) 
B0454a

>  <inspiration_score>  (1431) 
None

>  <inchikey>  (1431) 
FRWNTMPJIYABGZ-GJZGRUSLSA-N

>  <tags>  (1431) 
BulkDock Fragalysis export,openbind_d68ev3c_c2_elabs_scored,openbind_d68ev3c_c2_elabs_scored_4.5plus,openbind_d68ev3c_c2_elabs,openbind_d68ev3c_c2_elabs_scored_5plus,syndirella_product,openbind_d68ev3c_c2_elabs_scored_top80percent,syndirella_placed

>  <smiles>  (1431) 
CC(C)(C)[C@H](C(=O)N1CC[C@H]1c1ccccc1F)n1cnnc1

>  <subsites>  (1431) 
None

>  <rmsd(smina/fragmenstein)>  (1431) 
0.841

>  <alias>  (1431) 
None

>  <energy_score>  (1431) 
-5.170651

>  <HIPPO Pose ID>  (1431) 
116924

>  <distance_score>  (1431) 
0.716636

>  <HIPPO Compound ID>  (1431) 
151144

>  <gnina_score_min>  (1431) 
5.198

>  <name>  (1431) 
P116924

>  <exports>  (1431) 
['/opt/xchem-fragalysis-2/maxwin/BulkDock/OUTPUTS/openbind_d68ev3c_c2_elabs_1LOTQJ3.sdf', '/opt/xchem-fragalysis-2/maxwin/BulkDock/OUTPUTS/openbind_d68ev3c_c2_elabs_1LSYI5W.sdf']

$$$$
P116930
     RDKit          3D

 23 25  0  0  0  0  0  0  0  0999 V2000
    1.5737   -3.6085   28.8305 C   0  0  0  0  0  0  0  0  0  0  0  0
    0.4981   -4.2309   29.7109 C   0  0  0  0  0  0  0  0  0  0  0  0
    0.9890   -5.5374   30.3121 C   0  0  0  0  0  0  0  0  0  0  0  0
    0.0119   -6.2701   31.1720 C   0  0  0  0  0  0  0  0  0  0  0  0
   -0.5773   -7.4178   30.8875 N   0  0  0  0  0  0  0  0  0  0  0  0
   -1.1471   -7.9032   32.0443 N   0  0  0  0  0  0  0  0  0  0  0  0
   -0.9127   -7.0320   32.9971 C   0  0  0  0  0  0  0  0  0  0  0  0
   -1.2288   -7.2508   34.6784 S   0  0  0  0  0  0  0  0  0  0  0  0
   -0.2926   -5.9340   32.4736 N   0  0  0  0  0  0  0  0  0  0  0  0
   -0.0460   -4.6521   33.1058 C   0  0  0  0  0  0  0  0  0  0  0  0
   -1.1055   -3.6429   32.6799 C   0  0  0  0  0  0  0  0  0  0  0  0
   -2.1644   -3.9637   32.2811 O   0  0  0  0  0  0  0  0  0  0  0  0
   -0.5051   -2.2703   32.8589 N   0  0  0  0  0  0  0  0  0  0  0  0
   -0.8002   -1.7001   34.2726 C   0  0  0  0  0  0  0  0  0  0  0  0
   -0.3458   -0.3654   33.7162 C   0  0  0  0  0  0  0  0  0  0  0  0
   -1.0424   -0.8965   32.4866 C   0  0  1  0  0  0  0  0  0  0  0  0
   -0.7067   -0.4671   31.0137 C   0  0  0  0  0  0  0  0  0  0  0  0
    0.1086    0.6210   30.6710 C   0  0  0  0  0  0  0  0  0  0  0  0
    0.3013    0.9960   29.3360 C   0  0  0  0  0  0  0  0  0  0  0  0
   -0.3091    0.2852   28.3052 C   0  0  0  0  0  0  0  0  0  0  0  0
   -1.1039   -0.8099   28.6031 C   0  0  0  0  0  0  0  0  0  0  0  0
   -1.2874   -1.1646   29.9333 C   0  0  0  0  0  0  0  0  0  0  0  0
   -2.0628   -2.2235   30.1997 F   0  0  0  0  0  0  0  0  0  0  0  0
  1  2  1  0
  2  3  1  0
  3  4  1  0
  4  5  2  0
  5  6  1  0
  6  7  2  0
  7  8  1  0
  7  9  1  0
  9 10  1  0
 10 11  1  0
 11 12  2  0
 11 13  1  0
 13 14  1  0
 14 15  1  0
 15 16  1  0
 16 17  1  6
 17 18  2  0
 18 19  1  0
 19 20  2  0
 20 21  1  0
 21 22  2  0
 22 23  1  0
  9  4  1  0
 16 13  1  0
 22 17  1  0
M  END
>  <ref_mols>  (1432) 
B0454a

>  <gnina_score>  (1432) 
5.6

>  <smina_score_min>  (1432) 
-4.895

>  <ref_pdb>  (1432) 
B0454a

>  <inspiration_score>  (1432) 
None

>  <inchikey>  (1432) 
XGLJITZDIJLPQR-ZDUSSCGKSA-N

>  <tags>  (1432) 
BulkDock Fragalysis export,openbind_d68ev3c_c2_elabs_scored,openbind_d68ev3c_c2_elabs_scored_4.5plus,openbind_d68ev3c_c2_elabs,openbind_d68ev3c_c2_elabs_scored_5plus,syndirella_product,openbind_d68ev3c_c2_elabs_scored_top80percent,syndirella_placed

>  <smiles>  (1432) 
CCCc1nnc(S)n1CC(=O)N1CC[C@H]1c1ccccc1F

>  <subsites>  (1432) 
None

>  <rmsd(smina/fragmenstein)>  (1432) 
0.753

>  <alias>  (1432) 
None

>  <energy_score>  (1432) 
-8.306256

>  <HIPPO Pose ID>  (1432) 
116930

>  <distance_score>  (1432) 
0.912451

>  <HIPPO Compound ID>  (1432) 
151182

>  <gnina_score_min>  (1432) 
5.459

>  <name>  (1432) 
P116930

>  <exports>  (1432) 
['/opt/xchem-fragalysis-2/maxwin/BulkDock/OUTPUTS/openbind_d68ev3c_c2_elabs_1LOTQJ3.sdf', '/opt/xchem-fragalysis-2/maxwin/BulkDock/OUTPUTS/openbind_d68ev3c_c2_elabs_1LSYI5W.sdf']

$$$$
P116938
     RDKit          3D

 23 25  0  0  0  0  0  0  0  0999 V2000
    2.0004   -3.9780   34.3204 C   0  0  0  0  0  0  0  0  0  0  0  0
    0.9478   -5.0925   34.1126 C   0  0  0  0  0  0  0  0  0  0  0  0
   -0.1163   -4.9990   35.2224 C   0  0  0  0  0  0  0  0  0  0  0  0
    1.7280   -6.4055   34.3386 C   0  0  0  0  0  0  0  0  0  0  0  0
    0.3482   -4.9991   32.6536 C   0  0  2  0  0  0  0  0  0  0  0  0
   -0.8764   -4.0647   32.4628 C   0  0  0  0  0  0  0  0  0  0  0  0
   -1.9360   -4.5427   32.6001 O   0  0  0  0  0  0  0  0  0  0  0  0
   -0.4864   -2.6915   32.0286 N   0  0  0  0  0  0  0  0  0  0  0  0
   -0.3550   -1.7156   33.2538 C   0  0  0  0  0  0  0  0  0  0  0  0
   -1.6373   -1.0540   32.9166 C   0  0  0  0  0  0  0  0  0  0  0  0
   -1.3311   -1.5327   31.5380 C   0  0  1  0  0  0  0  0  0  0  0  0
   -0.7724   -0.6398   30.3969 C   0  0  0  0  0  0  0  0  0  0  0  0
    0.0097    0.5057   30.6132 C   0  0  0  0  0  0  0  0  0  0  0  0
    0.3208    1.3769   29.5707 C   0  0  0  0  0  0  0  0  0  0  0  0
   -0.1460    1.1186   28.2880 C   0  0  0  0  0  0  0  0  0  0  0  0
    0.1395    2.2809   27.0545 Cl  0  0  0  0  0  0  0  0  0  0  0  0
   -0.8623   -0.0386   28.0248 C   0  0  0  0  0  0  0  0  0  0  0  0
   -1.1465   -0.9171   29.0650 C   0  0  0  0  0  0  0  0  0  0  0  0
   -0.0661   -6.2831   32.0525 N   0  0  0  0  0  0  0  0  0  0  0  0
    0.0388   -6.5786   30.7218 C   0  0  0  0  0  0  0  0  0  0  0  0
   -0.6250   -7.6775   30.4496 N   0  0  0  0  0  0  0  0  0  0  0  0
   -1.2120   -8.1022   31.6128 N   0  0  0  0  0  0  0  0  0  0  0  0
   -0.8920   -7.2473   32.5586 C   0  0  0  0  0  0  0  0  0  0  0  0
  1  2  1  0
  2  3  1  0
  2  4  1  0
  5  2  1  1
  5  6  1  0
  6  7  2  0
  6  8  1  0
  8  9  1  0
  9 10  1  0
 10 11  1  0
 11 12  1  6
 12 13  2  0
 13 14  1  0
 14 15  2  0
 15 16  1  0
 15 17  1  0
 17 18  2  0
  5 19  1  0
 19 20  1  0
 20 21  2  0
 21 22  1  0
 22 23  2  0
 11  8  1  0
 18 12  1  0
 23 19  1  0
M  END
>  <ref_mols>  (1433) 
B0454a

>  <gnina_score>  (1433) 
5.282

>  <smina_score_min>  (1433) 
-6.071

>  <ref_pdb>  (1433) 
B0454a

>  <inspiration_score>  (1433) 
None

>  <inchikey>  (1433) 
NVXDTNGBFXYDGI-GJZGRUSLSA-N

>  <tags>  (1433) 
BulkDock Fragalysis export,openbind_d68ev3c_c2_elabs_scored,openbind_d68ev3c_c2_elabs_scored_4.5plus,openbind_d68ev3c_c2_elabs,openbind_d68ev3c_c2_elabs_scored_5plus,syndirella_product,openbind_d68ev3c_c2_elabs_scored_top80percent,syndirella_placed

>  <smiles>  (1433) 
CC(C)(C)[C@H](C(=O)N1CC[C@H]1c1ccc(Cl)cc1)n1cnnc1

>  <subsites>  (1433) 
None

>  <rmsd(smina/fragmenstein)>  (1433) 
1.733

>  <alias>  (1433) 
None

>  <energy_score>  (1433) 
-4.435124

>  <HIPPO Pose ID>  (1433) 
116938

>  <distance_score>  (1433) 
1.01912

>  <HIPPO Compound ID>  (1433) 
151199

>  <gnina_score_min>  (1433) 
5.144

>  <name>  (1433) 
P116938

>  <exports>  (1433) 
['/opt/xchem-fragalysis-2/maxwin/BulkDock/OUTPUTS/openbind_d68ev3c_c2_elabs_1LOTQJ3.sdf', '/opt/xchem-fragalysis-2/maxwin/BulkDock/OUTPUTS/openbind_d68ev3c_c2_elabs_1LSYI5W.sdf']

$$$$
P116942
     RDKit          3D

 23 25  0  0  0  0  0  0  0  0999 V2000
    1.8592   -4.1828   34.6287 C   0  0  0  0  0  0  0  0  0  0  0  0
    0.7571   -5.2394   34.3554 C   0  0  0  0  0  0  0  0  0  0  0  0
   -0.3107   -5.2414   35.4631 C   0  0  0  0  0  0  0  0  0  0  0  0
    1.5188   -6.5830   34.4831 C   0  0  0  0  0  0  0  0  0  0  0  0
    0.1566   -5.0316   32.9131 C   0  0  2  0  0  0  0  0  0  0  0  0
   -0.9476   -3.9389   32.6234 C   0  0  0  0  0  0  0  0  0  0  0  0
   -1.9772   -4.2884   32.1706 O   0  0  0  0  0  0  0  0  0  0  0  0
   -0.4281   -2.5546   32.9041 N   0  0  0  0  0  0  0  0  0  0  0  0
   -0.7982   -2.0841   34.3516 C   0  0  0  0  0  0  0  0  0  0  0  0
   -0.4117   -0.6987   33.8873 C   0  0  0  0  0  0  0  0  0  0  0  0
   -1.0218   -1.1989   32.6007 C   0  0  1  0  0  0  0  0  0  0  0  0
   -0.6790   -0.6080   31.1878 C   0  0  0  0  0  0  0  0  0  0  0  0
    0.0465    0.5822   31.0272 C   0  0  0  0  0  0  0  0  0  0  0  0
    0.1137    1.2318   29.7967 C   0  0  0  0  0  0  0  0  0  0  0  0
   -0.5411    0.6959   28.6948 C   0  0  0  0  0  0  0  0  0  0  0  0
   -0.7138    1.7758   27.1620 Br  0  0  0  0  0  0  0  0  0  0  0  0
   -1.1521   -0.5475   28.7734 C   0  0  0  0  0  0  0  0  0  0  0  0
   -1.2123   -1.1905   30.0124 C   0  0  0  0  0  0  0  0  0  0  0  0
   -0.2859   -6.2696   32.2389 N   0  0  0  0  0  0  0  0  0  0  0  0
   -1.1231   -7.2470   32.6856 C   0  0  0  0  0  0  0  0  0  0  0  0
   -1.3696   -8.0997   31.7159 N   0  0  0  0  0  0  0  0  0  0  0  0
   -0.7144   -7.6612   30.5950 N   0  0  0  0  0  0  0  0  0  0  0  0
   -0.0826   -6.5567   30.9169 C   0  0  0  0  0  0  0  0  0  0  0  0
  1  2  1  0
  2  3  1  0
  2  4  1  0
  5  2  1  1
  5  6  1  0
  6  7  2  0
  6  8  1  0
  8  9  1  0
  9 10  1  0
 10 11  1  0
 11 12  1  6
 12 13  2  0
 13 14  1  0
 14 15  2  0
 15 16  1  0
 15 17  1  0
 17 18  2  0
  5 19  1  0
 19 20  1  0
 20 21  2  0
 21 22  1  0
 22 23  2  0
 11  8  1  0
 18 12  1  0
 23 19  1  0
M  END
>  <ref_mols>  (1434) 
B0454a

>  <gnina_score>  (1434) 
5.37

>  <smina_score_min>  (1434) 
-5.376

>  <ref_pdb>  (1434) 
B0454a

>  <inspiration_score>  (1434) 
None

>  <inchikey>  (1434) 
LWGHZQMFOROCNG-GJZGRUSLSA-N

>  <tags>  (1434) 
BulkDock Fragalysis export,openbind_d68ev3c_c2_elabs_scored,openbind_d68ev3c_c2_elabs_scored_4.5plus,openbind_d68ev3c_c2_elabs,openbind_d68ev3c_c2_elabs_scored_5plus,syndirella_product,openbind_d68ev3c_c2_elabs_scored_top80percent,syndirella_placed

>  <smiles>  (1434) 
CC(C)(C)[C@H](C(=O)N1CC[C@H]1c1ccc(Br)cc1)n1cnnc1

>  <subsites>  (1434) 
None

>  <rmsd(smina/fragmenstein)>  (1434) 
0.422

>  <alias>  (1434) 
None

>  <energy_score>  (1434) 
-32.968178

>  <HIPPO Pose ID>  (1434) 
116942

>  <distance_score>  (1434) 
0.836169

>  <HIPPO Compound ID>  (1434) 
151202

>  <gnina_score_min>  (1434) 
5.191

>  <name>  (1434) 
P116942

>  <exports>  (1434) 
['/opt/xchem-fragalysis-2/maxwin/BulkDock/OUTPUTS/openbind_d68ev3c_c2_elabs_1LOTQJ3.sdf', '/opt/xchem-fragalysis-2/maxwin/BulkDock/OUTPUTS/openbind_d68ev3c_c2_elabs_1LSYI5W.sdf']

$$$$
P116945
     RDKit          3D

 23 25  0  0  0  0  0  0  0  0999 V2000
   -0.8339    0.6411   34.3479 C   0  0  0  0  0  0  0  0  0  0  0  0
   -0.2416   -0.5706   33.6601 C   0  0  1  0  0  0  0  0  0  0  0  0
   -0.6553   -1.9233   34.2212 C   0  0  0  0  0  0  0  0  0  0  0  0
   -0.3811   -2.4755   32.7858 N   0  0  0  0  0  0  0  0  0  0  0  0
   -0.9485   -3.8619   32.6080 C   0  0  0  0  0  0  0  0  0  0  0  0
   -2.0108   -4.2079   32.2332 O   0  0  0  0  0  0  0  0  0  0  0  0
    0.1494   -4.9624   32.8933 C   0  0  2  0  0  0  0  0  0  0  0  0
   -0.3033   -6.2011   32.2276 N   0  0  0  0  0  0  0  0  0  0  0  0
   -1.1371   -7.1759   32.6858 C   0  0  0  0  0  0  0  0  0  0  0  0
   -1.3749   -8.0453   31.7288 N   0  0  0  0  0  0  0  0  0  0  0  0
   -0.7172   -7.6203   30.6039 N   0  0  0  0  0  0  0  0  0  0  0  0
   -0.0925   -6.5073   30.9114 C   0  0  0  0  0  0  0  0  0  0  0  0
    0.7509   -5.1653   34.3352 C   0  0  0  0  0  0  0  0  0  0  0  0
    1.4523   -6.5388   34.4989 C   0  0  0  0  0  0  0  0  0  0  0  0
    1.8986   -4.1498   34.5729 C   0  0  0  0  0  0  0  0  0  0  0  0
   -0.3117   -5.0853   35.4446 C   0  0  0  0  0  0  0  0  0  0  0  0
   -0.9647   -1.1138   32.4430 C   0  0  2  0  0  0  0  0  0  0  0  0
   -0.6791   -0.6669   30.9660 C   0  0  0  0  0  0  0  0  0  0  0  0
    0.0398    0.4891   30.6241 C   0  0  0  0  0  0  0  0  0  0  0  0
    0.1810    0.8960   29.2948 C   0  0  0  0  0  0  0  0  0  0  0  0
   -0.3887    0.1487   28.2698 C   0  0  0  0  0  0  0  0  0  0  0  0
   -1.0834   -1.0143   28.5663 C   0  0  0  0  0  0  0  0  0  0  0  0
   -1.2181   -1.4135   29.8932 C   0  0  0  0  0  0  0  0  0  0  0  0
  2  1  1  1
  2  3  1  0
  3  4  1  0
  4  5  1  0
  5  6  2  0
  5  7  1  0
  7  8  1  0
  8  9  1  0
  9 10  2  0
 10 11  1  0
 11 12  2  0
  7 13  1  1
 13 14  1  0
 13 15  1  0
 13 16  1  0
  4 17  1  0
 17 18  1  6
 18 19  2  0
 19 20  1  0
 20 21  2  0
 21 22  1  0
 22 23  2  0
 17  2  1  0
 23 18  1  0
 12  8  1  0
M  END
>  <ref_mols>  (1435) 
B0454a

>  <gnina_score>  (1435) 
5.171

>  <smina_score_min>  (1435) 
-5.621

>  <ref_pdb>  (1435) 
B0454a

>  <inspiration_score>  (1435) 
None

>  <inchikey>  (1435) 
IFVHHVVPRYWIIV-BPUTZDHNSA-N

>  <tags>  (1435) 
BulkDock Fragalysis export,openbind_d68ev3c_c2_elabs_scored,openbind_d68ev3c_c2_elabs_scored_4.5plus,openbind_d68ev3c_c2_elabs,openbind_d68ev3c_c2_elabs_scored_5plus,syndirella_product,openbind_d68ev3c_c2_elabs_scored_top80percent,syndirella_placed

>  <smiles>  (1435) 
C[C@H]1CN(C(=O)[C@H](n2cnnc2)C(C)(C)C)[C@@H]1c1ccccc1

>  <subsites>  (1435) 
None

>  <rmsd(smina/fragmenstein)>  (1435) 
0.742

>  <alias>  (1435) 
None

>  <energy_score>  (1435) 
-10.740273

>  <HIPPO Pose ID>  (1435) 
116945

>  <distance_score>  (1435) 
0.734634

>  <HIPPO Compound ID>  (1435) 
151203

>  <gnina_score_min>  (1435) 
5.109

>  <name>  (1435) 
P116945

>  <exports>  (1435) 
['/opt/xchem-fragalysis-2/maxwin/BulkDock/OUTPUTS/openbind_d68ev3c_c2_elabs_1LOTQJ3.sdf', '/opt/xchem-fragalysis-2/maxwin/BulkDock/OUTPUTS/openbind_d68ev3c_c2_elabs_1LSYI5W.sdf']

$$$$
P116956
     RDKit          3D

 24 26  0  0  0  0  0  0  0  0999 V2000
    1.0022   -0.2759   33.8820 C   0  0  0  0  0  0  0  0  0  0  0  0
   -0.4581   -0.6891   33.7705 C   0  0  2  0  0  0  0  0  0  0  0  0
   -0.8120   -2.0894   34.2634 C   0  0  0  0  0  0  0  0  0  0  0  0
   -0.4063   -2.5964   32.8437 N   0  0  0  0  0  0  0  0  0  0  0  0
   -0.8938   -4.0038   32.5976 C   0  0  0  0  0  0  0  0  0  0  0  0
   -1.9091   -4.3894   32.1367 O   0  0  0  0  0  0  0  0  0  0  0  0
    0.2327   -5.0739   32.9443 C   0  0  2  0  0  0  0  0  0  0  0  0
   -0.3053   -6.3756   32.4671 N   0  0  0  0  0  0  0  0  0  0  0  0
   -0.3285   -6.7875   31.1789 C   0  0  0  0  0  0  0  0  0  0  0  0
   -1.0830   -7.8099   30.9204 N   0  0  0  0  0  0  0  0  0  0  0  0
   -1.6305   -8.1033   32.1365 N   0  0  0  0  0  0  0  0  0  0  0  0
   -1.2295   -7.1721   33.0928 C   0  0  0  0  0  0  0  0  0  0  0  0
   -1.6750   -7.0895   34.2232 O   0  0  0  0  0  0  0  0  0  0  0  0
    0.9357   -5.1419   34.3480 C   0  0  0  0  0  0  0  0  0  0  0  0
    1.7149   -6.4716   34.5123 C   0  0  0  0  0  0  0  0  0  0  0  0
   -0.0276   -5.0319   35.5438 C   0  0  0  0  0  0  0  0  0  0  0  0
    2.0417   -4.0603   34.4358 C   0  0  0  0  0  0  0  0  0  0  0  0
   -1.0265   -1.2528   32.4826 C   0  0  2  0  0  0  0  0  0  0  0  0
   -0.7167   -0.7644   31.0186 C   0  0  0  0  0  0  0  0  0  0  0  0
   -0.0843    0.4467   30.6973 C   0  0  0  0  0  0  0  0  0  0  0  0
    0.0634    0.8736   29.3732 C   0  0  0  0  0  0  0  0  0  0  0  0
   -0.4250    0.0982   28.3285 C   0  0  0  0  0  0  0  0  0  0  0  0
   -1.0454   -1.1106   28.6026 C   0  0  0  0  0  0  0  0  0  0  0  0
   -1.1779   -1.5326   29.9236 C   0  0  0  0  0  0  0  0  0  0  0  0
  2  1  1  6
  2  3  1  0
  3  4  1  0
  4  5  1  0
  5  6  2  0
  5  7  1  0
  7  8  1  0
  8  9  1  0
  9 10  2  0
 10 11  1  0
 11 12  1  0
 12 13  2  0
  7 14  1  1
 14 15  1  0
 14 16  1  0
 14 17  1  0
  4 18  1  0
 18 19  1  6
 19 20  2  0
 20 21  1  0
 21 22  2  0
 22 23  1  0
 23 24  2  0
 18  2  1  0
 24 19  1  0
 12  8  1  0
M  END
>  <ref_mols>  (1436) 
B0454a

>  <gnina_score>  (1436) 
5.402

>  <smina_score_min>  (1436) 
-5.805

>  <ref_pdb>  (1436) 
B0454a

>  <inspiration_score>  (1436) 
None

>  <inchikey>  (1436) 
DGGZPYKTGZAVEZ-SNPRPXQTSA-N

>  <tags>  (1436) 
BulkDock Fragalysis export,openbind_d68ev3c_c2_elabs_scored,openbind_d68ev3c_c2_elabs_scored_4.5plus,openbind_d68ev3c_c2_elabs,openbind_d68ev3c_c2_elabs_scored_5plus,syndirella_product,openbind_d68ev3c_c2_elabs_scored_top80percent,syndirella_placed

>  <smiles>  (1436) 
C[C@@H]1CN(C(=O)[C@H](n2cn[nH]c2=O)C(C)(C)C)[C@@H]1c1ccccc1

>  <subsites>  (1436) 
None

>  <rmsd(smina/fragmenstein)>  (1436) 
0.558

>  <alias>  (1436) 
None

>  <energy_score>  (1436) 
-30.340352

>  <HIPPO Pose ID>  (1436) 
116956

>  <distance_score>  (1436) 
0.641254

>  <HIPPO Compound ID>  (1436) 
151226

>  <gnina_score_min>  (1436) 
5.269

>  <name>  (1436) 
P116956

>  <exports>  (1436) 
['/opt/xchem-fragalysis-2/maxwin/BulkDock/OUTPUTS/openbind_d68ev3c_c2_elabs_1LOTQJ3.sdf', '/opt/xchem-fragalysis-2/maxwin/BulkDock/OUTPUTS/openbind_d68ev3c_c2_elabs_1LSYI5W.sdf']

$$$$
P116960
     RDKit          3D

 24 26  0  0  0  0  0  0  0  0999 V2000
    1.8031   -4.1951   34.8249 C   0  0  0  0  0  0  0  0  0  0  0  0
    0.7359   -5.2622   34.4750 C   0  0  0  0  0  0  0  0  0  0  0  0
    1.4969   -6.6058   34.6138 C   0  0  0  0  0  0  0  0  0  0  0  0
   -0.3871   -5.2899   35.5243 C   0  0  0  0  0  0  0  0  0  0  0  0
    0.2303   -5.0459   33.0061 C   0  0  2  0  0  0  0  0  0  0  0  0
   -0.9128   -4.0115   32.6528 C   0  0  0  0  0  0  0  0  0  0  0  0
   -1.9059   -4.4091   32.1569 O   0  0  0  0  0  0  0  0  0  0  0  0
   -0.4659   -2.6013   32.9444 N   0  0  0  0  0  0  0  0  0  0  0  0
   -0.9207   -2.1375   34.3680 C   0  0  0  0  0  0  0  0  0  0  0  0
   -0.5761   -0.7398   33.9118 C   0  0  0  0  0  0  0  0  0  0  0  0
   -1.1034   -1.2748   32.6021 C   0  0  1  0  0  0  0  0  0  0  0  0
   -0.7226   -0.6651   31.2059 C   0  0  0  0  0  0  0  0  0  0  0  0
    0.0010    0.5308   31.0787 C   0  0  0  0  0  0  0  0  0  0  0  0
    0.1041    1.1925   29.8570 C   0  0  0  0  0  0  0  0  0  0  0  0
   -0.5138    0.6647   28.7305 C   0  0  0  0  0  0  0  0  0  0  0  0
   -0.6305    1.7550   27.1998 Br  0  0  0  0  0  0  0  0  0  0  0  0
   -1.1230   -0.5812   28.7790 C   0  0  0  0  0  0  0  0  0  0  0  0
   -1.2156   -1.2381   30.0090 C   0  0  0  0  0  0  0  0  0  0  0  0
   -0.1822   -6.2950   32.3240 N   0  0  0  0  0  0  0  0  0  0  0  0
   -1.1186   -7.2070   32.6571 C   0  0  0  0  0  0  0  0  0  0  0  0
   -1.3642   -8.1071   31.7564 N   0  0  0  0  0  0  0  0  0  0  0  0
   -0.5737   -7.7380   30.7121 N   0  0  0  0  0  0  0  0  0  0  0  0
    0.1481   -6.5979   31.0314 C   0  0  0  0  0  0  0  0  0  0  0  0
    0.9417   -6.0204   30.3066 O   0  0  0  0  0  0  0  0  0  0  0  0
  1  2  1  0
  2  3  1  0
  2  4  1  0
  5  2  1  1
  5  6  1  0
  6  7  2  0
  6  8  1  0
  8  9  1  0
  9 10  1  0
 10 11  1  0
 11 12  1  6
 12 13  2  0
 13 14  1  0
 14 15  2  0
 15 16  1  0
 15 17  1  0
 17 18  2  0
  5 19  1  0
 19 20  1  0
 20 21  2  0
 21 22  1  0
 22 23  1  0
 23 24  2  0
 11  8  1  0
 18 12  1  0
 23 19  1  0
M  END
>  <ref_mols>  (1437) 
B0454a

>  <gnina_score>  (1437) 
5.612

>  <smina_score_min>  (1437) 
-5.486

>  <ref_pdb>  (1437) 
B0454a

>  <inspiration_score>  (1437) 
None

>  <inchikey>  (1437) 
LKAFGXLROFNHBV-KBPBESRZSA-N

>  <tags>  (1437) 
BulkDock Fragalysis export,openbind_d68ev3c_c2_elabs_scored,openbind_d68ev3c_c2_elabs_scored_4.5plus,openbind_d68ev3c_c2_elabs,openbind_d68ev3c_c2_elabs_scored_5plus,syndirella_product,openbind_d68ev3c_c2_elabs_scored_top80percent,syndirella_placed

>  <smiles>  (1437) 
CC(C)(C)[C@H](C(=O)N1CC[C@H]1c1ccc(Br)cc1)n1cn[nH]c1=O

>  <subsites>  (1437) 
None

>  <rmsd(smina/fragmenstein)>  (1437) 
0.606

>  <alias>  (1437) 
None

>  <energy_score>  (1437) 
-30.4323

>  <HIPPO Pose ID>  (1437) 
116960

>  <distance_score>  (1437) 
0.853759

>  <HIPPO Compound ID>  (1437) 
151232

>  <gnina_score_min>  (1437) 
5.262

>  <name>  (1437) 
P116960

>  <exports>  (1437) 
['/opt/xchem-fragalysis-2/maxwin/BulkDock/OUTPUTS/openbind_d68ev3c_c2_elabs_1LOTQJ3.sdf', '/opt/xchem-fragalysis-2/maxwin/BulkDock/OUTPUTS/openbind_d68ev3c_c2_elabs_1LSYI5W.sdf']

$$$$
P116972
     RDKit          3D

 24 27  0  0  0  0  0  0  0  0999 V2000
   -1.9564   -3.8968   31.9971 O   0  0  0  0  0  0  0  0  0  0  0  0
   -1.0068   -3.5104   32.5657 C   0  0  0  0  0  0  0  0  0  0  0  0
    0.1795   -4.4035   32.9050 C   0  0  0  0  0  0  0  0  0  0  0  0
   -0.2277   -5.7877   32.8305 N   0  0  0  0  0  0  0  0  0  0  0  0
   -0.3375   -6.5167   31.6825 C   0  0  0  0  0  0  0  0  0  0  0  0
    0.2854   -5.9738   30.1826 S   0  0  0  0  0  0  0  0  0  0  0  0
   -0.9670   -7.6387   31.9081 N   0  0  0  0  0  0  0  0  0  0  0  0
   -1.1916   -7.6941   33.2671 N   0  0  0  0  0  0  0  0  0  0  0  0
   -0.7166   -6.5926   33.8284 C   0  0  0  0  0  0  0  0  0  0  0  0
   -0.5895   -6.3914   35.2494 C   0  0  0  0  0  0  0  0  0  0  0  0
   -0.3772   -7.3972   36.1687 C   0  0  0  0  0  0  0  0  0  0  0  0
   -0.0554   -6.9127   37.4696 C   0  0  0  0  0  0  0  0  0  0  0  0
   -0.2009   -5.5497   37.5535 C   0  0  0  0  0  0  0  0  0  0  0  0
   -0.6664   -4.8783   36.0568 S   0  0  0  0  0  0  0  0  0  0  0  0
   -0.6190   -2.0659   33.0261 N   0  0  0  0  0  0  0  0  0  0  0  0
   -1.2580   -0.8353   32.8008 N   0  0  0  0  0  0  0  0  0  0  0  0
   -0.2334    0.2163   32.4823 C   0  0  0  0  0  0  0  0  0  0  0  0
   -0.0845    0.1865   30.9957 C   0  0  0  0  0  0  0  0  0  0  0  0
    0.8721    0.7734   30.1974 C   0  0  0  0  0  0  0  0  0  0  0  0
    0.7554    0.6128   28.8170 C   0  0  0  0  0  0  0  0  0  0  0  0
   -0.2938   -0.1381   28.2672 C   0  0  0  0  0  0  0  0  0  0  0  0
   -1.2527   -0.7307   29.0807 C   0  0  0  0  0  0  0  0  0  0  0  0
   -1.1455   -0.5317   30.4415 C   0  0  0  0  0  0  0  0  0  0  0  0
   -2.0786   -0.8987   31.5424 C   0  0  0  0  0  0  0  0  0  0  0  0
  1  2  2  0
  2  3  1  0
  3  4  1  0
  4  5  1  0
  5  6  1  0
  5  7  2  0
  7  8  1  0
  8  9  2  0
  9 10  1  0
 10 11  2  0
 11 12  1  0
 12 13  2  0
 13 14  1  0
  2 15  1  0
 15 16  1  0
 16 17  1  0
 17 18  1  0
 18 19  2  0
 19 20  1  0
 20 21  2  0
 21 22  1  0
 22 23  2  0
 23 24  1  0
  9  4  1  0
 14 10  1  0
 24 16  1  0
 23 18  1  0
M  END
>  <ref_mols>  (1438) 
B0454a

>  <gnina_score>  (1438) 
5.387

>  <smina_score_min>  (1438) 
-5.47

>  <ref_pdb>  (1438) 
B0454a

>  <inspiration_score>  (1438) 
None

>  <inchikey>  (1438) 
WEJYIIDZEITKBD-UHFFFAOYSA-N

>  <tags>  (1438) 
BulkDock Fragalysis export,openbind_d68ev3c_c2_elabs_scored,openbind_d68ev3c_c2_elabs_scored_4.5plus,openbind_d68ev3c_c2_elabs,openbind_d68ev3c_c2_elabs_scored_5plus,syndirella_product,openbind_d68ev3c_c2_elabs_scored_top80percent,syndirella_placed

>  <smiles>  (1438) 
O=C(Cn1c(S)nnc1-c1cccs1)NN1Cc2ccccc2C1

>  <subsites>  (1438) 
None

>  <rmsd(smina/fragmenstein)>  (1438) 
0.403

>  <alias>  (1438) 
None

>  <energy_score>  (1438) 
-26.541375

>  <HIPPO Pose ID>  (1438) 
116972

>  <distance_score>  (1438) 
1.056045

>  <HIPPO Compound ID>  (1438) 
151237

>  <gnina_score_min>  (1438) 
5.352

>  <name>  (1438) 
P116972

>  <exports>  (1438) 
['/opt/xchem-fragalysis-2/maxwin/BulkDock/OUTPUTS/openbind_d68ev3c_c2_elabs_1LOTQJ3.sdf', '/opt/xchem-fragalysis-2/maxwin/BulkDock/OUTPUTS/openbind_d68ev3c_c2_elabs_1LSYI5W.sdf']

$$$$
P116978
     RDKit          3D

 24 26  0  0  0  0  0  0  0  0999 V2000
    1.7982   -4.1839   34.8237 C   0  0  0  0  0  0  0  0  0  0  0  0
    0.7310   -5.2514   34.4757 C   0  0  0  0  0  0  0  0  0  0  0  0
    1.4919   -6.5955   34.6144 C   0  0  0  0  0  0  0  0  0  0  0  0
   -0.3907   -5.2782   35.5265 C   0  0  0  0  0  0  0  0  0  0  0  0
    0.2237   -5.0357   33.0075 C   0  0  2  0  0  0  0  0  0  0  0  0
   -0.9217   -4.0033   32.6536 C   0  0  0  0  0  0  0  0  0  0  0  0
   -1.9145   -4.4051   32.1605 O   0  0  0  0  0  0  0  0  0  0  0  0
   -0.4781   -2.5913   32.9402 N   0  0  0  0  0  0  0  0  0  0  0  0
   -0.9315   -2.1246   34.3621 C   0  0  0  0  0  0  0  0  0  0  0  0
   -0.5899   -0.7270   33.9007 C   0  0  0  0  0  0  0  0  0  0  0  0
   -1.1202   -1.2662   32.5945 C   0  0  1  0  0  0  0  0  0  0  0  0
   -0.7377   -0.6713   31.1922 C   0  0  0  0  0  0  0  0  0  0  0  0
   -1.2070   -1.2759   30.0009 C   0  0  0  0  0  0  0  0  0  0  0  0
   -1.0763   -0.6595   28.7537 C   0  0  0  0  0  0  0  0  0  0  0  0
   -0.4529    0.5776   28.6783 C   0  0  0  0  0  0  0  0  0  0  0  0
   -0.4442    1.4824   27.2246 Cl  0  0  0  0  0  0  0  0  0  0  0  0
    0.1164    1.1491   29.8092 C   0  0  0  0  0  0  0  0  0  0  0  0
   -0.0230    0.5282   31.0492 C   0  0  0  0  0  0  0  0  0  0  0  0
   -0.1861   -6.2866   32.3263 N   0  0  0  0  0  0  0  0  0  0  0  0
   -1.1202   -7.2005   32.6608 C   0  0  0  0  0  0  0  0  0  0  0  0
   -1.3623   -8.1036   31.7622 N   0  0  0  0  0  0  0  0  0  0  0  0
   -0.5716   -7.7351   30.7178 N   0  0  0  0  0  0  0  0  0  0  0  0
    0.1472   -6.5926   31.0351 C   0  0  0  0  0  0  0  0  0  0  0  0
    0.9407   -6.0153   30.3099 O   0  0  0  0  0  0  0  0  0  0  0  0
  1  2  1  0
  2  3  1  0
  2  4  1  0
  5  2  1  1
  5  6  1  0
  6  7  2  0
  6  8  1  0
  8  9  1  0
  9 10  1  0
 10 11  1  0
 11 12  1  6
 12 13  2  0
 13 14  1  0
 14 15  2  0
 15 16  1  0
 15 17  1  0
 17 18  2  0
  5 19  1  0
 19 20  1  0
 20 21  2  0
 21 22  1  0
 22 23  1  0
 23 24  2  0
 11  8  1  0
 18 12  1  0
 23 19  1  0
M  END
>  <ref_mols>  (1439) 
B0454a

>  <gnina_score>  (1439) 
5.628

>  <smina_score_min>  (1439) 
-5.487

>  <ref_pdb>  (1439) 
B0454a

>  <inspiration_score>  (1439) 
None

>  <inchikey>  (1439) 
DNHZSLIIGCTJOX-KBPBESRZSA-N

>  <tags>  (1439) 
BulkDock Fragalysis export,openbind_d68ev3c_c2_elabs_scored,openbind_d68ev3c_c2_elabs_scored_4.5plus,openbind_d68ev3c_c2_elabs,openbind_d68ev3c_c2_elabs_scored_5plus,syndirella_product,openbind_d68ev3c_c2_elabs_scored_top80percent,syndirella_placed

>  <smiles>  (1439) 
CC(C)(C)[C@H](C(=O)N1CC[C@H]1c1ccc(Cl)cc1)n1cn[nH]c1=O

>  <subsites>  (1439) 
None

>  <rmsd(smina/fragmenstein)>  (1439) 
0.604

>  <alias>  (1439) 
None

>  <energy_score>  (1439) 
-32.022331

>  <HIPPO Pose ID>  (1439) 
116978

>  <distance_score>  (1439) 
0.840184

>  <HIPPO Compound ID>  (1439) 
151251

>  <gnina_score_min>  (1439) 
5.271

>  <name>  (1439) 
P116978

>  <exports>  (1439) 
['/opt/xchem-fragalysis-2/maxwin/BulkDock/OUTPUTS/openbind_d68ev3c_c2_elabs_1LOTQJ3.sdf', '/opt/xchem-fragalysis-2/maxwin/BulkDock/OUTPUTS/openbind_d68ev3c_c2_elabs_1LSYI5W.sdf']

$$$$
P116985
     RDKit          3D

 24 26  0  0  0  0  0  0  0  0999 V2000
    2.0345   -3.9720   34.3504 C   0  0  0  0  0  0  0  0  0  0  0  0
    0.9539   -5.0835   34.2927 C   0  0  0  0  0  0  0  0  0  0  0  0
    0.0063   -4.9875   35.5021 C   0  0  0  0  0  0  0  0  0  0  0  0
    1.7641   -6.3946   34.4555 C   0  0  0  0  0  0  0  0  0  0  0  0
    0.2288   -5.0490   32.9008 C   0  0  2  0  0  0  0  0  0  0  0  0
   -0.9146   -3.9992   32.5564 C   0  0  0  0  0  0  0  0  0  0  0  0
   -1.9246   -4.4008   32.1003 O   0  0  0  0  0  0  0  0  0  0  0  0
   -0.4487   -2.5872   32.7978 N   0  0  0  0  0  0  0  0  0  0  0  0
   -0.8570   -2.0835   34.2187 C   0  0  0  0  0  0  0  0  0  0  0  0
   -0.5037   -0.6994   33.7094 C   0  0  0  0  0  0  0  0  0  0  0  0
   -1.0896   -1.2556   32.4373 C   0  0  1  0  0  0  0  0  0  0  0  0
   -0.7571   -0.7560   30.9919 C   0  0  0  0  0  0  0  0  0  0  0  0
   -1.1971   -1.4960   29.8707 C   0  0  0  0  0  0  0  0  0  0  0  0
   -1.0236   -1.0407   28.5647 C   0  0  0  0  0  0  0  0  0  0  0  0
   -0.3803    0.1680   28.3353 C   0  0  0  0  0  0  0  0  0  0  0  0
    0.0892    0.9128   29.4116 C   0  0  0  0  0  0  0  0  0  0  0  0
   -0.1043    0.4503   30.7123 C   0  0  0  0  0  0  0  0  0  0  0  0
    0.3129    1.2199   31.7289 F   0  0  0  0  0  0  0  0  0  0  0  0
   -0.2979   -6.3636   32.4478 N   0  0  0  0  0  0  0  0  0  0  0  0
   -0.3292   -6.7905   31.1646 C   0  0  0  0  0  0  0  0  0  0  0  0
   -1.0809   -7.8189   30.9234 N   0  0  0  0  0  0  0  0  0  0  0  0
   -1.6166   -8.1016   32.1472 N   0  0  0  0  0  0  0  0  0  0  0  0
   -1.2120   -7.1586   33.0905 C   0  0  0  0  0  0  0  0  0  0  0  0
   -1.6488   -7.0650   34.2233 O   0  0  0  0  0  0  0  0  0  0  0  0
  1  2  1  0
  2  3  1  0
  2  4  1  0
  5  2  1  1
  5  6  1  0
  6  7  2  0
  6  8  1  0
  8  9  1  0
  9 10  1  0
 10 11  1  0
 11 12  1  6
 12 13  2  0
 13 14  1  0
 14 15  2  0
 15 16  1  0
 16 17  2  0
 17 18  1  0
  5 19  1  0
 19 20  1  0
 20 21  2  0
 21 22  1  0
 22 23  1  0
 23 24  2  0
 11  8  1  0
 17 12  1  0
 23 19  1  0
M  END
>  <ref_mols>  (1440) 
B0454a

>  <gnina_score>  (1440) 
5.448

>  <smina_score_min>  (1440) 
-5.841

>  <ref_pdb>  (1440) 
B0454a

>  <inspiration_score>  (1440) 
None

>  <inchikey>  (1440) 
UPOKSYXCTLYCKC-KBPBESRZSA-N

>  <tags>  (1440) 
BulkDock Fragalysis export,openbind_d68ev3c_c2_elabs_scored,openbind_d68ev3c_c2_elabs_scored_4.5plus,openbind_d68ev3c_c2_elabs,openbind_d68ev3c_c2_elabs_scored_5plus,syndirella_product,openbind_d68ev3c_c2_elabs_scored_top80percent,syndirella_placed

>  <smiles>  (1440) 
CC(C)(C)[C@H](C(=O)N1CC[C@H]1c1ccccc1F)n1cn[nH]c1=O

>  <subsites>  (1440) 
None

>  <rmsd(smina/fragmenstein)>  (1440) 
0.496

>  <alias>  (1440) 
None

>  <energy_score>  (1440) 
-22.82279

>  <HIPPO Pose ID>  (1440) 
116985

>  <distance_score>  (1440) 
0.657436

>  <HIPPO Compound ID>  (1440) 
151256

>  <gnina_score_min>  (1440) 
5.338

>  <name>  (1440) 
P116985

>  <exports>  (1440) 
['/opt/xchem-fragalysis-2/maxwin/BulkDock/OUTPUTS/openbind_d68ev3c_c2_elabs_1LOTQJ3.sdf', '/opt/xchem-fragalysis-2/maxwin/BulkDock/OUTPUTS/openbind_d68ev3c_c2_elabs_1LSYI5W.sdf']

$$$$
P116988
     RDKit          3D

 24 26  0  0  0  0  0  0  0  0999 V2000
   -0.0342   -1.1106   28.2521 C   0  0  0  0  0  0  0  0  0  0  0  0
   -0.6047    0.1650   28.7092 N   0  0  0  0  0  0  0  0  0  0  0  0
    0.3983    0.9256   29.5108 C   0  0  0  0  0  0  0  0  0  0  0  0
    0.2944    0.3437   30.8907 C   0  0  0  0  0  0  0  0  0  0  0  0
    1.2205    0.2684   31.9156 C   0  0  0  0  0  0  0  0  0  0  0  0
    0.9989   -0.6792   32.9248 C   0  0  0  0  0  0  0  0  0  0  0  0
   -0.1270   -1.5181   32.8536 C   0  0  0  0  0  0  0  0  0  0  0  0
   -0.0991   -2.7581   33.4706 N   0  0  0  0  0  0  0  0  0  0  0  0
   -0.8292   -4.0829   33.1085 C   0  0  0  0  0  0  0  0  0  0  0  0
   -1.6265   -4.3084   32.2784 O   0  0  0  0  0  0  0  0  0  0  0  0
   -0.2631   -5.2743   33.9910 C   0  0  1  0  0  0  0  0  0  0  0  0
   -0.6105   -6.4749   33.1882 N   0  0  0  0  0  0  0  0  0  0  0  0
   -0.3514   -6.7529   31.8900 C   0  0  0  0  0  0  0  0  0  0  0  0
   -0.9870   -7.7694   31.3949 N   0  0  0  0  0  0  0  0  0  0  0  0
   -1.7268   -8.2137   32.4540 N   0  0  0  0  0  0  0  0  0  0  0  0
   -1.5307   -7.4076   33.5718 C   0  0  0  0  0  0  0  0  0  0  0  0
   -2.1069   -7.4856   34.6452 O   0  0  0  0  0  0  0  0  0  0  0  0
    1.2097   -5.3538   34.5430 C   0  0  0  0  0  0  0  0  0  0  0  0
    1.4813   -6.7909   35.0659 C   0  0  0  0  0  0  0  0  0  0  0  0
    2.2662   -5.0347   33.4760 C   0  0  0  0  0  0  0  0  0  0  0  0
    1.4316   -4.4486   35.7837 C   0  0  0  0  0  0  0  0  0  0  0  0
   -1.1460   -1.2853   31.9381 C   0  0  0  0  0  0  0  0  0  0  0  0
   -0.9042   -0.3608   30.9573 C   0  0  0  0  0  0  0  0  0  0  0  0
   -1.6560   -0.1716   29.6878 C   0  0  0  0  0  0  0  0  0  0  0  0
  1  2  1  0
  2  3  1  0
  3  4  1  0
  4  5  2  0
  5  6  1  0
  6  7  2  0
  7  8  1  0
  8  9  1  0
  9 10  2  0
  9 11  1  0
 11 12  1  0
 12 13  1  0
 13 14  2  0
 14 15  1  0
 15 16  1  0
 16 17  2  0
 11 18  1  6
 18 19  1  0
 18 20  1  0
 18 21  1  0
  7 22  1  0
 22 23  2  0
 23 24  1  0
 24  2  1  0
 23  4  1  0
 16 12  1  0
M  END
>  <ref_mols>  (1441) 
B0454a

>  <gnina_score>  (1441) 
5.116

>  <smina_score_min>  (1441) 
-5.702

>  <ref_pdb>  (1441) 
B0454a

>  <inspiration_score>  (1441) 
None

>  <inchikey>  (1441) 
MYQYAPVCVGPBNQ-CQSZACIVSA-N

>  <tags>  (1441) 
BulkDock Fragalysis export,openbind_d68ev3c_c2_elabs_scored,openbind_d68ev3c_c2_elabs_scored_4.5plus,openbind_d68ev3c_c2_elabs,openbind_d68ev3c_c2_elabs_scored_5plus,syndirella_product,openbind_d68ev3c_c2_elabs_scored_top80percent,syndirella_placed

>  <smiles>  (1441) 
CN1Cc2ccc(NC(=O)[C@@H](n3cn[nH]c3=O)C(C)(C)C)cc2C1

>  <subsites>  (1441) 
None

>  <rmsd(smina/fragmenstein)>  (1441) 
0.85

>  <alias>  (1441) 
None

>  <energy_score>  (1441) 
-19.858512

>  <HIPPO Pose ID>  (1441) 
116988

>  <distance_score>  (1441) 
1.19496

>  <HIPPO Compound ID>  (1441) 
151269

>  <gnina_score_min>  (1441) 
5.146

>  <name>  (1441) 
P116988

>  <exports>  (1441) 
['/opt/xchem-fragalysis-2/maxwin/BulkDock/OUTPUTS/openbind_d68ev3c_c2_elabs_1LOTQJ3.sdf', '/opt/xchem-fragalysis-2/maxwin/BulkDock/OUTPUTS/openbind_d68ev3c_c2_elabs_1LSYI5W.sdf']

$$$$
P116990
     RDKit          3D

 24 26  0  0  0  0  0  0  0  0999 V2000
    1.9542   -4.2959   31.9151 C   0  0  0  0  0  0  0  0  0  0  0  0
    1.3566   -4.5804   33.3016 C   0  0  0  0  0  0  0  0  0  0  0  0
    1.7669   -3.4280   34.2498 C   0  0  0  0  0  0  0  0  0  0  0  0
    2.0267   -5.8410   33.8918 C   0  0  0  0  0  0  0  0  0  0  0  0
   -0.1972   -4.8111   33.2631 C   0  0  1  0  0  0  0  0  0  0  0  0
   -1.1257   -3.7269   32.6005 C   0  0  0  0  0  0  0  0  0  0  0  0
   -2.0150   -4.0337   31.8913 O   0  0  0  0  0  0  0  0  0  0  0  0
   -0.6599   -2.3604   33.0502 N   0  0  0  0  0  0  0  0  0  0  0  0
   -1.3544   -1.9364   34.3357 C   0  0  0  0  0  0  0  0  0  0  0  0
   -2.7738   -1.4496   34.1605 C   0  0  0  0  0  0  0  0  0  0  0  0
   -2.6175   -0.7522   32.8654 C   0  0  0  0  0  0  0  0  0  0  0  0
   -1.1283   -0.9717   32.6460 C   0  0  2  0  0  0  0  0  0  0  0  0
   -0.7942   -0.7136   31.1695 C   0  0  0  0  0  0  0  0  0  0  0  0
    0.0489    0.3532   30.8213 C   0  0  0  0  0  0  0  0  0  0  0  0
    0.2964    0.6626   29.4812 C   0  0  0  0  0  0  0  0  0  0  0  0
   -0.2816   -0.0963   28.4680 C   0  0  0  0  0  0  0  0  0  0  0  0
   -1.1001   -1.1704   28.7903 C   0  0  0  0  0  0  0  0  0  0  0  0
   -1.3534   -1.4733   30.1283 C   0  0  0  0  0  0  0  0  0  0  0  0
   -0.5811   -6.1102   32.6625 N   0  0  0  0  0  0  0  0  0  0  0  0
   -0.5384   -6.5089   31.3740 C   0  0  0  0  0  0  0  0  0  0  0  0
   -1.1020   -7.6499   31.1176 N   0  0  0  0  0  0  0  0  0  0  0  0
   -1.5644   -8.0480   32.3405 N   0  0  0  0  0  0  0  0  0  0  0  0
   -1.2962   -7.0830   33.3069 C   0  0  0  0  0  0  0  0  0  0  0  0
   -1.6667   -7.0998   34.4685 O   0  0  0  0  0  0  0  0  0  0  0  0
  1  2  1  0
  2  3  1  0
  2  4  1  0
  5  2  1  6
  5  6  1  0
  6  7  2  0
  6  8  1  0
  8  9  1  0
  9 10  1  0
 10 11  1  0
 11 12  1  0
 12 13  1  6
 13 14  2  0
 14 15  1  0
 15 16  2  0
 16 17  1  0
 17 18  2  0
  5 19  1  0
 19 20  1  0
 20 21  2  0
 21 22  1  0
 22 23  1  0
 23 24  2  0
 12  8  1  0
 18 13  1  0
 23 19  1  0
M  END
>  <ref_mols>  (1442) 
B0454a

>  <gnina_score>  (1442) 
5.507

>  <smina_score_min>  (1442) 
-6.049

>  <ref_pdb>  (1442) 
B0454a

>  <inspiration_score>  (1442) 
None

>  <inchikey>  (1442) 
GTTKQMFJKXYQAJ-HUUCEWRRSA-N

>  <tags>  (1442) 
BulkDock Fragalysis export,openbind_d68ev3c_c2_elabs_scored,openbind_d68ev3c_c2_elabs_scored_4.5plus,openbind_d68ev3c_c2_elabs,openbind_d68ev3c_c2_elabs_scored_5plus,syndirella_product,openbind_d68ev3c_c2_elabs_scored_top80percent,syndirella_placed

>  <smiles>  (1442) 
CC(C)(C)[C@@H](C(=O)N1CCC[C@@H]1c1ccccc1)n1cn[nH]c1=O

>  <subsites>  (1442) 
None

>  <rmsd(smina/fragmenstein)>  (1442) 
0.697

>  <alias>  (1442) 
None

>  <energy_score>  (1442) 
-0.393872

>  <HIPPO Pose ID>  (1442) 
116990

>  <distance_score>  (1442) 
0.851102

>  <HIPPO Compound ID>  (1442) 
151274

>  <gnina_score_min>  (1442) 
5.474

>  <name>  (1442) 
P116990

>  <exports>  (1442) 
['/opt/xchem-fragalysis-2/maxwin/BulkDock/OUTPUTS/openbind_d68ev3c_c2_elabs_1LOTQJ3.sdf', '/opt/xchem-fragalysis-2/maxwin/BulkDock/OUTPUTS/openbind_d68ev3c_c2_elabs_1LSYI5W.sdf']

$$$$
P116993
     RDKit          3D

 24 26  0  0  0  0  0  0  0  0999 V2000
    1.2252   -6.5524   34.9168 C   0  0  0  0  0  0  0  0  0  0  0  0
    0.6030   -5.2050   34.4847 C   0  0  0  0  0  0  0  0  0  0  0  0
    1.6107   -4.1079   34.9054 C   0  0  0  0  0  0  0  0  0  0  0  0
   -0.6727   -4.9667   35.2977 C   0  0  0  0  0  0  0  0  0  0  0  0
    0.3804   -5.1825   32.9338 C   0  0  2  0  0  0  0  0  0  0  0  0
   -0.4316   -3.9956   32.3024 C   0  0  0  0  0  0  0  0  0  0  0  0
   -1.5265   -4.1222   31.8998 O   0  0  0  0  0  0  0  0  0  0  0  0
    0.5323   -2.7620   32.2497 N   0  0  0  0  0  0  0  0  0  0  0  0
    0.3815   -1.5233   31.6329 C   0  0  0  0  0  0  0  0  0  0  0  0
    1.1829   -0.4667   32.1011 C   0  0  0  0  0  0  0  0  0  0  0  0
    1.1939    0.7876   31.4626 C   0  0  0  0  0  0  0  0  0  0  0  0
    0.4460    0.9920   30.3079 C   0  0  0  0  0  0  0  0  0  0  0  0
   -0.3076   -0.0707   29.8517 C   0  0  0  0  0  0  0  0  0  0  0  0
   -0.3809   -1.3116   30.4978 C   0  0  0  0  0  0  0  0  0  0  0  0
   -1.1915   -2.2413   29.6537 C   0  0  0  0  0  0  0  0  0  0  0  0
   -1.5151   -1.4367   28.5020 N   0  0  0  0  0  0  0  0  0  0  0  0
   -1.0089   -0.1647   28.5686 C   0  0  0  0  0  0  0  0  0  0  0  0
   -1.0634    0.7161   27.7361 O   0  0  0  0  0  0  0  0  0  0  0  0
   -0.1667   -6.3930   32.3065 N   0  0  0  0  0  0  0  0  0  0  0  0
   -1.1557   -7.2383   32.6456 C   0  0  0  0  0  0  0  0  0  0  0  0
   -1.4584   -8.1245   31.7471 N   0  0  0  0  0  0  0  0  0  0  0  0
   -0.6530   -7.8104   30.6967 N   0  0  0  0  0  0  0  0  0  0  0  0
    0.1256   -6.7126   31.0053 C   0  0  0  0  0  0  0  0  0  0  0  0
    0.9226   -6.1524   30.2697 O   0  0  0  0  0  0  0  0  0  0  0  0
  1  2  1  0
  2  3  1  0
  2  4  1  0
  5  2  1  1
  5  6  1  0
  6  7  2  0
  6  8  1  0
  8  9  1  0
  9 10  2  0
 10 11  1  0
 11 12  2  0
 12 13  1  0
 13 14  2  0
 14 15  1  0
 15 16  1  0
 16 17  1  0
 17 18  2  0
  5 19  1  0
 19 20  1  0
 20 21  2  0
 21 22  1  0
 22 23  1  0
 23 24  2  0
 14  9  1  0
 23 19  1  0
 17 13  1  0
M  END
>  <ref_mols>  (1443) 
B0454a

>  <gnina_score>  (1443) 
5.077

>  <smina_score_min>  (1443) 
-6.19

>  <ref_pdb>  (1443) 
B0454a

>  <inspiration_score>  (1443) 
None

>  <inchikey>  (1443) 
UVIDLMZZJVRMSW-LBPRGKRZSA-N

>  <tags>  (1443) 
BulkDock Fragalysis export,openbind_d68ev3c_c2_elabs_scored,openbind_d68ev3c_c2_elabs_scored_4.5plus,openbind_d68ev3c_c2_elabs,openbind_d68ev3c_c2_elabs_scored_5plus,syndirella_product,openbind_d68ev3c_c2_elabs_scored_top80percent,syndirella_placed

>  <smiles>  (1443) 
CC(C)(C)[C@H](C(=O)Nc1cccc2c1CNC2=O)n1cn[nH]c1=O

>  <subsites>  (1443) 
None

>  <rmsd(smina/fragmenstein)>  (1443) 
0.387

>  <alias>  (1443) 
None

>  <energy_score>  (1443) 
-36.288399

>  <HIPPO Pose ID>  (1443) 
116993

>  <distance_score>  (1443) 
0.75207

>  <HIPPO Compound ID>  (1443) 
151285

>  <gnina_score_min>  (1443) 
5.18

>  <name>  (1443) 
P116993

>  <exports>  (1443) 
['/opt/xchem-fragalysis-2/maxwin/BulkDock/OUTPUTS/openbind_d68ev3c_c2_elabs_1LOTQJ3.sdf', '/opt/xchem-fragalysis-2/maxwin/BulkDock/OUTPUTS/openbind_d68ev3c_c2_elabs_1LSYI5W.sdf']

$$$$
P117005
     RDKit          3D

 25 28  0  0  0  0  0  0  0  0999 V2000
    1.6701   -4.8506   33.1209 C   0  0  0  0  0  0  0  0  0  0  0  0
    0.3416   -4.9737   32.3835 C   0  0  2  0  0  0  0  0  0  0  0  0
   -0.6810   -3.8128   32.3962 C   0  0  0  0  0  0  0  0  0  0  0  0
   -1.8368   -4.0341   32.3198 O   0  0  0  0  0  0  0  0  0  0  0  0
    0.0622   -2.4989   32.4137 N   0  0  0  0  0  0  0  0  0  0  0  0
    0.2417   -1.9635   33.8645 C   0  0  0  0  0  0  0  0  0  0  0  0
    0.6226   -0.6475   33.2240 C   0  0  0  0  0  0  0  0  0  0  0  0
   -0.4380   -1.0755   32.2379 C   0  0  1  0  0  0  0  0  0  0  0  0
   -0.4689   -0.6043   30.7449 C   0  0  0  0  0  0  0  0  0  0  0  0
    0.0970    0.6074   30.3174 C   0  0  0  0  0  0  0  0  0  0  0  0
   -0.0171    1.0415   28.9959 C   0  0  0  0  0  0  0  0  0  0  0  0
   -0.6968    0.2662   28.0640 C   0  0  0  0  0  0  0  0  0  0  0  0
   -1.2501   -0.9477   28.4438 C   0  0  0  0  0  0  0  0  0  0  0  0
   -1.1395   -1.3701   29.7652 C   0  0  0  0  0  0  0  0  0  0  0  0
   -0.3560   -6.2332   32.6437 N   0  0  0  0  0  0  0  0  0  0  0  0
   -0.7232   -7.1607   31.7017 C   0  0  0  0  0  0  0  0  0  0  0  0
   -0.1776   -7.2239   30.0866 S   0  0  0  0  0  0  0  0  0  0  0  0
   -1.4918   -8.0743   32.2207 N   0  0  0  0  0  0  0  0  0  0  0  0
   -1.5838   -7.8009   33.5524 N   0  0  0  0  0  0  0  0  0  0  0  0
   -0.8652   -6.7283   33.8278 C   0  0  0  0  0  0  0  0  0  0  0  0
   -0.6023   -6.3339   35.1849 C   0  0  0  0  0  0  0  0  0  0  0  0
   -0.3370   -7.2192   36.2133 C   0  0  0  0  0  0  0  0  0  0  0  0
   -0.0467   -6.5765   37.4508 C   0  0  0  0  0  0  0  0  0  0  0  0
   -0.1974   -5.2141   37.3595 C   0  0  0  0  0  0  0  0  0  0  0  0
   -0.6658   -4.7390   35.7897 S   0  0  0  0  0  0  0  0  0  0  0  0
  2  1  1  1
  2  3  1  0
  3  4  2  0
  3  5  1  0
  5  6  1  0
  6  7  1  0
  7  8  1  0
  8  9  1  6
  9 10  2  0
 10 11  1  0
 11 12  2  0
 12 13  1  0
 13 14  2  0
  2 15  1  0
 15 16  1  0
 16 17  1  0
 16 18  2  0
 18 19  1  0
 19 20  2  0
 20 21  1  0
 21 22  2  0
 22 23  1  0
 23 24  2  0
 24 25  1  0
  8  5  1  0
 14  9  1  0
 20 15  1  0
 25 21  1  0
M  END
>  <ref_mols>  (1444) 
B0454a

>  <gnina_score>  (1444) 
5.862

>  <smina_score_min>  (1444) 
-5.734

>  <ref_pdb>  (1444) 
B0454a

>  <inspiration_score>  (1444) 
None

>  <inchikey>  (1444) 
JLQGOACLMHUDLX-OCCSQVGLSA-N

>  <tags>  (1444) 
BulkDock Fragalysis export,openbind_d68ev3c_c2_elabs_scored,openbind_d68ev3c_c2_elabs_scored_4.5plus,openbind_d68ev3c_c2_elabs,openbind_d68ev3c_c2_elabs_scored_5plus,syndirella_product,openbind_d68ev3c_c2_elabs_scored_top80percent,syndirella_placed

>  <smiles>  (1444) 
C[C@H](C(=O)N1CC[C@H]1c1ccccc1)n1c(S)nnc1-c1cccs1

>  <subsites>  (1444) 
None

>  <rmsd(smina/fragmenstein)>  (1444) 
0.747

>  <alias>  (1444) 
None

>  <energy_score>  (1444) 
-18.17361

>  <HIPPO Pose ID>  (1444) 
117005

>  <distance_score>  (1444) 
0.796679

>  <HIPPO Compound ID>  (1444) 
151324

>  <gnina_score_min>  (1444) 
5.829

>  <name>  (1444) 
P117005

>  <exports>  (1444) 
['/opt/xchem-fragalysis-2/maxwin/BulkDock/OUTPUTS/openbind_d68ev3c_c2_elabs_1LOTQJ3.sdf', '/opt/xchem-fragalysis-2/maxwin/BulkDock/OUTPUTS/openbind_d68ev3c_c2_elabs_1LSYI5W.sdf']

$$$$
P117038
     RDKit          3D

 25 28  0  0  0  0  0  0  0  0999 V2000
   -1.8887   -3.7119   31.8825 O   0  0  0  0  0  0  0  0  0  0  0  0
   -1.0190   -3.4684   32.6307 C   0  0  0  0  0  0  0  0  0  0  0  0
   -0.5110   -4.4953   33.6559 C   0  0  0  0  0  0  0  0  0  0  0  0
   -0.3745   -5.7891   33.0059 N   0  0  0  0  0  0  0  0  0  0  0  0
   -0.9151   -6.9853   33.3648 C   0  0  0  0  0  0  0  0  0  0  0  0
   -1.4127   -7.3481   34.9719 S   0  0  0  0  0  0  0  0  0  0  0  0
   -0.8790   -7.8079   32.3431 N   0  0  0  0  0  0  0  0  0  0  0  0
   -0.1514   -7.1894   31.3420 N   0  0  0  0  0  0  0  0  0  0  0  0
    0.2697   -6.0295   31.8113 C   0  0  0  0  0  0  0  0  0  0  0  0
    1.2546   -5.1596   31.2253 C   0  0  0  0  0  0  0  0  0  0  0  0
    2.2493   -4.4509   31.8815 C   0  0  0  0  0  0  0  0  0  0  0  0
    3.0029   -3.6120   31.0070 C   0  0  0  0  0  0  0  0  0  0  0  0
    2.5928   -3.7417   29.7013 C   0  0  0  0  0  0  0  0  0  0  0  0
    1.3391   -4.8867   29.5456 S   0  0  0  0  0  0  0  0  0  0  0  0
   -0.1082   -2.2009   32.7484 N   0  0  0  0  0  0  0  0  0  0  0  0
   -0.0262   -1.0660   31.9400 C   0  0  0  0  0  0  0  0  0  0  0  0
    0.7443    0.0048   32.4328 C   0  0  0  0  0  0  0  0  0  0  0  0
    0.9847    1.1586   31.6642 C   0  0  0  0  0  0  0  0  0  0  0  0
    0.4887    1.2517   30.3691 C   0  0  0  0  0  0  0  0  0  0  0  0
   -0.2505    0.1852   29.9009 C   0  0  0  0  0  0  0  0  0  0  0  0
   -0.5342   -0.9616   30.6554 C   0  0  0  0  0  0  0  0  0  0  0  0
   -1.2900   -1.9125   29.7864 C   0  0  0  0  0  0  0  0  0  0  0  0
   -1.3895   -1.2152   28.5284 N   0  0  0  0  0  0  0  0  0  0  0  0
   -0.7735    0.0084   28.5432 C   0  0  0  0  0  0  0  0  0  0  0  0
   -0.6309    0.7968   27.6316 O   0  0  0  0  0  0  0  0  0  0  0  0
  1  2  2  0
  2  3  1  0
  3  4  1  0
  4  5  1  0
  5  6  1  0
  5  7  2  0
  7  8  1  0
  8  9  2  0
  9 10  1  0
 10 11  2  0
 11 12  1  0
 12 13  2  0
 13 14  1  0
  2 15  1  0
 15 16  1  0
 16 17  2  0
 17 18  1  0
 18 19  2  0
 19 20  1  0
 20 21  2  0
 21 22  1  0
 22 23  1  0
 23 24  1  0
 24 25  2  0
  9  4  1  0
 14 10  1  0
 21 16  1  0
 24 20  1  0
M  END
>  <ref_mols>  (1445) 
B0454a

>  <gnina_score>  (1445) 
5.421

>  <smina_score_min>  (1445) 
-5.584

>  <ref_pdb>  (1445) 
B0454a

>  <inspiration_score>  (1445) 
None

>  <inchikey>  (1445) 
SOAUQXVXJSGFHF-UHFFFAOYSA-N

>  <tags>  (1445) 
BulkDock Fragalysis export,openbind_d68ev3c_c2_elabs_scored,openbind_d68ev3c_c2_elabs_scored_4.5plus,openbind_d68ev3c_c2_elabs,openbind_d68ev3c_c2_elabs_scored_5plus,syndirella_product,openbind_d68ev3c_c2_elabs_scored_top80percent,syndirella_placed

>  <smiles>  (1445) 
O=C(Cn1c(S)nnc1-c1cccs1)Nc1cccc2c1CNC2=O

>  <subsites>  (1445) 
None

>  <rmsd(smina/fragmenstein)>  (1445) 
1.005

>  <alias>  (1445) 
None

>  <energy_score>  (1445) 
-14.145876

>  <HIPPO Pose ID>  (1445) 
117038

>  <distance_score>  (1445) 
0.955659

>  <HIPPO Compound ID>  (1445) 
151382

>  <gnina_score_min>  (1445) 
5.376

>  <name>  (1445) 
P117038

>  <exports>  (1445) 
['/opt/xchem-fragalysis-2/maxwin/BulkDock/OUTPUTS/openbind_d68ev3c_c2_elabs_1LOTQJ3.sdf', '/opt/xchem-fragalysis-2/maxwin/BulkDock/OUTPUTS/openbind_d68ev3c_c2_elabs_1LSYI5W.sdf']

$$$$
P117039
     RDKit          3D

 25 27  0  0  0  0  0  0  0  0999 V2000
    1.2263   -2.4980   33.1593 C   0  0  0  0  0  0  0  0  0  0  0  0
   -0.1500   -2.9333   32.9703 N   0  0  0  0  0  0  0  0  0  0  0  0
   -0.2136   -4.1408   32.1571 C   0  0  0  0  0  0  0  0  0  0  0  0
   -1.0689   -1.8785   32.5214 C   0  0  0  0  0  0  0  0  0  0  0  0
   -0.7967   -1.2251   31.1792 C   0  0  0  0  0  0  0  0  0  0  0  0
   -1.3286   -1.8388   30.0279 C   0  0  0  0  0  0  0  0  0  0  0  0
   -1.1697   -1.2757   28.7637 C   0  0  0  0  0  0  0  0  0  0  0  0
   -0.4705   -0.0866   28.6237 C   0  0  0  0  0  0  0  0  0  0  0  0
    0.0800    0.5328   29.7461 C   0  0  0  0  0  0  0  0  0  0  0  0
   -0.0720   -0.0250   31.0221 C   0  0  0  0  0  0  0  0  0  0  0  0
    0.4970    0.6102   32.1304 N   0  0  0  0  0  0  0  0  0  0  0  0
    1.3596    1.9138   32.2222 C   0  0  0  0  0  0  0  0  0  0  0  0
    1.7840    2.6027   31.3767 O   0  0  0  0  0  0  0  0  0  0  0  0
    1.6075    2.1332   33.7094 C   0  0  0  0  0  0  0  0  0  0  0  0
    2.3732    3.3314   33.9802 N   0  0  0  0  0  0  0  0  0  0  0  0
    1.8677    4.5869   34.1844 C   0  0  0  0  0  0  0  0  0  0  0  0
    0.2106    5.0204   33.9853 S   0  0  0  0  0  0  0  0  0  0  0  0
    2.8145    5.3950   34.5901 N   0  0  0  0  0  0  0  0  0  0  0  0
    3.9792    4.6685   34.6357 N   0  0  0  0  0  0  0  0  0  0  0  0
    3.7250    3.4377   34.2258 C   0  0  0  0  0  0  0  0  0  0  0  0
    4.7443    2.4274   34.1446 C   0  0  0  0  0  0  0  0  0  0  0  0
    5.8737    2.3671   34.9428 C   0  0  0  0  0  0  0  0  0  0  0  0
    6.7263    1.2723   34.6180 C   0  0  0  0  0  0  0  0  0  0  0  0
    6.2348    0.5385   33.5635 C   0  0  0  0  0  0  0  0  0  0  0  0
    4.7635    1.1756   32.9742 S   0  0  0  0  0  0  0  0  0  0  0  0
  1  2  1  0
  2  3  1  0
  2  4  1  0
  4  5  1  0
  5  6  2  0
  6  7  1  0
  7  8  2  0
  8  9  1  0
  9 10  2  0
 10 11  1  0
 11 12  1  0
 12 13  2  0
 12 14  1  0
 14 15  1  0
 15 16  1  0
 16 17  1  0
 16 18  2  0
 18 19  1  0
 19 20  2  0
 20 21  1  0
 21 22  2  0
 22 23  1  0
 23 24  2  0
 24 25  1  0
 10  5  1  0
 20 15  1  0
 25 21  1  0
M  END
>  <ref_mols>  (1446) 
B0454a

>  <gnina_score>  (1446) 
4.915

>  <smina_score_min>  (1446) 
-2.813

>  <ref_pdb>  (1446) 
B0454a

>  <inspiration_score>  (1446) 
None

>  <inchikey>  (1446) 
KAAPMQTVVLIRCJ-UHFFFAOYSA-N

>  <tags>  (1446) 
BulkDock Fragalysis export,openbind_d68ev3c_c2_elabs_scored,openbind_d68ev3c_c2_elabs_scored_4.5plus,openbind_d68ev3c_c2_elabs,openbind_d68ev3c_c2_elabs_scored_5plus,syndirella_product,openbind_d68ev3c_c2_elabs_scored_top80percent,syndirella_placed

>  <smiles>  (1446) 
CN(C)Cc1ccccc1NC(=O)Cn1c(S)nnc1-c1cccs1

>  <subsites>  (1446) 
None

>  <rmsd(smina/fragmenstein)>  (1446) 
3.103

>  <alias>  (1446) 
None

>  <energy_score>  (1446) 
-37.368539

>  <HIPPO Pose ID>  (1446) 
117039

>  <distance_score>  (1446) 
0.37718

>  <HIPPO Compound ID>  (1446) 
151384

>  <gnina_score_min>  (1446) 
5.182

>  <name>  (1446) 
P117039

>  <exports>  (1446) 
['/opt/xchem-fragalysis-2/maxwin/BulkDock/OUTPUTS/openbind_d68ev3c_c2_elabs_1LOTQJ3.sdf', '/opt/xchem-fragalysis-2/maxwin/BulkDock/OUTPUTS/openbind_d68ev3c_c2_elabs_1LSYI5W.sdf']

$$$$
P117040
     RDKit          3D

 25 27  0  0  0  0  0  0  0  0999 V2000
   -0.2473   -3.9009   33.5101 C   0  0  0  0  0  0  0  0  0  0  0  0
   -0.2799   -2.9915   32.4027 N   0  0  0  0  0  0  0  0  0  0  0  0
   -0.8168   -1.5529   32.3064 C   0  0  0  0  0  0  0  0  0  0  0  0
   -1.2477   -0.8511   33.1300 O   0  0  0  0  0  0  0  0  0  0  0  0
   -0.7485   -1.0520   30.9058 C   0  0  0  0  0  0  0  0  0  0  0  0
   -1.2197   -1.8350   29.8488 C   0  0  0  0  0  0  0  0  0  0  0  0
   -1.2558   -1.3014   28.5639 C   0  0  0  0  0  0  0  0  0  0  0  0
   -0.8317    0.0068   28.3330 C   0  0  0  0  0  0  0  0  0  0  0  0
   -0.3590    0.7878   29.3877 C   0  0  0  0  0  0  0  0  0  0  0  0
   -0.0151    2.1106   29.1303 N   0  0  0  0  0  0  0  0  0  0  0  0
    0.5878    3.2041   30.0718 C   0  0  0  0  0  0  0  0  0  0  0  0
    0.8118    3.1758   31.2214 O   0  0  0  0  0  0  0  0  0  0  0  0
    0.7900    4.4595   29.2357 C   0  0  0  0  0  0  0  0  0  0  0  0
    1.9818    4.3747   28.4201 N   0  0  0  0  0  0  0  0  0  0  0  0
    2.0618    4.1010   27.0823 C   0  0  0  0  0  0  0  0  0  0  0  0
    0.7143    3.8043   26.0497 S   0  0  0  0  0  0  0  0  0  0  0  0
    3.3132    4.0717   26.6969 N   0  0  0  0  0  0  0  0  0  0  0  0
    4.0879    4.3124   27.8051 N   0  0  0  0  0  0  0  0  0  0  0  0
    3.2882    4.5015   28.8386 C   0  0  0  0  0  0  0  0  0  0  0  0
    3.7464    4.7666   30.1686 C   0  0  0  0  0  0  0  0  0  0  0  0
    3.3978    5.8118   31.0019 C   0  0  0  0  0  0  0  0  0  0  0  0
    4.0541    5.7421   32.2668 C   0  0  0  0  0  0  0  0  0  0  0  0
    4.8935    4.6547   32.3515 C   0  0  0  0  0  0  0  0  0  0  0  0
    4.8948    3.7329   30.9118 S   0  0  0  0  0  0  0  0  0  0  0  0
   -0.3071    0.2558   30.6757 C   0  0  0  0  0  0  0  0  0  0  0  0
  1  2  1  0
  2  3  1  0
  3  4  2  0
  3  5  1  0
  5  6  2  0
  6  7  1  0
  7  8  2  0
  8  9  1  0
  9 10  1  0
 10 11  1  0
 11 12  2  0
 11 13  1  0
 13 14  1  0
 14 15  1  0
 15 16  1  0
 15 17  2  0
 17 18  1  0
 18 19  2  0
 19 20  1  0
 20 21  2  0
 21 22  1  0
 22 23  2  0
 23 24  1  0
  9 25  2  0
 25  5  1  0
 19 14  1  0
 24 20  1  0
M  END
>  <ref_mols>  (1447) 
B0454a

>  <gnina_score>  (1447) 
5.216

>  <smina_score_min>  (1447) 
-4.049

>  <ref_pdb>  (1447) 
B0454a

>  <inspiration_score>  (1447) 
None

>  <inchikey>  (1447) 
RWTNYNAFQOGJFP-UHFFFAOYSA-N

>  <tags>  (1447) 
BulkDock Fragalysis export,openbind_d68ev3c_c2_elabs_scored,openbind_d68ev3c_c2_elabs_scored_4.5plus,openbind_d68ev3c_c2_elabs,openbind_d68ev3c_c2_elabs_scored_5plus,syndirella_product,openbind_d68ev3c_c2_elabs_scored_top80percent,syndirella_placed

>  <smiles>  (1447) 
CNC(=O)c1cccc(NC(=O)Cn2c(S)nnc2-c2cccs2)c1

>  <subsites>  (1447) 
None

>  <rmsd(smina/fragmenstein)>  (1447) 
1.986

>  <alias>  (1447) 
None

>  <energy_score>  (1447) 
-29.30592

>  <HIPPO Pose ID>  (1447) 
117040

>  <distance_score>  (1447) 
1.207064

>  <HIPPO Compound ID>  (1447) 
151386

>  <gnina_score_min>  (1447) 
5.144

>  <name>  (1447) 
P117040

>  <exports>  (1447) 
['/opt/xchem-fragalysis-2/maxwin/BulkDock/OUTPUTS/openbind_d68ev3c_c2_elabs_1LOTQJ3.sdf', '/opt/xchem-fragalysis-2/maxwin/BulkDock/OUTPUTS/openbind_d68ev3c_c2_elabs_1LSYI5W.sdf']

$$$$
P117041
     RDKit          3D

 25 28  0  0  0  0  0  0  0  0999 V2000
   -1.4115   -0.8351   27.9494 C   0  0  0  0  0  0  0  0  0  0  0  0
   -1.3607    0.3074   28.8694 N   0  0  0  0  0  0  0  0  0  0  0  0
    0.0386    0.8379   28.9097 C   0  0  0  0  0  0  0  0  0  0  0  0
    0.7101    0.0420   29.9861 C   0  0  0  0  0  0  0  0  0  0  0  0
    2.0404   -0.2860   30.1974 C   0  0  0  0  0  0  0  0  0  0  0  0
    2.3263   -1.3366   31.0853 C   0  0  0  0  0  0  0  0  0  0  0  0
    1.2673   -1.9849   31.7339 C   0  0  0  0  0  0  0  0  0  0  0  0
    1.3598   -3.2874   32.1832 N   0  0  0  0  0  0  0  0  0  0  0  0
    0.2614   -4.3773   32.3540 C   0  0  0  0  0  0  0  0  0  0  0  0
   -0.8988   -4.3131   32.2135 O   0  0  0  0  0  0  0  0  0  0  0  0
    0.9462   -5.6875   32.6746 C   0  0  0  0  0  0  0  0  0  0  0  0
   -0.0796   -6.6952   32.8127 N   0  0  0  0  0  0  0  0  0  0  0  0
   -0.6984   -7.3850   31.8103 C   0  0  0  0  0  0  0  0  0  0  0  0
   -0.2617   -7.3191   30.1596 S   0  0  0  0  0  0  0  0  0  0  0  0
   -1.6725   -8.1051   32.2908 N   0  0  0  0  0  0  0  0  0  0  0  0
   -1.7279   -7.8556   33.6420 N   0  0  0  0  0  0  0  0  0  0  0  0
   -0.7810   -6.9949   33.9538 C   0  0  0  0  0  0  0  0  0  0  0  0
   -0.4982   -6.5339   35.2821 C   0  0  0  0  0  0  0  0  0  0  0  0
   -0.3499   -7.3353   36.3928 C   0  0  0  0  0  0  0  0  0  0  0  0
    0.0059   -6.6047   37.5640 C   0  0  0  0  0  0  0  0  0  0  0  0
    0.0432   -5.2508   37.3293 C   0  0  0  0  0  0  0  0  0  0  0  0
   -0.3215   -4.8810   35.7029 S   0  0  0  0  0  0  0  0  0  0  0  0
   -0.0292   -1.4908   31.6864 C   0  0  0  0  0  0  0  0  0  0  0  0
   -0.2913   -0.5353   30.7543 C   0  0  0  0  0  0  0  0  0  0  0  0
   -1.6304   -0.1874   30.2286 C   0  0  0  0  0  0  0  0  0  0  0  0
  1  2  1  0
  2  3  1  0
  3  4  1  0
  4  5  2  0
  5  6  1  0
  6  7  2  0
  7  8  1  0
  8  9  1  0
  9 10  2  0
  9 11  1  0
 11 12  1  0
 12 13  1  0
 13 14  1  0
 13 15  2  0
 15 16  1  0
 16 17  2  0
 17 18  1  0
 18 19  2  0
 19 20  1  0
 20 21  2  0
 21 22  1  0
  7 23  1  0
 23 24  2  0
 24 25  1  0
 25  2  1  0
 24  4  1  0
 17 12  1  0
 22 18  1  0
M  END
>  <ref_mols>  (1448) 
B0454a

>  <gnina_score>  (1448) 
5.423

>  <smina_score_min>  (1448) 
-5.319

>  <ref_pdb>  (1448) 
B0454a

>  <inspiration_score>  (1448) 
None

>  <inchikey>  (1448) 
WMVTZOAJNSFVBZ-UHFFFAOYSA-N

>  <tags>  (1448) 
BulkDock Fragalysis export,openbind_d68ev3c_c2_elabs_scored,openbind_d68ev3c_c2_elabs_scored_4.5plus,openbind_d68ev3c_c2_elabs,openbind_d68ev3c_c2_elabs_scored_5plus,syndirella_product,openbind_d68ev3c_c2_elabs_scored_top80percent,syndirella_placed

>  <smiles>  (1448) 
CN1Cc2ccc(NC(=O)Cn3c(S)nnc3-c3cccs3)cc2C1

>  <subsites>  (1448) 
None

>  <rmsd(smina/fragmenstein)>  (1448) 
0.307

>  <alias>  (1448) 
None

>  <energy_score>  (1448) 
-32.316703

>  <HIPPO Pose ID>  (1448) 
117041

>  <distance_score>  (1448) 
1.431761

>  <HIPPO Compound ID>  (1448) 
151396

>  <gnina_score_min>  (1448) 
5.447

>  <name>  (1448) 
P117041

>  <exports>  (1448) 
['/opt/xchem-fragalysis-2/maxwin/BulkDock/OUTPUTS/openbind_d68ev3c_c2_elabs_1LOTQJ3.sdf', '/opt/xchem-fragalysis-2/maxwin/BulkDock/OUTPUTS/openbind_d68ev3c_c2_elabs_1LSYI5W.sdf']

$$$$
P117044
     RDKit          3D

 25 28  0  0  0  0  0  0  0  0999 V2000
    1.8787   -5.5272   34.3222 C   0  0  0  0  0  0  0  0  0  0  0  0
    0.9531   -4.9086   33.2707 C   0  0  2  0  0  0  0  0  0  0  0  0
    0.1320   -3.7388   33.8399 C   0  0  0  0  0  0  0  0  0  0  0  0
   -0.1511   -3.6363   34.9757 O   0  0  0  0  0  0  0  0  0  0  0  0
   -0.2650   -2.8881   32.6495 N   0  0  0  0  0  0  0  0  0  0  0  0
   -1.2255   -1.7145   32.5485 C   0  0  0  0  0  0  0  0  0  0  0  0
   -0.9805   -0.9560   31.3066 C   0  0  0  0  0  0  0  0  0  0  0  0
   -1.7628   -0.3879   30.3367 C   0  0  0  0  0  0  0  0  0  0  0  0
   -1.1299    0.2226   29.2521 C   0  0  0  0  0  0  0  0  0  0  0  0
    0.2634    0.3031   29.2125 C   0  0  0  0  0  0  0  0  0  0  0  0
    0.8327    0.9350   28.1475 O   0  0  0  0  0  0  0  0  0  0  0  0
    1.0425   -0.2522   30.2260 C   0  0  0  0  0  0  0  0  0  0  0  0
    0.3767   -0.9110   31.2403 C   0  0  0  0  0  0  0  0  0  0  0  0
    0.7586   -1.7262   32.4169 C   0  0  0  0  0  0  0  0  0  0  0  0
    0.1171   -5.8724   32.5501 N   0  0  0  0  0  0  0  0  0  0  0  0
   -0.6722   -6.8876   33.0287 C   0  0  0  0  0  0  0  0  0  0  0  0
   -0.9940   -7.1958   34.6933 S   0  0  0  0  0  0  0  0  0  0  0  0
   -1.1443   -7.6025   32.0321 N   0  0  0  0  0  0  0  0  0  0  0  0
   -0.7309   -7.0137   30.8613 N   0  0  0  0  0  0  0  0  0  0  0  0
   -0.0056   -5.9556   31.1723 C   0  0  0  0  0  0  0  0  0  0  0  0
    0.5012   -5.0135   30.2137 C   0  0  0  0  0  0  0  0  0  0  0  0
   -0.2078   -4.0117   29.5843 C   0  0  0  0  0  0  0  0  0  0  0  0
    0.5956   -3.2400   28.6983 C   0  0  0  0  0  0  0  0  0  0  0  0
    1.9008   -3.6668   28.6752 C   0  0  0  0  0  0  0  0  0  0  0  0
    2.1313   -5.0118   29.6937 S   0  0  0  0  0  0  0  0  0  0  0  0
  2  1  1  1
  2  3  1  0
  3  4  2  0
  3  5  1  0
  5  6  1  0
  6  7  1  0
  7  8  2  0
  8  9  1  0
  9 10  2  0
 10 11  1  0
 10 12  1  0
 12 13  2  0
 13 14  1  0
  2 15  1  0
 15 16  1  0
 16 17  1  0
 16 18  2  0
 18 19  1  0
 19 20  2  0
 20 21  1  0
 21 22  2  0
 22 23  1  0
 23 24  2  0
 24 25  1  0
 14  5  1  0
 20 15  1  0
 25 21  1  0
 13  7  1  0
M  END
>  <ref_mols>  (1449) 
B0454a

>  <gnina_score>  (1449) 
5.42

>  <smina_score_min>  (1449) 
-5.858

>  <ref_pdb>  (1449) 
B0454a

>  <inspiration_score>  (1449) 
None

>  <inchikey>  (1449) 
JFQCTZUQCOTFHQ-SNVBAGLBSA-N

>  <tags>  (1449) 
BulkDock Fragalysis export,openbind_d68ev3c_c2_elabs_scored,openbind_d68ev3c_c2_elabs_scored_4.5plus,openbind_d68ev3c_c2_elabs,openbind_d68ev3c_c2_elabs_scored_5plus,syndirella_product,openbind_d68ev3c_c2_elabs_scored_top80percent,syndirella_placed

>  <smiles>  (1449) 
C[C@H](C(=O)N1Cc2ccc(O)cc2C1)n1c(S)nnc1-c1cccs1

>  <subsites>  (1449) 
None

>  <rmsd(smina/fragmenstein)>  (1449) 
0.376

>  <alias>  (1449) 
None

>  <energy_score>  (1449) 
-1.216519

>  <HIPPO Pose ID>  (1449) 
117044

>  <distance_score>  (1449) 
1.469164

>  <HIPPO Compound ID>  (1449) 
151420

>  <gnina_score_min>  (1449) 
5.443

>  <name>  (1449) 
P117044

>  <exports>  (1449) 
['/opt/xchem-fragalysis-2/maxwin/BulkDock/OUTPUTS/openbind_d68ev3c_c2_elabs_1LOTQJ3.sdf', '/opt/xchem-fragalysis-2/maxwin/BulkDock/OUTPUTS/openbind_d68ev3c_c2_elabs_1LSYI5W.sdf']

$$$$
P117047
     RDKit          3D

 25 28  0  0  0  0  0  0  0  0999 V2000
   -1.7982   -4.2648   31.9033 O   0  0  0  0  0  0  0  0  0  0  0  0
   -0.6374   -4.0845   31.9649 C   0  0  0  0  0  0  0  0  0  0  0  0
    0.3859   -5.2003   31.8140 C   0  0  0  0  0  0  0  0  0  0  0  0
   -0.1836   -6.4428   32.2800 N   0  0  0  0  0  0  0  0  0  0  0  0
   -0.7161   -7.4478   31.5363 C   0  0  0  0  0  0  0  0  0  0  0  0
   -0.3209   -7.7796   29.9146 S   0  0  0  0  0  0  0  0  0  0  0  0
   -1.4632   -8.2152   32.2766 N   0  0  0  0  0  0  0  0  0  0  0  0
   -1.3406   -7.7653   33.5672 N   0  0  0  0  0  0  0  0  0  0  0  0
   -0.4762   -6.7727   33.5807 C   0  0  0  0  0  0  0  0  0  0  0  0
    0.1138   -6.2042   34.7557 C   0  0  0  0  0  0  0  0  0  0  0  0
    1.4563   -5.9609   34.9890 C   0  0  0  0  0  0  0  0  0  0  0  0
    1.6983   -5.4135   36.2842 C   0  0  0  0  0  0  0  0  0  0  0  0
    0.5339   -5.2683   37.0023 C   0  0  0  0  0  0  0  0  0  0  0  0
   -0.8293   -5.7902   36.1172 S   0  0  0  0  0  0  0  0  0  0  0  0
    0.1413   -2.8106   32.1619 N   0  0  0  0  0  0  0  0  0  0  0  0
    0.3917   -2.5223   33.6714 C   0  0  0  0  0  0  0  0  0  0  0  0
    0.7787   -1.1277   33.2428 C   0  0  0  0  0  0  0  0  0  0  0  0
   -0.3229   -1.3719   32.2389 C   0  0  1  0  0  0  0  0  0  0  0  0
   -0.3884   -0.6495   30.8456 C   0  0  0  0  0  0  0  0  0  0  0  0
    0.1394    0.6362   30.6486 C   0  0  0  0  0  0  0  0  0  0  0  0
   -0.0730    1.3384   29.4626 C   0  0  0  0  0  0  0  0  0  0  0  0
   -0.8216    0.7648   28.4420 C   0  0  0  0  0  0  0  0  0  0  0  0
   -1.3262    1.8440   26.9795 Br  0  0  0  0  0  0  0  0  0  0  0  0
   -1.2768   -0.5409   28.5532 C   0  0  0  0  0  0  0  0  0  0  0  0
   -1.0674   -1.2313   29.7484 C   0  0  0  0  0  0  0  0  0  0  0  0
  1  2  2  0
  2  3  1  0
  3  4  1  0
  4  5  1  0
  5  6  1  0
  5  7  2  0
  7  8  1  0
  8  9  2  0
  9 10  1  0
 10 11  2  0
 11 12  1  0
 12 13  2  0
 13 14  1  0
  2 15  1  0
 15 16  1  0
 16 17  1  0
 17 18  1  0
 18 19  1  6
 19 20  2  0
 20 21  1  0
 21 22  2  0
 22 23  1  0
 22 24  1  0
 24 25  2  0
  9  4  1  0
 14 10  1  0
 18 15  1  0
 25 19  1  0
M  END
>  <ref_mols>  (1450) 
B0454a

>  <gnina_score>  (1450) 
5.989

>  <smina_score_min>  (1450) 
-5.697

>  <ref_pdb>  (1450) 
B0454a

>  <inspiration_score>  (1450) 
None

>  <inchikey>  (1450) 
KDPUYTMLLBUUBW-ZDUSSCGKSA-N

>  <tags>  (1450) 
BulkDock Fragalysis export,openbind_d68ev3c_c2_elabs_scored,openbind_d68ev3c_c2_elabs_scored_4.5plus,openbind_d68ev3c_c2_elabs,openbind_d68ev3c_c2_elabs_scored_5plus,syndirella_product,openbind_d68ev3c_c2_elabs_scored_top80percent,syndirella_placed

>  <smiles>  (1450) 
O=C(Cn1c(S)nnc1-c1cccs1)N1CC[C@H]1c1ccc(Br)cc1

>  <subsites>  (1450) 
None

>  <rmsd(smina/fragmenstein)>  (1450) 
0.797

>  <alias>  (1450) 
None

>  <energy_score>  (1450) 
-44.92068

>  <HIPPO Pose ID>  (1450) 
117047

>  <distance_score>  (1450) 
0.857805

>  <HIPPO Compound ID>  (1450) 
151424

>  <gnina_score_min>  (1450) 
5.784

>  <name>  (1450) 
P117047

>  <exports>  (1450) 
['/opt/xchem-fragalysis-2/maxwin/BulkDock/OUTPUTS/openbind_d68ev3c_c2_elabs_1LOTQJ3.sdf', '/opt/xchem-fragalysis-2/maxwin/BulkDock/OUTPUTS/openbind_d68ev3c_c2_elabs_1LSYI5W.sdf']

$$$$
P117060
     RDKit          3D

 26 28  0  0  0  0  0  0  0  0999 V2000
    2.3070   -2.8578   28.7268 C   0  0  0  0  0  0  0  0  0  0  0  0
    2.4014   -3.4894   30.0832 C   0  0  0  0  0  0  0  0  0  0  0  0
    3.5077   -3.2258   30.8954 C   0  0  0  0  0  0  0  0  0  0  0  0
    3.6067   -3.8133   32.1531 C   0  0  0  0  0  0  0  0  0  0  0  0
    2.5995   -4.6699   32.6071 C   0  0  0  0  0  0  0  0  0  0  0  0
    1.4565   -4.9109   31.8358 C   0  0  0  0  0  0  0  0  0  0  0  0
    0.3823   -5.8039   32.2774 C   0  0  0  0  0  0  0  0  0  0  0  0
   -0.2290   -6.6700   31.4764 N   0  0  0  0  0  0  0  0  0  0  0  0
   -1.0770   -7.4527   32.2217 N   0  0  0  0  0  0  0  0  0  0  0  0
   -1.0056   -7.0146   33.4520 C   0  0  0  0  0  0  0  0  0  0  0  0
   -1.7596   -7.6502   34.8603 S   0  0  0  0  0  0  0  0  0  0  0  0
   -0.1791   -5.9239   33.5316 N   0  0  0  0  0  0  0  0  0  0  0  0
    0.0163   -5.1912   34.7763 C   0  0  0  0  0  0  0  0  0  0  0  0
    0.6300   -3.8236   34.7310 C   0  0  0  0  0  0  0  0  0  0  0  0
    1.6454   -3.5934   35.2688 O   0  0  0  0  0  0  0  0  0  0  0  0
   -0.3130   -2.8904   33.9081 N   0  0  0  0  0  0  0  0  0  0  0  0
   -0.2467   -1.5337   33.6744 N   0  0  0  0  0  0  0  0  0  0  0  0
    1.1078   -1.1085   33.3360 C   0  0  0  0  0  0  0  0  0  0  0  0
   -1.2923   -0.9998   32.7952 C   0  0  0  0  0  0  0  0  0  0  0  0
   -1.0141   -0.9165   31.3119 C   0  0  0  0  0  0  0  0  0  0  0  0
   -1.3594   -1.9566   30.4454 C   0  0  0  0  0  0  0  0  0  0  0  0
   -1.1947   -1.8043   29.0674 C   0  0  0  0  0  0  0  0  0  0  0  0
   -0.6793   -0.6224   28.5413 C   0  0  0  0  0  0  0  0  0  0  0  0
   -0.2923    0.4033   29.3932 C   0  0  0  0  0  0  0  0  0  0  0  0
   -0.4530    0.2533   30.7697 C   0  0  0  0  0  0  0  0  0  0  0  0
    1.3834   -4.3294   30.5608 C   0  0  0  0  0  0  0  0  0  0  0  0
  1  2  1  0
  2  3  2  0
  3  4  1  0
  4  5  2  0
  5  6  1  0
  6  7  1  0
  7  8  2  0
  8  9  1  0
  9 10  2  0
 10 11  1  0
 10 12  1  0
 12 13  1  0
 13 14  1  0
 14 15  2  0
 14 16  1  0
 16 17  1  0
 17 18  1  0
 17 19  1  0
 19 20  1  0
 20 21  2  0
 21 22  1  0
 22 23  2  0
 23 24  1  0
 24 25  2  0
  6 26  2  0
 26  2  1  0
 12  7  1  0
 25 20  1  0
M  END
>  <ref_mols>  (1451) 
B0454a

>  <gnina_score>  (1451) 
5.177

>  <smina_score_min>  (1451) 
-5.488

>  <ref_pdb>  (1451) 
B0454a

>  <inspiration_score>  (1451) 
None

>  <inchikey>  (1451) 
ZUOATJZSRGHBAS-UHFFFAOYSA-N

>  <tags>  (1451) 
BulkDock Fragalysis export,openbind_d68ev3c_c2_elabs_scored,openbind_d68ev3c_c2_elabs_scored_4.5plus,openbind_d68ev3c_c2_elabs,openbind_d68ev3c_c2_elabs_scored_5plus,syndirella_product,openbind_d68ev3c_c2_elabs_scored_top80percent,syndirella_placed

>  <smiles>  (1451) 
Cc1cccc(-c2nnc(S)n2CC(=O)NN(C)Cc2ccccc2)c1

>  <subsites>  (1451) 
None

>  <rmsd(smina/fragmenstein)>  (1451) 
1.618

>  <alias>  (1451) 
None

>  <energy_score>  (1451) 
-10.430461

>  <HIPPO Pose ID>  (1451) 
117060

>  <distance_score>  (1451) 
1.496684

>  <HIPPO Compound ID>  (1451) 
151489

>  <gnina_score_min>  (1451) 
5.317

>  <name>  (1451) 
P117060

>  <exports>  (1451) 
['/opt/xchem-fragalysis-2/maxwin/BulkDock/OUTPUTS/openbind_d68ev3c_c2_elabs_1LOTQJ3.sdf', '/opt/xchem-fragalysis-2/maxwin/BulkDock/OUTPUTS/openbind_d68ev3c_c2_elabs_1LSYI5W.sdf']

$$$$
P117062
     RDKit          3D

 26 29  0  0  0  0  0  0  0  0999 V2000
    0.2754   -5.2424   39.4095 C   0  0  0  0  0  0  0  0  0  0  0  0
   -0.0127   -5.5914   37.9803 C   0  0  0  0  0  0  0  0  0  0  0  0
    0.1111   -6.9084   37.5359 C   0  0  0  0  0  0  0  0  0  0  0  0
   -0.2329   -7.2458   36.2239 C   0  0  0  0  0  0  0  0  0  0  0  0
   -0.6594   -6.2809   35.3106 C   0  0  0  0  0  0  0  0  0  0  0  0
   -0.9126   -6.6960   33.9281 C   0  0  0  0  0  0  0  0  0  0  0  0
   -1.5564   -7.7933   33.5662 N   0  0  0  0  0  0  0  0  0  0  0  0
   -1.3979   -7.9886   32.2203 N   0  0  0  0  0  0  0  0  0  0  0  0
   -0.6732   -6.9980   31.7841 C   0  0  0  0  0  0  0  0  0  0  0  0
   -0.0495   -6.8938   30.2033 S   0  0  0  0  0  0  0  0  0  0  0  0
   -0.4183   -6.1076   32.7832 N   0  0  0  0  0  0  0  0  0  0  0  0
    0.2081   -4.8084   32.6558 C   0  0  0  0  0  0  0  0  0  0  0  0
   -0.8492   -3.7373   32.4100 C   0  0  0  0  0  0  0  0  0  0  0  0
   -1.9820   -3.9856   32.2050 O   0  0  0  0  0  0  0  0  0  0  0  0
   -0.1430   -2.4053   32.5058 N   0  0  0  0  0  0  0  0  0  0  0  0
   -0.1409   -1.8647   33.9635 C   0  0  0  0  0  0  0  0  0  0  0  0
    0.2849   -0.5423   33.3622 C   0  0  0  0  0  0  0  0  0  0  0  0
   -0.6530   -0.9962   32.2689 C   0  0  1  0  0  0  0  0  0  0  0  0
   -0.5495   -0.5415   30.7772 C   0  0  0  0  0  0  0  0  0  0  0  0
    0.0834    0.6459   30.3794 C   0  0  0  0  0  0  0  0  0  0  0  0
    0.0693    1.0692   29.0496 C   0  0  0  0  0  0  0  0  0  0  0  0
   -0.5734    0.3064   28.0813 C   0  0  0  0  0  0  0  0  0  0  0  0
   -1.1844   -0.8880   28.4316 C   0  0  0  0  0  0  0  0  0  0  0  0
   -1.1697   -1.3013   29.7597 C   0  0  0  0  0  0  0  0  0  0  0  0
   -0.8166   -4.9732   35.7744 C   0  0  0  0  0  0  0  0  0  0  0  0
   -0.5031   -4.6288   37.0947 C   0  0  0  0  0  0  0  0  0  0  0  0
  1  2  1  0
  2  3  2  0
  3  4  1  0
  4  5  2  0
  5  6  1  0
  6  7  2  0
  7  8  1  0
  8  9  2  0
  9 10  1  0
  9 11  1  0
 11 12  1  0
 12 13  1  0
 13 14  2  0
 13 15  1  0
 15 16  1  0
 16 17  1  0
 17 18  1  0
 18 19  1  6
 19 20  2  0
 20 21  1  0
 21 22  2  0
 22 23  1  0
 23 24  2  0
  5 25  1  0
 25 26  2  0
 26  2  1  0
 11  6  1  0
 18 15  1  0
 24 19  1  0
M  END
>  <ref_mols>  (1452) 
B0454a

>  <gnina_score>  (1452) 
5.797

>  <smina_score_min>  (1452) 
-5.741

>  <ref_pdb>  (1452) 
B0454a

>  <inspiration_score>  (1452) 
None

>  <inchikey>  (1452) 
OCOZULATTIXEIS-KRWDZBQOSA-N

>  <tags>  (1452) 
BulkDock Fragalysis export,openbind_d68ev3c_c2_elabs_scored,openbind_d68ev3c_c2_elabs_scored_4.5plus,openbind_d68ev3c_c2_elabs,openbind_d68ev3c_c2_elabs_scored_5plus,syndirella_product,openbind_d68ev3c_c2_elabs_scored_top80percent,syndirella_placed

>  <smiles>  (1452) 
Cc1ccc(-c2nnc(S)n2CC(=O)N2CC[C@H]2c2ccccc2)cc1

>  <subsites>  (1452) 
None

>  <rmsd(smina/fragmenstein)>  (1452) 
0.733

>  <alias>  (1452) 
None

>  <energy_score>  (1452) 
-18.263082

>  <HIPPO Pose ID>  (1452) 
117062

>  <distance_score>  (1452) 
0.859665

>  <HIPPO Compound ID>  (1452) 
151518

>  <gnina_score_min>  (1452) 
5.773

>  <name>  (1452) 
P117062

>  <exports>  (1452) 
['/opt/xchem-fragalysis-2/maxwin/BulkDock/OUTPUTS/openbind_d68ev3c_c2_elabs_1LOTQJ3.sdf', '/opt/xchem-fragalysis-2/maxwin/BulkDock/OUTPUTS/openbind_d68ev3c_c2_elabs_1LSYI5W.sdf']

$$$$
P117067
     RDKit          3D

 26 28  0  0  0  0  0  0  0  0999 V2000
    1.0024   -6.5024   39.0760 C   0  0  0  0  0  0  0  0  0  0  0  0
    0.7386   -6.5907   37.6043 C   0  0  0  0  0  0  0  0  0  0  0  0
   -0.4669   -6.1346   37.0702 C   0  0  0  0  0  0  0  0  0  0  0  0
   -0.7536   -6.2765   35.7084 C   0  0  0  0  0  0  0  0  0  0  0  0
    0.1731   -6.8481   34.8412 C   0  0  0  0  0  0  0  0  0  0  0  0
   -0.0563   -6.7992   33.3935 C   0  0  0  0  0  0  0  0  0  0  0  0
   -0.9861   -7.3943   32.6619 N   0  0  0  0  0  0  0  0  0  0  0  0
   -0.8820   -6.9449   31.3589 N   0  0  0  0  0  0  0  0  0  0  0  0
    0.0958   -6.0779   31.3306 C   0  0  0  0  0  0  0  0  0  0  0  0
    0.5851   -5.1219   29.9866 S   0  0  0  0  0  0  0  0  0  0  0  0
    0.6726   -5.9804   32.5597 N   0  0  0  0  0  0  0  0  0  0  0  0
    1.8187   -5.1710   32.9210 C   0  0  0  0  0  0  0  0  0  0  0  0
    1.5078   -4.0361   33.8689 C   0  0  0  0  0  0  0  0  0  0  0  0
    2.0427   -3.9381   34.9060 O   0  0  0  0  0  0  0  0  0  0  0  0
    0.4818   -3.0901   33.1659 N   0  0  0  0  0  0  0  0  0  0  0  0
    0.0090   -1.8561   33.5373 N   0  0  0  0  0  0  0  0  0  0  0  0
    1.1042   -0.9120   33.6827 C   0  0  0  0  0  0  0  0  0  0  0  0
   -1.1316   -1.3635   32.7549 C   0  0  0  0  0  0  0  0  0  0  0  0
   -0.8907   -1.0488   31.2937 C   0  0  0  0  0  0  0  0  0  0  0  0
   -0.3074    0.1672   30.9043 C   0  0  0  0  0  0  0  0  0  0  0  0
   -0.1505    0.4870   29.5541 C   0  0  0  0  0  0  0  0  0  0  0  0
   -0.5766   -0.4044   28.5756 C   0  0  0  0  0  0  0  0  0  0  0  0
   -1.1498   -1.6167   28.9461 C   0  0  0  0  0  0  0  0  0  0  0  0
   -1.3072   -1.9385   30.2953 C   0  0  0  0  0  0  0  0  0  0  0  0
    1.3834   -7.3041   35.3832 C   0  0  0  0  0  0  0  0  0  0  0  0
    1.6600   -7.1906   36.7498 C   0  0  0  0  0  0  0  0  0  0  0  0
  1  2  1  0
  2  3  2  0
  3  4  1  0
  4  5  2  0
  5  6  1  0
  6  7  2  0
  7  8  1  0
  8  9  2  0
  9 10  1  0
  9 11  1  0
 11 12  1  0
 12 13  1  0
 13 14  2  0
 13 15  1  0
 15 16  1  0
 16 17  1  0
 16 18  1  0
 18 19  1  0
 19 20  2  0
 20 21  1  0
 21 22  2  0
 22 23  1  0
 23 24  2  0
  5 25  1  0
 25 26  2  0
 26  2  1  0
 11  6  1  0
 24 19  1  0
M  END
>  <ref_mols>  (1453) 
B0454a

>  <gnina_score>  (1453) 
5.22

>  <smina_score_min>  (1453) 
-5.633

>  <ref_pdb>  (1453) 
B0454a

>  <inspiration_score>  (1453) 
None

>  <inchikey>  (1453) 
NSAFPLPNTFYJRR-UHFFFAOYSA-N

>  <tags>  (1453) 
BulkDock Fragalysis export,openbind_d68ev3c_c2_elabs_scored,openbind_d68ev3c_c2_elabs_scored_4.5plus,openbind_d68ev3c_c2_elabs,openbind_d68ev3c_c2_elabs_scored_5plus,syndirella_product,openbind_d68ev3c_c2_elabs_scored_top80percent,syndirella_placed

>  <smiles>  (1453) 
Cc1ccc(-c2nnc(S)n2CC(=O)NN(C)Cc2ccccc2)cc1

>  <subsites>  (1453) 
None

>  <rmsd(smina/fragmenstein)>  (1453) 
0.873

>  <alias>  (1453) 
None

>  <energy_score>  (1453) 
-15.809481

>  <HIPPO Pose ID>  (1453) 
117067

>  <distance_score>  (1453) 
1.524846

>  <HIPPO Compound ID>  (1453) 
151520

>  <gnina_score_min>  (1453) 
5.38

>  <name>  (1453) 
P117067

>  <exports>  (1453) 
['/opt/xchem-fragalysis-2/maxwin/BulkDock/OUTPUTS/openbind_d68ev3c_c2_elabs_1LOTQJ3.sdf', '/opt/xchem-fragalysis-2/maxwin/BulkDock/OUTPUTS/openbind_d68ev3c_c2_elabs_1LSYI5W.sdf']

$$$$
P117078
     RDKit          3D

 26 29  0  0  0  0  0  0  0  0999 V2000
    1.5132   -1.1160   33.2337 C   0  0  0  0  0  0  0  0  0  0  0  0
    0.1077   -1.5901   33.1203 C   0  0  1  0  0  0  0  0  0  0  0  0
   -0.7831   -1.1918   31.9916 C   0  0  1  0  0  0  0  0  0  0  0  0
   -0.5241   -0.5805   30.6626 C   0  0  0  0  0  0  0  0  0  0  0  0
    0.1653    0.6229   30.4965 C   0  0  0  0  0  0  0  0  0  0  0  0
    0.2666    1.2157   29.2375 C   0  0  0  0  0  0  0  0  0  0  0  0
   -0.3263    0.6166   28.1286 C   0  0  0  0  0  0  0  0  0  0  0  0
   -1.0081   -0.5837   28.2675 C   0  0  0  0  0  0  0  0  0  0  0  0
   -1.0981   -1.1764   29.5197 C   0  0  0  0  0  0  0  0  0  0  0  0
   -0.2272   -2.4953   32.0884 N   0  0  0  0  0  0  0  0  0  0  0  0
   -0.8792   -3.8166   32.2403 C   0  0  0  0  0  0  0  0  0  0  0  0
   -2.0155   -4.1067   32.2390 O   0  0  0  0  0  0  0  0  0  0  0  0
    0.2200   -4.8431   32.4838 C   0  0  0  0  0  0  0  0  0  0  0  0
   -0.3773   -6.1479   32.6878 N   0  0  0  0  0  0  0  0  0  0  0  0
   -0.6796   -7.0685   31.7272 C   0  0  0  0  0  0  0  0  0  0  0  0
   -0.1198   -7.0282   30.1190 S   0  0  0  0  0  0  0  0  0  0  0  0
   -1.4043   -8.0299   32.2236 N   0  0  0  0  0  0  0  0  0  0  0  0
   -1.5263   -7.7809   33.5626 N   0  0  0  0  0  0  0  0  0  0  0  0
   -0.8597   -6.6804   33.8661 C   0  0  0  0  0  0  0  0  0  0  0  0
   -0.5976   -6.2129   35.2306 C   0  0  0  0  0  0  0  0  0  0  0  0
   -0.2281   -7.1616   36.1926 C   0  0  0  0  0  0  0  0  0  0  0  0
    0.1067   -6.7853   37.4966 C   0  0  0  0  0  0  0  0  0  0  0  0
    0.0258   -5.4489   37.8669 C   0  0  0  0  0  0  0  0  0  0  0  0
    0.4147   -4.9756   39.4726 Cl  0  0  0  0  0  0  0  0  0  0  0  0
   -0.3892   -4.4932   36.9437 C   0  0  0  0  0  0  0  0  0  0  0  0
   -0.7005   -4.8761   35.6333 C   0  0  0  0  0  0  0  0  0  0  0  0
  2  1  1  6
  2  3  1  0
  3  4  1  6
  4  5  2  0
  5  6  1  0
  6  7  2  0
  7  8  1  0
  8  9  2  0
  3 10  1  0
 10 11  1  0
 11 12  2  0
 11 13  1  0
 13 14  1  0
 14 15  1  0
 15 16  1  0
 15 17  2  0
 17 18  1  0
 18 19  2  0
 19 20  1  0
 20 21  2  0
 21 22  1  0
 22 23  2  0
 23 24  1  0
 23 25  1  0
 25 26  2  0
 10  2  1  0
 19 14  1  0
 26 20  1  0
  9  4  1  0
M  END
>  <ref_mols>  (1454) 
B0454a

>  <gnina_score>  (1454) 
5.845

>  <smina_score_min>  (1454) 
-5.501

>  <ref_pdb>  (1454) 
B0454a

>  <inspiration_score>  (1454) 
None

>  <inchikey>  (1454) 
XTQMERGOOUUIGO-BLPFDFMYSA-N

>  <tags>  (1454) 
BulkDock Fragalysis export,openbind_d68ev3c_c2_elabs_scored,openbind_d68ev3c_c2_elabs_scored_4.5plus,openbind_d68ev3c_c2_elabs,openbind_d68ev3c_c2_elabs_scored_5plus,syndirella_product,openbind_d68ev3c_c2_elabs_scored_top80percent,syndirella_placed

>  <smiles>  (1454) 
C[C@H]1[C@@H](c2ccccc2)N1C(=O)Cn1c(S)nnc1-c1ccc(Cl)cc1

>  <subsites>  (1454) 
None

>  <rmsd(smina/fragmenstein)>  (1454) 
1.048

>  <alias>  (1454) 
None

>  <energy_score>  (1454) 
-27.408903

>  <HIPPO Pose ID>  (1454) 
117078

>  <distance_score>  (1454) 
0.91644

>  <HIPPO Compound ID>  (1454) 
151529

>  <gnina_score_min>  (1454) 
5.702

>  <name>  (1454) 
P117078

>  <exports>  (1454) 
['/opt/xchem-fragalysis-2/maxwin/BulkDock/OUTPUTS/openbind_d68ev3c_c2_elabs_1LOTQJ3.sdf', '/opt/xchem-fragalysis-2/maxwin/BulkDock/OUTPUTS/openbind_d68ev3c_c2_elabs_1LSYI5W.sdf']

$$$$
P117097
     RDKit          3D

 26 29  0  0  0  0  0  0  0  0999 V2000
    0.6120   -4.6748   34.3921 C   0  0  0  0  0  0  0  0  0  0  0  0
    0.1333   -4.5880   32.9474 C   0  0  2  0  0  0  0  0  0  0  0  0
   -1.0340   -3.6101   32.6789 C   0  0  0  0  0  0  0  0  0  0  0  0
   -2.0579   -3.9729   32.2208 O   0  0  0  0  0  0  0  0  0  0  0  0
   -0.5507   -2.2187   33.0083 N   0  0  0  0  0  0  0  0  0  0  0  0
   -0.9203   -1.8156   34.4704 C   0  0  0  0  0  0  0  0  0  0  0  0
   -0.5764   -0.4014   34.0579 C   0  0  0  0  0  0  0  0  0  0  0  0
   -1.1862   -0.8702   32.7602 C   0  0  1  0  0  0  0  0  0  0  0  0
   -0.8183   -0.2910   31.3431 C   0  0  0  0  0  0  0  0  0  0  0  0
   -1.4573   -0.7990   30.1882 C   0  0  0  0  0  0  0  0  0  0  0  0
   -1.2566   -0.2568   28.9169 C   0  0  0  0  0  0  0  0  0  0  0  0
   -0.3955    0.8191   28.7765 C   0  0  0  0  0  0  0  0  0  0  0  0
   -0.2327    1.6242   27.2742 Cl  0  0  0  0  0  0  0  0  0  0  0  0
    0.3101    1.2990   29.8735 C   0  0  0  0  0  0  0  0  0  0  0  0
    0.1036    0.7451   31.1391 C   0  0  0  0  0  0  0  0  0  0  0  0
   -0.1611   -5.8576   32.2823 N   0  0  0  0  0  0  0  0  0  0  0  0
   -0.7846   -6.9870   32.7372 C   0  0  0  0  0  0  0  0  0  0  0  0
   -1.2145   -7.2883   34.3792 S   0  0  0  0  0  0  0  0  0  0  0  0
   -0.9994   -7.8144   31.7394 N   0  0  0  0  0  0  0  0  0  0  0  0
   -0.5114   -7.2255   30.5906 N   0  0  0  0  0  0  0  0  0  0  0  0
   -0.0070   -6.0524   30.9197 C   0  0  0  0  0  0  0  0  0  0  0  0
    0.5525   -5.0778   30.0212 C   0  0  0  0  0  0  0  0  0  0  0  0
   -0.0889   -4.0024   29.4389 C   0  0  0  0  0  0  0  0  0  0  0  0
    0.8004   -3.1629   28.7056 C   0  0  0  0  0  0  0  0  0  0  0  0
    2.0897   -3.6351   28.7172 C   0  0  0  0  0  0  0  0  0  0  0  0
    2.2111   -5.0803   29.6052 S   0  0  0  0  0  0  0  0  0  0  0  0
  2  1  1  1
  2  3  1  0
  3  4  2  0
  3  5  1  0
  5  6  1  0
  6  7  1  0
  7  8  1  0
  8  9  1  6
  9 10  2  0
 10 11  1  0
 11 12  2  0
 12 13  1  0
 12 14  1  0
 14 15  2  0
  2 16  1  0
 16 17  1  0
 17 18  1  0
 17 19  2  0
 19 20  1  0
 20 21  2  0
 21 22  1  0
 22 23  2  0
 23 24  1  0
 24 25  2  0
 25 26  1  0
  8  5  1  0
 15  9  1  0
 21 16  1  0
 26 22  1  0
M  END
>  <ref_mols>  (1455) 
B0454a

>  <gnina_score>  (1455) 
6.075

>  <smina_score_min>  (1455) 
-5.424

>  <ref_pdb>  (1455) 
B0454a

>  <inspiration_score>  (1455) 
None

>  <inchikey>  (1455) 
KHYZREJARRYFIN-RISCZKNCSA-N

>  <tags>  (1455) 
BulkDock Fragalysis export,openbind_d68ev3c_c2_elabs_scored,openbind_d68ev3c_c2_elabs_scored_4.5plus,openbind_d68ev3c_c2_elabs,openbind_d68ev3c_c2_elabs_scored_5plus,syndirella_product,openbind_d68ev3c_c2_elabs_scored_top80percent,syndirella_placed

>  <smiles>  (1455) 
C[C@H](C(=O)N1CC[C@H]1c1ccc(Cl)cc1)n1c(S)nnc1-c1cccs1

>  <subsites>  (1455) 
None

>  <rmsd(smina/fragmenstein)>  (1455) 
0.514

>  <alias>  (1455) 
None

>  <energy_score>  (1455) 
-44.029469

>  <HIPPO Pose ID>  (1455) 
117097

>  <distance_score>  (1455) 
1.104526

>  <HIPPO Compound ID>  (1455) 
151555

>  <gnina_score_min>  (1455) 
5.885

>  <name>  (1455) 
P117097

>  <exports>  (1455) 
['/opt/xchem-fragalysis-2/maxwin/BulkDock/OUTPUTS/openbind_d68ev3c_c2_elabs_1LOTQJ3.sdf', '/opt/xchem-fragalysis-2/maxwin/BulkDock/OUTPUTS/openbind_d68ev3c_c2_elabs_1LSYI5W.sdf']

$$$$
P117102
     RDKit          3D

 26 29  0  0  0  0  0  0  0  0999 V2000
   -2.0321   -4.1601   32.3514 O   0  0  0  0  0  0  0  0  0  0  0  0
   -0.8920   -3.9439   32.5497 C   0  0  0  0  0  0  0  0  0  0  0  0
    0.0952   -5.1040   32.8083 C   0  0  1  0  0  0  0  0  0  0  0  0
    0.3051   -5.3279   34.3201 C   0  0  0  0  0  0  0  0  0  0  0  0
    1.7125   -5.7400   34.6905 C   0  0  0  0  0  0  0  0  0  0  0  0
    1.9346   -6.9160   35.4183 C   0  0  0  0  0  0  0  0  0  0  0  0
    3.2242   -7.2587   35.8289 C   0  0  0  0  0  0  0  0  0  0  0  0
    4.3037   -6.4368   35.5142 C   0  0  0  0  0  0  0  0  0  0  0  0
    4.0949   -5.2633   34.7956 C   0  0  0  0  0  0  0  0  0  0  0  0
    2.8062   -4.9123   34.3914 C   0  0  0  0  0  0  0  0  0  0  0  0
   -0.3595   -6.3038   32.0999 N   0  0  0  0  0  0  0  0  0  0  0  0
   -0.1857   -6.5373   30.7666 C   0  0  0  0  0  0  0  0  0  0  0  0
   -0.8025   -7.6442   30.4236 N   0  0  0  0  0  0  0  0  0  0  0  0
   -1.3934   -8.1532   31.5502 N   0  0  0  0  0  0  0  0  0  0  0  0
   -1.1163   -7.3441   32.5481 C   0  0  0  0  0  0  0  0  0  0  0  0
   -0.1385   -2.6314   32.5965 N   0  0  0  0  0  0  0  0  0  0  0  0
   -0.1193   -2.0340   34.0357 C   0  0  0  0  0  0  0  0  0  0  0  0
    0.3349   -0.7442   33.3881 C   0  0  0  0  0  0  0  0  0  0  0  0
   -0.6017   -1.2093   32.3034 C   0  0  1  0  0  0  0  0  0  0  0  0
   -0.5151   -0.7607   30.8125 C   0  0  0  0  0  0  0  0  0  0  0  0
   -1.1050   -1.5302   29.7870 C   0  0  0  0  0  0  0  0  0  0  0  0
   -1.1620   -1.0803   28.4693 C   0  0  0  0  0  0  0  0  0  0  0  0
   -0.6182    0.1530   28.1334 C   0  0  0  0  0  0  0  0  0  0  0  0
   -0.0086    0.9283   29.1116 C   0  0  0  0  0  0  0  0  0  0  0  0
    0.0329    0.4698   30.4248 C   0  0  0  0  0  0  0  0  0  0  0  0
    0.5745    1.2657   31.3595 F   0  0  0  0  0  0  0  0  0  0  0  0
  1  2  2  0
  2  3  1  0
  3  4  1  1
  4  5  1  0
  5  6  2  0
  6  7  1  0
  7  8  2  0
  8  9  1  0
  9 10  2  0
  3 11  1  0
 11 12  1  0
 12 13  2  0
 13 14  1  0
 14 15  2  0
  2 16  1  0
 16 17  1  0
 17 18  1  0
 18 19  1  0
 19 20  1  6
 20 21  2  0
 21 22  1  0
 22 23  2  0
 23 24  1  0
 24 25  2  0
 25 26  1  0
 10  5  1  0
 15 11  1  0
 19 16  1  0
 25 20  1  0
M  END
>  <ref_mols>  (1456) 
B0454a

>  <gnina_score>  (1456) 
5.375

>  <smina_score_min>  (1456) 
-6.104

>  <ref_pdb>  (1456) 
B0454a

>  <inspiration_score>  (1456) 
None

>  <inchikey>  (1456) 
ASLURXYKCCUGRW-RBUKOAKNSA-N

>  <tags>  (1456) 
BulkDock Fragalysis export,openbind_d68ev3c_c2_elabs_scored,openbind_d68ev3c_c2_elabs_scored_4.5plus,openbind_d68ev3c_c2_elabs,openbind_d68ev3c_c2_elabs_scored_5plus,syndirella_product,openbind_d68ev3c_c2_elabs_scored_top80percent,syndirella_placed

>  <smiles>  (1456) 
O=C([C@@H](Cc1ccccc1)n1cnnc1)N1CC[C@H]1c1ccccc1F

>  <subsites>  (1456) 
None

>  <rmsd(smina/fragmenstein)>  (1456) 
1.099

>  <alias>  (1456) 
None

>  <energy_score>  (1456) 
-10.985105

>  <HIPPO Pose ID>  (1456) 
117102

>  <distance_score>  (1456) 
0.649481

>  <HIPPO Compound ID>  (1456) 
151576

>  <gnina_score_min>  (1456) 
5.231

>  <name>  (1456) 
P117102

>  <exports>  (1456) 
['/opt/xchem-fragalysis-2/maxwin/BulkDock/OUTPUTS/openbind_d68ev3c_c2_elabs_1LOTQJ3.sdf', '/opt/xchem-fragalysis-2/maxwin/BulkDock/OUTPUTS/openbind_d68ev3c_c2_elabs_1LSYI5W.sdf']

$$$$
P117109
     RDKit          3D

 26 29  0  0  0  0  0  0  0  0999 V2000
    2.0848   -5.2864   34.0230 C   0  0  0  0  0  0  0  0  0  0  0  0
    1.0508   -5.2962   32.8978 C   0  0  2  0  0  0  0  0  0  0  0  0
    0.5454   -3.8770   32.5400 C   0  0  0  0  0  0  0  0  0  0  0  0
    0.3608   -3.0057   33.3049 O   0  0  0  0  0  0  0  0  0  0  0  0
    0.2716   -3.9488   31.0501 N   0  0  0  0  0  0  0  0  0  0  0  0
    1.4670   -3.4752   30.2492 C   0  0  0  0  0  0  0  0  0  0  0  0
    1.2913   -3.6684   28.7682 C   0  0  0  0  0  0  0  0  0  0  0  0
   -0.1790   -3.4752   28.7077 C   0  0  0  0  0  0  0  0  0  0  0  0
   -0.4186   -2.9553   30.1160 C   0  0  2  0  0  0  0  0  0  0  0  0
   -0.4265   -1.4300   30.1587 C   0  0  0  0  0  0  0  0  0  0  0  0
   -1.2059   -0.8033   29.1577 C   0  0  0  0  0  0  0  0  0  0  0  0
   -1.0805    0.5454   28.8703 C   0  0  0  0  0  0  0  0  0  0  0  0
   -0.2151    1.3150   29.6254 C   0  0  0  0  0  0  0  0  0  0  0  0
    0.4446    0.7515   30.7155 C   0  0  0  0  0  0  0  0  0  0  0  0
    0.3228   -0.6116   30.9995 C   0  0  0  0  0  0  0  0  0  0  0  0
   -0.0761   -6.2207   33.0378 N   0  0  0  0  0  0  0  0  0  0  0  0
   -0.6251   -7.0103   32.0476 C   0  0  0  0  0  0  0  0  0  0  0  0
   -0.1657   -7.0687   30.3958 S   0  0  0  0  0  0  0  0  0  0  0  0
   -1.5659   -7.7735   32.5311 N   0  0  0  0  0  0  0  0  0  0  0  0
   -1.6551   -7.5058   33.8661 N   0  0  0  0  0  0  0  0  0  0  0  0
   -0.7707   -6.5775   34.1749 C   0  0  0  0  0  0  0  0  0  0  0  0
   -0.5484   -6.1549   35.5258 C   0  0  0  0  0  0  0  0  0  0  0  0
   -0.2020   -6.9809   36.5768 C   0  0  0  0  0  0  0  0  0  0  0  0
   -0.0334   -6.2725   37.8024 C   0  0  0  0  0  0  0  0  0  0  0  0
   -0.3160   -4.9338   37.6612 C   0  0  0  0  0  0  0  0  0  0  0  0
   -0.7721   -4.5453   36.0610 S   0  0  0  0  0  0  0  0  0  0  0  0
  2  1  1  1
  2  3  1  0
  3  4  2  0
  3  5  1  0
  5  6  1  0
  6  7  1  0
  7  8  1  0
  8  9  1  0
  9 10  1  6
 10 11  2  0
 11 12  1  0
 12 13  2  0
 13 14  1  0
 14 15  2  0
  2 16  1  0
 16 17  1  0
 17 18  1  0
 17 19  2  0
 19 20  1  0
 20 21  2  0
 21 22  1  0
 22 23  2  0
 23 24  1  0
 24 25  2  0
 25 26  1  0
  9  5  1  0
 15 10  1  0
 21 16  1  0
 26 22  1  0
M  END
>  <ref_mols>  (1457) 
B0454a

>  <gnina_score>  (1457) 
5.851

>  <smina_score_min>  (1457) 
-5.622

>  <ref_pdb>  (1457) 
B0454a

>  <inspiration_score>  (1457) 
None

>  <inchikey>  (1457) 
IUSIYALNKLOCQH-UKRRQHHQSA-N

>  <tags>  (1457) 
BulkDock Fragalysis export,openbind_d68ev3c_c2_elabs_scored,openbind_d68ev3c_c2_elabs_scored_4.5plus,openbind_d68ev3c_c2_elabs,openbind_d68ev3c_c2_elabs_scored_5plus,syndirella_product,openbind_d68ev3c_c2_elabs_scored_top80percent,syndirella_placed

>  <smiles>  (1457) 
C[C@H](C(=O)N1CCC[C@@H]1c1ccccc1)n1c(S)nnc1-c1cccs1

>  <subsites>  (1457) 
None

>  <rmsd(smina/fragmenstein)>  (1457) 
0.539

>  <alias>  (1457) 
None

>  <energy_score>  (1457) 
-7.08448

>  <HIPPO Pose ID>  (1457) 
117109

>  <distance_score>  (1457) 
1.834568

>  <HIPPO Compound ID>  (1457) 
151605

>  <gnina_score_min>  (1457) 
5.89

>  <name>  (1457) 
P117109

>  <exports>  (1457) 
['/opt/xchem-fragalysis-2/maxwin/BulkDock/OUTPUTS/openbind_d68ev3c_c2_elabs_1LOTQJ3.sdf', '/opt/xchem-fragalysis-2/maxwin/BulkDock/OUTPUTS/openbind_d68ev3c_c2_elabs_1LSYI5W.sdf']

$$$$
P117112
     RDKit          3D

 26 29  0  0  0  0  0  0  0  0999 V2000
    1.7092   -4.9275   33.1055 C   0  0  0  0  0  0  0  0  0  0  0  0
    0.3731   -5.0187   32.3781 C   0  0  2  0  0  0  0  0  0  0  0  0
   -0.6239   -3.8402   32.4276 C   0  0  0  0  0  0  0  0  0  0  0  0
   -1.7861   -4.0391   32.4349 O   0  0  0  0  0  0  0  0  0  0  0  0
    0.1445   -2.5409   32.3593 N   0  0  0  0  0  0  0  0  0  0  0  0
    0.4319   -1.9717   33.7810 C   0  0  0  0  0  0  0  0  0  0  0  0
    0.7867   -0.6786   33.0891 C   0  0  0  0  0  0  0  0  0  0  0  0
   -0.3394   -1.1122   32.1784 C   0  0  1  0  0  0  0  0  0  0  0  0
   -0.4376   -0.6400   30.6872 C   0  0  0  0  0  0  0  0  0  0  0  0
    0.0493    0.6082   30.2603 C   0  0  0  0  0  0  0  0  0  0  0  0
   -0.1278    1.0555   28.9489 C   0  0  0  0  0  0  0  0  0  0  0  0
   -0.7952    0.2604   28.0242 C   0  0  0  0  0  0  0  0  0  0  0  0
   -1.2697   -0.9869   28.4025 C   0  0  0  0  0  0  0  0  0  0  0  0
   -1.0909   -1.4177   29.7099 C   0  0  0  0  0  0  0  0  0  0  0  0
   -1.5906   -2.6158   30.0449 F   0  0  0  0  0  0  0  0  0  0  0  0
   -0.3461   -6.2639   32.6447 N   0  0  0  0  0  0  0  0  0  0  0  0
   -0.7395   -7.1855   31.7085 C   0  0  0  0  0  0  0  0  0  0  0  0
   -0.2086   -7.2624   30.0886 S   0  0  0  0  0  0  0  0  0  0  0  0
   -1.5248   -8.0795   32.2373 N   0  0  0  0  0  0  0  0  0  0  0  0
   -1.6062   -7.7964   33.5686 N   0  0  0  0  0  0  0  0  0  0  0  0
   -0.8622   -6.7391   33.8339 C   0  0  0  0  0  0  0  0  0  0  0  0
   -0.5905   -6.3351   35.1866 C   0  0  0  0  0  0  0  0  0  0  0  0
   -0.3370   -7.2141   36.2233 C   0  0  0  0  0  0  0  0  0  0  0  0
   -0.0395   -6.5631   37.4548 C   0  0  0  0  0  0  0  0  0  0  0  0
   -0.1687   -5.1994   37.3496 C   0  0  0  0  0  0  0  0  0  0  0  0
   -0.6273   -4.7318   35.7744 S   0  0  0  0  0  0  0  0  0  0  0  0
  2  1  1  1
  2  3  1  0
  3  4  2  0
  3  5  1  0
  5  6  1  0
  6  7  1  0
  7  8  1  0
  8  9  1  6
  9 10  2  0
 10 11  1  0
 11 12  2  0
 12 13  1  0
 13 14  2  0
 14 15  1  0
  2 16  1  0
 16 17  1  0
 17 18  1  0
 17 19  2  0
 19 20  1  0
 20 21  2  0
 21 22  1  0
 22 23  2  0
 23 24  1  0
 24 25  2  0
 25 26  1  0
  8  5  1  0
 14  9  1  0
 21 16  1  0
 26 22  1  0
M  END
>  <ref_mols>  (1458) 
B0454a

>  <gnina_score>  (1458) 
6.096

>  <smina_score_min>  (1458) 
-5.799

>  <ref_pdb>  (1458) 
B0454a

>  <inspiration_score>  (1458) 
None

>  <inchikey>  (1458) 
DGHNHGPPRUGHIW-RISCZKNCSA-N

>  <tags>  (1458) 
BulkDock Fragalysis export,openbind_d68ev3c_c2_elabs_scored,openbind_d68ev3c_c2_elabs_scored_4.5plus,openbind_d68ev3c_c2_elabs,openbind_d68ev3c_c2_elabs_scored_5plus,syndirella_product,openbind_d68ev3c_c2_elabs_scored_top80percent,syndirella_placed

>  <smiles>  (1458) 
C[C@H](C(=O)N1CC[C@H]1c1ccccc1F)n1c(S)nnc1-c1cccs1

>  <subsites>  (1458) 
None

>  <rmsd(smina/fragmenstein)>  (1458) 
0.762

>  <alias>  (1458) 
None

>  <energy_score>  (1458) 
-21.438176

>  <HIPPO Pose ID>  (1458) 
117112

>  <distance_score>  (1458) 
0.795612

>  <HIPPO Compound ID>  (1458) 
151607

>  <gnina_score_min>  (1458) 
6.017

>  <name>  (1458) 
P117112

>  <exports>  (1458) 
['/opt/xchem-fragalysis-2/maxwin/BulkDock/OUTPUTS/openbind_d68ev3c_c2_elabs_1LOTQJ3.sdf', '/opt/xchem-fragalysis-2/maxwin/BulkDock/OUTPUTS/openbind_d68ev3c_c2_elabs_1LSYI5W.sdf']

$$$$
P117118
     RDKit          3D

 26 29  0  0  0  0  0  0  0  0999 V2000
    1.1994   -4.8070   30.9718 C   0  0  0  0  0  0  0  0  0  0  0  0
    0.3374   -4.9799   32.2210 C   0  0  1  0  0  0  0  0  0  0  0  0
   -0.8080   -3.9575   32.1959 C   0  0  0  0  0  0  0  0  0  0  0  0
   -1.9193   -4.2492   31.9448 O   0  0  0  0  0  0  0  0  0  0  0  0
   -0.1869   -2.6062   32.4426 N   0  0  0  0  0  0  0  0  0  0  0  0
   -0.2366   -2.2226   33.9492 C   0  0  0  0  0  0  0  0  0  0  0  0
    0.1098   -0.8199   33.4998 C   0  0  0  0  0  0  0  0  0  0  0  0
   -0.7788   -1.2120   32.3437 C   0  0  1  0  0  0  0  0  0  0  0  0
   -0.6372   -0.6407   30.8854 C   0  0  0  0  0  0  0  0  0  0  0  0
   -1.2498   -1.3170   29.8019 C   0  0  0  0  0  0  0  0  0  0  0  0
   -1.1782   -0.8532   28.4890 C   0  0  0  0  0  0  0  0  0  0  0  0
   -0.4812    0.3137   28.2174 C   0  0  0  0  0  0  0  0  0  0  0  0
    0.1426    0.9887   29.2555 C   0  0  0  0  0  0  0  0  0  0  0  0
    0.8325    2.1070   28.9949 F   0  0  0  0  0  0  0  0  0  0  0  0
    0.0701    0.5271   30.5685 C   0  0  0  0  0  0  0  0  0  0  0  0
   -0.2055   -6.3043   32.4891 N   0  0  0  0  0  0  0  0  0  0  0  0
   -0.7134   -7.2555   31.6522 C   0  0  0  0  0  0  0  0  0  0  0  0
   -0.2819   -7.5292   30.0286 S   0  0  0  0  0  0  0  0  0  0  0  0
   -1.4963   -8.0713   32.3029 N   0  0  0  0  0  0  0  0  0  0  0  0
   -1.4289   -7.7271   33.6235 N   0  0  0  0  0  0  0  0  0  0  0  0
   -0.5517   -6.7564   33.7477 C   0  0  0  0  0  0  0  0  0  0  0  0
   -0.0332   -6.2911   34.9962 C   0  0  0  0  0  0  0  0  0  0  0  0
   -0.7429   -5.7739   36.0573 C   0  0  0  0  0  0  0  0  0  0  0  0
    0.0882   -5.4532   37.1691 C   0  0  0  0  0  0  0  0  0  0  0  0
    1.4105   -5.7470   36.9227 C   0  0  0  0  0  0  0  0  0  0  0  0
    1.6400   -6.4080   35.3614 S   0  0  0  0  0  0  0  0  0  0  0  0
  2  1  1  6
  2  3  1  0
  3  4  2  0
  3  5  1  0
  5  6  1  0
  6  7  1  0
  7  8  1  0
  8  9  1  6
  9 10  2  0
 10 11  1  0
 11 12  2  0
 12 13  1  0
 13 14  1  0
 13 15  2  0
  2 16  1  0
 16 17  1  0
 17 18  1  0
 17 19  2  0
 19 20  1  0
 20 21  2  0
 21 22  1  0
 22 23  2  0
 23 24  1  0
 24 25  2  0
 25 26  1  0
  8  5  1  0
 15  9  1  0
 21 16  1  0
 26 22  1  0
M  END
>  <ref_mols>  (1459) 
B0454a

>  <gnina_score>  (1459) 
6.072

>  <smina_score_min>  (1459) 
-5.613

>  <ref_pdb>  (1459) 
B0454a

>  <inspiration_score>  (1459) 
None

>  <inchikey>  (1459) 
UHOVIIQKMXNQIB-FZMZJTMJSA-N

>  <tags>  (1459) 
BulkDock Fragalysis export,openbind_d68ev3c_c2_elabs_scored,openbind_d68ev3c_c2_elabs_scored_4.5plus,openbind_d68ev3c_c2_elabs,openbind_d68ev3c_c2_elabs_scored_5plus,syndirella_product,openbind_d68ev3c_c2_elabs_scored_top80percent,syndirella_placed

>  <smiles>  (1459) 
C[C@@H](C(=O)N1CC[C@H]1c1cccc(F)c1)n1c(S)nnc1-c1cccs1

>  <subsites>  (1459) 
None

>  <rmsd(smina/fragmenstein)>  (1459) 
0.609

>  <alias>  (1459) 
None

>  <energy_score>  (1459) 
-54.718407

>  <HIPPO Pose ID>  (1459) 
117118

>  <distance_score>  (1459) 
0.819345

>  <HIPPO Compound ID>  (1459) 
151621

>  <gnina_score_min>  (1459) 
5.922

>  <name>  (1459) 
P117118

>  <exports>  (1459) 
['/opt/xchem-fragalysis-2/maxwin/BulkDock/OUTPUTS/openbind_d68ev3c_c2_elabs_1LOTQJ3.sdf', '/opt/xchem-fragalysis-2/maxwin/BulkDock/OUTPUTS/openbind_d68ev3c_c2_elabs_1LSYI5W.sdf']

$$$$
P117119
     RDKit          3D

 26 28  0  0  0  0  0  0  0  0999 V2000
    0.8784   -4.7662   34.2864 C   0  0  0  0  0  0  0  0  0  0  0  0
    0.2821   -4.5193   32.9021 C   0  0  2  0  0  0  0  0  0  0  0  0
   -0.8788   -3.5006   32.7314 C   0  0  0  0  0  0  0  0  0  0  0  0
   -1.8212   -3.7827   32.0332 O   0  0  0  0  0  0  0  0  0  0  0  0
   -0.5566   -2.2836   33.4101 N   0  0  0  0  0  0  0  0  0  0  0  0
   -1.1342   -2.3020   34.8039 C   0  0  0  0  0  0  0  0  0  0  0  0
   -1.2338   -0.9185   33.3790 C   0  0  1  0  0  0  0  0  0  0  0  0
   -1.0006    0.2369   34.3984 C   0  0  0  0  0  0  0  0  0  0  0  0
   -0.7534   -0.3769   31.9890 C   0  0  0  0  0  0  0  0  0  0  0  0
   -1.6678   -0.4151   30.9177 C   0  0  0  0  0  0  0  0  0  0  0  0
   -1.3042    0.0017   29.6335 C   0  0  0  0  0  0  0  0  0  0  0  0
   -0.0307    0.4923   29.3876 C   0  0  0  0  0  0  0  0  0  0  0  0
    0.9042    0.5047   30.4149 C   0  0  0  0  0  0  0  0  0  0  0  0
    0.5632    0.0428   31.6955 C   0  0  0  0  0  0  0  0  0  0  0  0
    2.0158   -0.0788   32.9194 Br  0  0  0  0  0  0  0  0  0  0  0  0
    0.0226   -5.7154   32.0991 N   0  0  0  0  0  0  0  0  0  0  0  0
   -0.5966   -6.8838   32.4498 C   0  0  0  0  0  0  0  0  0  0  0  0
   -1.1922   -7.2509   34.0232 S   0  0  0  0  0  0  0  0  0  0  0  0
   -0.6387   -7.6997   31.4224 N   0  0  0  0  0  0  0  0  0  0  0  0
   -0.0322   -7.0676   30.3614 N   0  0  0  0  0  0  0  0  0  0  0  0
    0.3270   -5.8598   30.7545 C   0  0  0  0  0  0  0  0  0  0  0  0
    0.9605   -4.8881   29.9050 C   0  0  0  0  0  0  0  0  0  0  0  0
    2.1911   -4.9786   29.2818 C   0  0  0  0  0  0  0  0  0  0  0  0
    2.5346   -3.8013   28.5539 C   0  0  0  0  0  0  0  0  0  0  0  0
    1.5311   -2.8641   28.6050 C   0  0  0  0  0  0  0  0  0  0  0  0
    0.1779   -3.4273   29.4757 S   0  0  0  0  0  0  0  0  0  0  0  0
  2  1  1  1
  2  3  1  0
  3  4  2  0
  3  5  1  0
  5  6  1  0
  5  7  1  0
  7  8  1  1
  7  9  1  0
  9 10  2  0
 10 11  1  0
 11 12  2  0
 12 13  1  0
 13 14  2  0
 14 15  1  0
  2 16  1  0
 16 17  1  0
 17 18  1  0
 17 19  2  0
 19 20  1  0
 20 21  2  0
 21 22  1  0
 22 23  2  0
 23 24  1  0
 24 25  2  0
 25 26  1  0
 14  9  1  0
 21 16  1  0
 26 22  1  0
M  END
>  <ref_mols>  (1460) 
B0454a

>  <gnina_score>  (1460) 
5.849

>  <smina_score_min>  (1460) 
-4.96

>  <ref_pdb>  (1460) 
B0454a

>  <inspiration_score>  (1460) 
None

>  <inchikey>  (1460) 
ZWEASZJVBHJLLB-NWDGAFQWSA-N

>  <tags>  (1460) 
BulkDock Fragalysis export,openbind_d68ev3c_c2_elabs_scored,openbind_d68ev3c_c2_elabs_scored_4.5plus,openbind_d68ev3c_c2_elabs,openbind_d68ev3c_c2_elabs_scored_5plus,syndirella_product,openbind_d68ev3c_c2_elabs_scored_top80percent,syndirella_placed

>  <smiles>  (1460) 
C[C@H](C(=O)N(C)[C@@H](C)c1ccccc1Br)n1c(S)nnc1-c1cccs1

>  <subsites>  (1460) 
None

>  <rmsd(smina/fragmenstein)>  (1460) 
0.469

>  <alias>  (1460) 
None

>  <energy_score>  (1460) 
-0.902468

>  <HIPPO Pose ID>  (1460) 
117119

>  <distance_score>  (1460) 
1.435257

>  <HIPPO Compound ID>  (1460) 
151629

>  <gnina_score_min>  (1460) 
5.759

>  <name>  (1460) 
P117119

>  <exports>  (1460) 
['/opt/xchem-fragalysis-2/maxwin/BulkDock/OUTPUTS/openbind_d68ev3c_c2_elabs_1LOTQJ3.sdf', '/opt/xchem-fragalysis-2/maxwin/BulkDock/OUTPUTS/openbind_d68ev3c_c2_elabs_1LSYI5W.sdf']

$$$$
P117120
     RDKit          3D

 26 28  0  0  0  0  0  0  0  0999 V2000
    1.8753    2.1392   35.3720 C   0  0  0  0  0  0  0  0  0  0  0  0
    1.9868    1.7718   33.8896 C   0  0  1  0  0  0  0  0  0  0  0  0
    0.6893    1.1462   33.3341 C   0  0  0  0  0  0  0  0  0  0  0  0
   -0.2941    1.0710   33.9683 O   0  0  0  0  0  0  0  0  0  0  0  0
    1.0196    0.5952   31.9042 N   0  0  0  0  0  0  0  0  0  0  0  0
    0.2040   -0.0503   30.9697 C   0  0  0  0  0  0  0  0  0  0  0  0
    0.4280    0.3328   29.6339 C   0  0  0  0  0  0  0  0  0  0  0  0
   -0.2858   -0.2401   28.5828 C   0  0  0  0  0  0  0  0  0  0  0  0
   -1.2116   -1.2334   28.8478 C   0  0  0  0  0  0  0  0  0  0  0  0
   -1.4187   -1.6438   30.1637 C   0  0  0  0  0  0  0  0  0  0  0  0
   -0.7192   -1.0731   31.2527 C   0  0  0  0  0  0  0  0  0  0  0  0
   -0.9573   -1.7114   32.6090 C   0  0  0  0  0  0  0  0  0  0  0  0
   -0.1172   -2.8658   32.9791 N   0  0  0  0  0  0  0  0  0  0  0  0
   -0.2763   -4.0208   32.1095 C   0  0  0  0  0  0  0  0  0  0  0  0
    1.2834   -2.5275   33.1749 C   0  0  0  0  0  0  0  0  0  0  0  0
    2.4816    2.8787   33.0814 N   0  0  0  0  0  0  0  0  0  0  0  0
    1.8710    4.0708   32.7948 C   0  0  0  0  0  0  0  0  0  0  0  0
    0.2957    4.5324   33.3091 S   0  0  0  0  0  0  0  0  0  0  0  0
    2.6669    4.8249   32.0779 N   0  0  0  0  0  0  0  0  0  0  0  0
    3.8375    4.1360   31.8921 N   0  0  0  0  0  0  0  0  0  0  0  0
    3.7179    2.9594   32.4704 C   0  0  0  0  0  0  0  0  0  0  0  0
    4.7582    1.9770   32.4554 C   0  0  0  0  0  0  0  0  0  0  0  0
    6.0427    2.1413   32.9341 C   0  0  0  0  0  0  0  0  0  0  0  0
    6.8477    0.9804   32.7413 C   0  0  0  0  0  0  0  0  0  0  0  0
    6.1585   -0.0221   32.0965 C   0  0  0  0  0  0  0  0  0  0  0  0
    4.5569    0.4431   31.7191 S   0  0  0  0  0  0  0  0  0  0  0  0
  2  1  1  1
  2  3  1  0
  3  4  2  0
  3  5  1  0
  5  6  1  0
  6  7  2  0
  7  8  1  0
  8  9  2  0
  9 10  1  0
 10 11  2  0
 11 12  1  0
 12 13  1  0
 13 14  1  0
 13 15  1  0
  2 16  1  0
 16 17  1  0
 17 18  1  0
 17 19  2  0
 19 20  1  0
 20 21  2  0
 21 22  1  0
 22 23  2  0
 23 24  1  0
 24 25  2  0
 25 26  1  0
 11  6  1  0
 21 16  1  0
 26 22  1  0
M  END
>  <ref_mols>  (1461) 
B0454a

>  <gnina_score>  (1461) 
5.418

>  <smina_score_min>  (1461) 
-3.027

>  <ref_pdb>  (1461) 
B0454a

>  <inspiration_score>  (1461) 
None

>  <inchikey>  (1461) 
GDGUNCQBKQZDLM-LBPRGKRZSA-N

>  <tags>  (1461) 
BulkDock Fragalysis export,openbind_d68ev3c_c2_elabs_scored,openbind_d68ev3c_c2_elabs_scored_4.5plus,openbind_d68ev3c_c2_elabs,openbind_d68ev3c_c2_elabs_scored_5plus,syndirella_product,openbind_d68ev3c_c2_elabs_scored_top80percent,syndirella_placed

>  <smiles>  (1461) 
C[C@@H](C(=O)Nc1ccccc1CN(C)C)n1c(S)nnc1-c1cccs1

>  <subsites>  (1461) 
None

>  <rmsd(smina/fragmenstein)>  (1461) 
3.004

>  <alias>  (1461) 
None

>  <energy_score>  (1461) 
-52.22234

>  <HIPPO Pose ID>  (1461) 
117120

>  <distance_score>  (1461) 
0.451136

>  <HIPPO Compound ID>  (1461) 
151633

>  <gnina_score_min>  (1461) 
5.044

>  <name>  (1461) 
P117120

>  <exports>  (1461) 
['/opt/xchem-fragalysis-2/maxwin/BulkDock/OUTPUTS/openbind_d68ev3c_c2_elabs_1LOTQJ3.sdf', '/opt/xchem-fragalysis-2/maxwin/BulkDock/OUTPUTS/openbind_d68ev3c_c2_elabs_1LSYI5W.sdf']

$$$$
P117127
     RDKit          3D

 26 29  0  0  0  0  0  0  0  0999 V2000
   -2.0351   -4.2212   31.9641 O   0  0  0  0  0  0  0  0  0  0  0  0
   -0.9717   -3.9807   32.4023 C   0  0  0  0  0  0  0  0  0  0  0  0
    0.0030   -5.1222   32.7726 C   0  0  2  0  0  0  0  0  0  0  0  0
    1.4687   -4.8631   32.3760 C   0  0  0  0  0  0  0  0  0  0  0  0
    2.3301   -4.2598   33.4620 C   0  0  0  0  0  0  0  0  0  0  0  0
    2.9710   -3.0312   33.2516 C   0  0  0  0  0  0  0  0  0  0  0  0
    3.7799   -2.4745   34.2431 C   0  0  0  0  0  0  0  0  0  0  0  0
    3.9639   -3.1442   35.4506 C   0  0  0  0  0  0  0  0  0  0  0  0
    3.3439   -4.3731   35.6660 C   0  0  0  0  0  0  0  0  0  0  0  0
    2.5346   -4.9321   34.6758 C   0  0  0  0  0  0  0  0  0  0  0  0
   -0.4618   -6.3614   32.1415 N   0  0  0  0  0  0  0  0  0  0  0  0
   -0.4208   -6.6588   30.8115 C   0  0  0  0  0  0  0  0  0  0  0  0
   -0.9652   -7.8332   30.6045 N   0  0  0  0  0  0  0  0  0  0  0  0
   -1.3848   -8.3085   31.8216 N   0  0  0  0  0  0  0  0  0  0  0  0
   -1.0808   -7.4149   32.7374 C   0  0  0  0  0  0  0  0  0  0  0  0
   -0.3574   -2.6708   32.7899 N   0  0  0  0  0  0  0  0  0  0  0  0
   -0.6407   -2.3261   34.2828 C   0  0  0  0  0  0  0  0  0  0  0  0
   -0.1660   -0.9278   33.9341 C   0  0  0  0  0  0  0  0  0  0  0  0
   -0.8735   -1.2588   32.6440 C   0  0  1  0  0  0  0  0  0  0  0  0
   -0.5783   -0.6038   31.2472 C   0  0  0  0  0  0  0  0  0  0  0  0
    0.1456    0.5878   31.1044 C   0  0  0  0  0  0  0  0  0  0  0  0
    0.2085    1.2570   29.8819 C   0  0  0  0  0  0  0  0  0  0  0  0
   -0.4497    0.7425   28.7699 C   0  0  0  0  0  0  0  0  0  0  0  0
   -0.5680    1.8190   27.2284 Br  0  0  0  0  0  0  0  0  0  0  0  0
   -1.0857   -0.4880   28.8359 C   0  0  0  0  0  0  0  0  0  0  0  0
   -1.1446   -1.1476   30.0658 C   0  0  0  0  0  0  0  0  0  0  0  0
  1  2  2  0
  2  3  1  0
  3  4  1  6
  4  5  1  0
  5  6  2  0
  6  7  1  0
  7  8  2  0
  8  9  1  0
  9 10  2  0
  3 11  1  0
 11 12  1  0
 12 13  2  0
 13 14  1  0
 14 15  2  0
  2 16  1  0
 16 17  1  0
 17 18  1  0
 18 19  1  0
 19 20  1  6
 20 21  2  0
 21 22  1  0
 22 23  2  0
 23 24  1  0
 23 25  1  0
 25 26  2  0
 10  5  1  0
 15 11  1  0
 19 16  1  0
 26 20  1  0
M  END
>  <ref_mols>  (1462) 
B0454a

>  <gnina_score>  (1462) 
5.436

>  <smina_score_min>  (1462) 
-5.699

>  <ref_pdb>  (1462) 
B0454a

>  <inspiration_score>  (1462) 
None

>  <inchikey>  (1462) 
JIAZGDCFFDFAFE-OALUTQOASA-N

>  <tags>  (1462) 
BulkDock Fragalysis export,openbind_d68ev3c_c2_elabs_scored,openbind_d68ev3c_c2_elabs_scored_4.5plus,openbind_d68ev3c_c2_elabs,openbind_d68ev3c_c2_elabs_scored_5plus,syndirella_product,openbind_d68ev3c_c2_elabs_scored_top80percent,syndirella_placed

>  <smiles>  (1462) 
O=C([C@H](Cc1ccccc1)n1cnnc1)N1CC[C@H]1c1ccc(Br)cc1

>  <subsites>  (1462) 
None

>  <rmsd(smina/fragmenstein)>  (1462) 
1.061

>  <alias>  (1462) 
None

>  <energy_score>  (1462) 
-11.247241

>  <HIPPO Pose ID>  (1462) 
117127

>  <distance_score>  (1462) 
0.795569

>  <HIPPO Compound ID>  (1462) 
151636

>  <gnina_score_min>  (1462) 
5.305

>  <name>  (1462) 
P117127

>  <exports>  (1462) 
['/opt/xchem-fragalysis-2/maxwin/BulkDock/OUTPUTS/openbind_d68ev3c_c2_elabs_1LOTQJ3.sdf', '/opt/xchem-fragalysis-2/maxwin/BulkDock/OUTPUTS/openbind_d68ev3c_c2_elabs_1LSYI5W.sdf']

$$$$
P117132
     RDKit          3D

 26 29  0  0  0  0  0  0  0  0999 V2000
   -1.7915   -4.2657   32.3884 O   0  0  0  0  0  0  0  0  0  0  0  0
   -0.6361   -4.0474   32.4592 C   0  0  0  0  0  0  0  0  0  0  0  0
    0.3952   -5.1890   32.3730 C   0  0  1  0  0  0  0  0  0  0  0  0
    1.4365   -5.3709   33.4841 C   0  0  0  0  0  0  0  0  0  0  0  0
    1.0316   -5.7936   34.8764 C   0  0  0  0  0  0  0  0  0  0  0  0
    1.9257   -6.5908   35.6142 C   0  0  0  0  0  0  0  0  0  0  0  0
    1.6324   -6.9820   36.9208 C   0  0  0  0  0  0  0  0  0  0  0  0
    0.4520   -6.5625   37.5216 C   0  0  0  0  0  0  0  0  0  0  0  0
   -0.4308   -5.7514   36.8164 C   0  0  0  0  0  0  0  0  0  0  0  0
   -0.1478   -5.3729   35.5020 C   0  0  0  0  0  0  0  0  0  0  0  0
   -0.2516   -6.4304   31.9571 N   0  0  0  0  0  0  0  0  0  0  0  0
   -0.9973   -7.3127   32.6721 C   0  0  0  0  0  0  0  0  0  0  0  0
   -1.4785   -8.2299   31.8611 N   0  0  0  0  0  0  0  0  0  0  0  0
   -1.0427   -7.9471   30.5926 N   0  0  0  0  0  0  0  0  0  0  0  0
   -0.3122   -6.8636   30.6666 C   0  0  0  0  0  0  0  0  0  0  0  0
    0.1077   -2.7331   32.5346 N   0  0  0  0  0  0  0  0  0  0  0  0
    0.3087   -2.2725   34.0140 C   0  0  0  0  0  0  0  0  0  0  0  0
    0.6671   -0.9222   33.4439 C   0  0  0  0  0  0  0  0  0  0  0  0
   -0.3957   -1.3054   32.4408 C   0  0  1  0  0  0  0  0  0  0  0  0
   -0.4376   -0.7104   30.9850 C   0  0  0  0  0  0  0  0  0  0  0  0
   -1.0932   -1.3861   29.9290 C   0  0  0  0  0  0  0  0  0  0  0  0
   -1.2903   -0.7937   28.6788 C   0  0  0  0  0  0  0  0  0  0  0  0
   -0.8446    0.5029   28.4664 C   0  0  0  0  0  0  0  0  0  0  0  0
   -1.2732    1.3563   27.0430 Cl  0  0  0  0  0  0  0  0  0  0  0  0
   -0.1214    1.1659   29.4492 C   0  0  0  0  0  0  0  0  0  0  0  0
    0.0798    0.5627   30.6907 C   0  0  0  0  0  0  0  0  0  0  0  0
  1  2  2  0
  2  3  1  0
  3  4  1  1
  4  5  1  0
  5  6  2  0
  6  7  1  0
  7  8  2  0
  8  9  1  0
  9 10  2  0
  3 11  1  0
 11 12  1  0
 12 13  2  0
 13 14  1  0
 14 15  2  0
  2 16  1  0
 16 17  1  0
 17 18  1  0
 18 19  1  0
 19 20  1  6
 20 21  2  0
 21 22  1  0
 22 23  2  0
 23 24  1  0
 23 25  1  0
 25 26  2  0
 10  5  1  0
 15 11  1  0
 19 16  1  0
 26 20  1  0
M  END
>  <ref_mols>  (1463) 
B0454a

>  <gnina_score>  (1463) 
5.542

>  <smina_score_min>  (1463) 
-6.496

>  <ref_pdb>  (1463) 
B0454a

>  <inspiration_score>  (1463) 
None

>  <inchikey>  (1463) 
DPUYEAFXBFPEFP-RBUKOAKNSA-N

>  <tags>  (1463) 
BulkDock Fragalysis export,openbind_d68ev3c_c2_elabs_scored,openbind_d68ev3c_c2_elabs_scored_4.5plus,openbind_d68ev3c_c2_elabs,openbind_d68ev3c_c2_elabs_scored_5plus,syndirella_product,openbind_d68ev3c_c2_elabs_scored_top80percent,syndirella_placed

>  <smiles>  (1463) 
O=C([C@@H](Cc1ccccc1)n1cnnc1)N1CC[C@H]1c1ccc(Cl)cc1

>  <subsites>  (1463) 
None

>  <rmsd(smina/fragmenstein)>  (1463) 
0.468

>  <alias>  (1463) 
None

>  <energy_score>  (1463) 
-0.82738

>  <HIPPO Pose ID>  (1463) 
117132

>  <distance_score>  (1463) 
0.590752

>  <HIPPO Compound ID>  (1463) 
151639

>  <gnina_score_min>  (1463) 
5.545

>  <name>  (1463) 
P117132

>  <exports>  (1463) 
['/opt/xchem-fragalysis-2/maxwin/BulkDock/OUTPUTS/openbind_d68ev3c_c2_elabs_1LOTQJ3.sdf', '/opt/xchem-fragalysis-2/maxwin/BulkDock/OUTPUTS/openbind_d68ev3c_c2_elabs_1LSYI5W.sdf']

$$$$
P117135
     RDKit          3D

 26 29  0  0  0  0  0  0  0  0999 V2000
   -0.4653   -3.6331   35.0205 O   0  0  0  0  0  0  0  0  0  0  0  0
   -0.3577   -4.0269   33.9147 C   0  0  0  0  0  0  0  0  0  0  0  0
    0.0977   -5.4885   33.7100 C   0  0  2  0  0  0  0  0  0  0  0  0
    1.6302   -5.6138   33.6541 C   0  0  0  0  0  0  0  0  0  0  0  0
    2.3013   -5.8440   34.9906 C   0  0  0  0  0  0  0  0  0  0  0  0
    1.9184   -6.9076   35.8218 C   0  0  0  0  0  0  0  0  0  0  0  0
    2.5557   -7.1181   37.0457 C   0  0  0  0  0  0  0  0  0  0  0  0
    3.5967   -6.2838   37.4437 C   0  0  0  0  0  0  0  0  0  0  0  0
    3.9990   -5.2355   36.6197 C   0  0  0  0  0  0  0  0  0  0  0  0
    3.3565   -5.0165   35.3995 C   0  0  0  0  0  0  0  0  0  0  0  0
   -0.5427   -6.2507   32.6352 N   0  0  0  0  0  0  0  0  0  0  0  0
   -0.3409   -6.1659   31.2909 C   0  0  0  0  0  0  0  0  0  0  0  0
   -0.9155   -7.1834   30.6888 N   0  0  0  0  0  0  0  0  0  0  0  0
   -1.5041   -7.9587   31.6529 N   0  0  0  0  0  0  0  0  0  0  0  0
   -1.2575   -7.4023   32.8170 C   0  0  0  0  0  0  0  0  0  0  0  0
   -0.6878   -3.3528   32.5971 N   0  0  0  0  0  0  0  0  0  0  0  0
    0.5416   -2.5637   32.0421 C   0  0  0  0  0  0  0  0  0  0  0  0
    0.2574   -1.7900   30.8109 C   0  0  0  0  0  0  0  0  0  0  0  0
    0.9858   -1.3594   29.7192 C   0  0  0  0  0  0  0  0  0  0  0  0
    0.3305   -0.5737   28.7722 C   0  0  0  0  0  0  0  0  0  0  0  0
    1.0192   -0.1167   27.7178 F   0  0  0  0  0  0  0  0  0  0  0  0
   -1.0029   -0.2147   28.9551 C   0  0  0  0  0  0  0  0  0  0  0  0
   -1.6056    0.5951   28.0754 F   0  0  0  0  0  0  0  0  0  0  0  0
   -1.6924   -0.6223   30.0955 C   0  0  0  0  0  0  0  0  0  0  0  0
   -1.0373   -1.4349   30.9892 C   0  0  0  0  0  0  0  0  0  0  0  0
   -1.3530   -2.0069   32.3067 C   0  0  0  0  0  0  0  0  0  0  0  0
  1  2  2  0
  2  3  1  0
  3  4  1  6
  4  5  1  0
  5  6  2  0
  6  7  1  0
  7  8  2  0
  8  9  1  0
  9 10  2  0
  3 11  1  0
 11 12  1  0
 12 13  2  0
 13 14  1  0
 14 15  2  0
  2 16  1  0
 16 17  1  0
 17 18  1  0
 18 19  2  0
 19 20  1  0
 20 21  1  0
 20 22  2  0
 22 23  1  0
 22 24  1  0
 24 25  2  0
 25 26  1  0
 10  5  1  0
 15 11  1  0
 26 16  1  0
 25 18  1  0
M  END
>  <ref_mols>  (1464) 
B0454a

>  <gnina_score>  (1464) 
4.991

>  <smina_score_min>  (1464) 
-6.311

>  <ref_pdb>  (1464) 
B0454a

>  <inspiration_score>  (1464) 
None

>  <inchikey>  (1464) 
BVJRNAMDRXVSFZ-SFHVURJKSA-N

>  <tags>  (1464) 
BulkDock Fragalysis export,openbind_d68ev3c_c2_elabs_scored,openbind_d68ev3c_c2_elabs_scored_4.5plus,openbind_d68ev3c_c2_elabs,openbind_d68ev3c_c2_elabs_scored_5plus,syndirella_product,openbind_d68ev3c_c2_elabs_scored_top80percent,syndirella_placed

>  <smiles>  (1464) 
O=C([C@H](Cc1ccccc1)n1cnnc1)N1Cc2cc(F)c(F)cc2C1

>  <subsites>  (1464) 
None

>  <rmsd(smina/fragmenstein)>  (1464) 
0.48

>  <alias>  (1464) 
None

>  <energy_score>  (1464) 
-374.357479

>  <HIPPO Pose ID>  (1464) 
117135

>  <distance_score>  (1464) 
1.449685

>  <HIPPO Compound ID>  (1464) 
151644

>  <gnina_score_min>  (1464) 
5.125

>  <name>  (1464) 
P117135

>  <exports>  (1464) 
['/opt/xchem-fragalysis-2/maxwin/BulkDock/OUTPUTS/openbind_d68ev3c_c2_elabs_1LOTQJ3.sdf', '/opt/xchem-fragalysis-2/maxwin/BulkDock/OUTPUTS/openbind_d68ev3c_c2_elabs_1LSYI5W.sdf']

$$$$
P117138
     RDKit          3D

 26 29  0  0  0  0  0  0  0  0999 V2000
   -1.2500    0.6779   27.4143 O   0  0  0  0  0  0  0  0  0  0  0  0
   -1.1550   -0.1954   28.2515 C   0  0  0  0  0  0  0  0  0  0  0  0
   -1.6595   -1.4671   28.2260 N   0  0  0  0  0  0  0  0  0  0  0  0
   -1.2997   -2.2539   29.3760 C   0  0  0  0  0  0  0  0  0  0  0  0
   -0.4727   -1.3126   30.1845 C   0  0  0  0  0  0  0  0  0  0  0  0
    0.2866   -1.5037   31.3243 C   0  0  0  0  0  0  0  0  0  0  0  0
    0.3669   -2.7106   32.0159 N   0  0  0  0  0  0  0  0  0  0  0  0
   -0.6451   -3.9002   32.1027 C   0  0  0  0  0  0  0  0  0  0  0  0
   -1.7283   -4.0083   31.6685 O   0  0  0  0  0  0  0  0  0  0  0  0
    0.0665   -5.0797   32.8169 C   0  0  1  0  0  0  0  0  0  0  0  0
   -0.0472   -5.0102   34.3466 C   0  0  0  0  0  0  0  0  0  0  0  0
    0.7465   -3.8747   34.9460 C   0  0  0  0  0  0  0  0  0  0  0  0
    2.1387   -3.9694   35.0818 C   0  0  0  0  0  0  0  0  0  0  0  0
    2.8712   -2.8944   35.5864 C   0  0  0  0  0  0  0  0  0  0  0  0
    2.2207   -1.7206   35.9619 C   0  0  0  0  0  0  0  0  0  0  0  0
    0.8363   -1.6216   35.8401 C   0  0  0  0  0  0  0  0  0  0  0  0
    0.1003   -2.6940   35.3367 C   0  0  0  0  0  0  0  0  0  0  0  0
   -0.4180   -6.3311   32.2311 N   0  0  0  0  0  0  0  0  0  0  0  0
   -1.1319   -7.3394   32.7962 C   0  0  0  0  0  0  0  0  0  0  0  0
   -1.4253   -8.2333   31.8778 N   0  0  0  0  0  0  0  0  0  0  0  0
   -0.8870   -7.8162   30.6886 N   0  0  0  0  0  0  0  0  0  0  0  0
   -0.2762   -6.6791   30.9161 C   0  0  0  0  0  0  0  0  0  0  0  0
    1.1064   -0.4465   31.7424 C   0  0  0  0  0  0  0  0  0  0  0  0
    1.1268    0.7822   31.0489 C   0  0  0  0  0  0  0  0  0  0  0  0
    0.3618    0.9767   29.9103 C   0  0  0  0  0  0  0  0  0  0  0  0
   -0.4069   -0.0877   29.5041 C   0  0  0  0  0  0  0  0  0  0  0  0
  1  2  2  0
  2  3  1  0
  3  4  1  0
  4  5  1  0
  5  6  2  0
  6  7  1  0
  7  8  1  0
  8  9  2  0
  8 10  1  0
 10 11  1  1
 11 12  1  0
 12 13  2  0
 13 14  1  0
 14 15  2  0
 15 16  1  0
 16 17  2  0
 10 18  1  0
 18 19  1  0
 19 20  2  0
 20 21  1  0
 21 22  2  0
  6 23  1  0
 23 24  2  0
 24 25  1  0
 25 26  2  0
 26  2  1  0
 26  5  1  0
 17 12  1  0
 22 18  1  0
M  END
>  <ref_mols>  (1465) 
B0454a

>  <gnina_score>  (1465) 
5.209

>  <smina_score_min>  (1465) 
-6.104

>  <ref_pdb>  (1465) 
B0454a

>  <inspiration_score>  (1465) 
None

>  <inchikey>  (1465) 
YCAGJZXCPRYKQL-QGZVFWFLSA-N

>  <tags>  (1465) 
BulkDock Fragalysis export,openbind_d68ev3c_c2_elabs_scored,openbind_d68ev3c_c2_elabs_scored_4.5plus,openbind_d68ev3c_c2_elabs,openbind_d68ev3c_c2_elabs_scored_5plus,syndirella_product,openbind_d68ev3c_c2_elabs_scored_top80percent,syndirella_placed

>  <smiles>  (1465) 
O=C1NCc2c(NC(=O)[C@@H](Cc3ccccc3)n3cnnc3)cccc21

>  <subsites>  (1465) 
None

>  <rmsd(smina/fragmenstein)>  (1465) 
1.019

>  <alias>  (1465) 
None

>  <energy_score>  (1465) 
-24.129237

>  <HIPPO Pose ID>  (1465) 
117138

>  <distance_score>  (1465) 
1.129917

>  <HIPPO Compound ID>  (1465) 
151647

>  <gnina_score_min>  (1465) 
5.078

>  <name>  (1465) 
P117138

>  <exports>  (1465) 
['/opt/xchem-fragalysis-2/maxwin/BulkDock/OUTPUTS/openbind_d68ev3c_c2_elabs_1LOTQJ3.sdf', '/opt/xchem-fragalysis-2/maxwin/BulkDock/OUTPUTS/openbind_d68ev3c_c2_elabs_1LSYI5W.sdf']

$$$$
P117143
     RDKit          3D

 27 29  0  0  0  0  0  0  0  0999 V2000
    0.0745   -3.4177   33.7423 C   0  0  0  0  0  0  0  0  0  0  0  0
   -0.1273   -2.6694   32.5363 N   0  0  0  0  0  0  0  0  0  0  0  0
   -0.7067   -1.2609   32.3193 C   0  0  0  0  0  0  0  0  0  0  0  0
   -1.1827   -0.5151   33.0771 O   0  0  0  0  0  0  0  0  0  0  0  0
   -0.6932   -0.8937   30.8787 C   0  0  0  0  0  0  0  0  0  0  0  0
   -1.2334   -1.7572   29.9223 C   0  0  0  0  0  0  0  0  0  0  0  0
   -1.3301   -1.3362   28.5992 C   0  0  0  0  0  0  0  0  0  0  0  0
   -0.9094   -0.0578   28.2356 C   0  0  0  0  0  0  0  0  0  0  0  0
   -0.3582    0.7976   29.1884 C   0  0  0  0  0  0  0  0  0  0  0  0
    0.0285    2.0713   28.7874 N   0  0  0  0  0  0  0  0  0  0  0  0
    0.7150    3.2220   29.5901 C   0  0  0  0  0  0  0  0  0  0  0  0
    1.1268    3.2413   30.6870 O   0  0  0  0  0  0  0  0  0  0  0  0
    0.7650    4.4656   28.7109 C   0  0  0  0  0  0  0  0  0  0  0  0
    1.2694    4.2826   27.3591 N   0  0  0  0  0  0  0  0  0  0  0  0
    0.7550    4.8632   26.2282 C   0  0  0  0  0  0  0  0  0  0  0  0
   -0.4407    6.1018   26.2112 S   0  0  0  0  0  0  0  0  0  0  0  0
    1.3142    4.3516   25.1622 N   0  0  0  0  0  0  0  0  0  0  0  0
    2.2762    3.4777   25.5891 N   0  0  0  0  0  0  0  0  0  0  0  0
    2.3077    3.4835   26.9127 C   0  0  0  0  0  0  0  0  0  0  0  0
    3.2673    2.7135   27.7047 C   0  0  0  0  0  0  0  0  0  0  0  0
    3.8780    3.2278   28.8557 C   0  0  0  0  0  0  0  0  0  0  0  0
    4.7990    2.4582   29.5757 C   0  0  0  0  0  0  0  0  0  0  0  0
    5.1320    1.1789   29.1363 C   0  0  0  0  0  0  0  0  0  0  0  0
    6.2682    0.2379   30.0204 Cl  0  0  0  0  0  0  0  0  0  0  0  0
    4.5590    0.6640   27.9778 C   0  0  0  0  0  0  0  0  0  0  0  0
    3.6345    1.4311   27.2643 C   0  0  0  0  0  0  0  0  0  0  0  0
   -0.2359    0.3761   30.5116 C   0  0  0  0  0  0  0  0  0  0  0  0
  1  2  1  0
  2  3  1  0
  3  4  2  0
  3  5  1  0
  5  6  2  0
  6  7  1  0
  7  8  2  0
  8  9  1  0
  9 10  1  0
 10 11  1  0
 11 12  2  0
 11 13  1  0
 13 14  1  0
 14 15  1  0
 15 16  1  0
 15 17  2  0
 17 18  1  0
 18 19  2  0
 19 20  1  0
 20 21  2  0
 21 22  1  0
 22 23  2  0
 23 24  1  0
 23 25  1  0
 25 26  2  0
  9 27  2  0
 27  5  1  0
 19 14  1  0
 26 20  1  0
M  END
>  <ref_mols>  (1466) 
B0454a

>  <gnina_score>  (1466) 
5.253

>  <smina_score_min>  (1466) 
-4.57

>  <ref_pdb>  (1466) 
B0454a

>  <inspiration_score>  (1466) 
None

>  <inchikey>  (1466) 
JCLBGUNOTIFHOU-UHFFFAOYSA-N

>  <tags>  (1466) 
BulkDock Fragalysis export,openbind_d68ev3c_c2_elabs_scored,openbind_d68ev3c_c2_elabs_scored_4.5plus,openbind_d68ev3c_c2_elabs,openbind_d68ev3c_c2_elabs_scored_5plus,syndirella_product,openbind_d68ev3c_c2_elabs_scored_top80percent,syndirella_placed

>  <smiles>  (1466) 
CNC(=O)c1cccc(NC(=O)Cn2c(S)nnc2-c2ccc(Cl)cc2)c1

>  <subsites>  (1466) 
None

>  <rmsd(smina/fragmenstein)>  (1466) 
1.585

>  <alias>  (1466) 
None

>  <energy_score>  (1466) 
-15.228664

>  <HIPPO Pose ID>  (1466) 
117143

>  <distance_score>  (1466) 
0.684912

>  <HIPPO Compound ID>  (1466) 
151672

>  <gnina_score_min>  (1466) 
5.021

>  <name>  (1466) 
P117143

>  <exports>  (1466) 
['/opt/xchem-fragalysis-2/maxwin/BulkDock/OUTPUTS/openbind_d68ev3c_c2_elabs_1LOTQJ3.sdf', '/opt/xchem-fragalysis-2/maxwin/BulkDock/OUTPUTS/openbind_d68ev3c_c2_elabs_1LSYI5W.sdf']

$$$$
P117151
     RDKit          3D

 27 30  0  0  0  0  0  0  0  0999 V2000
   -1.8112   -4.0546   32.2362 O   0  0  0  0  0  0  0  0  0  0  0  0
   -0.6380   -3.9458   32.2356 C   0  0  0  0  0  0  0  0  0  0  0  0
    0.3066   -5.1374   32.3405 C   0  0  0  0  0  0  0  0  0  0  0  0
   -0.4416   -6.3550   32.5715 N   0  0  0  0  0  0  0  0  0  0  0  0
   -0.7909   -7.2954   31.6496 C   0  0  0  0  0  0  0  0  0  0  0  0
   -0.1813   -7.4039   30.0643 S   0  0  0  0  0  0  0  0  0  0  0  0
   -1.5868   -8.1809   32.1734 N   0  0  0  0  0  0  0  0  0  0  0  0
   -1.6939   -7.8770   33.5011 N   0  0  0  0  0  0  0  0  0  0  0  0
   -0.9511   -6.8183   33.7691 C   0  0  0  0  0  0  0  0  0  0  0  0
   -0.6353   -6.3486   35.1201 C   0  0  0  0  0  0  0  0  0  0  0  0
   -0.2548   -7.2947   36.0772 C   0  0  0  0  0  0  0  0  0  0  0  0
    0.1321   -6.9182   37.3667 C   0  0  0  0  0  0  0  0  0  0  0  0
    0.0858   -5.5795   37.7314 C   0  0  0  0  0  0  0  0  0  0  0  0
    0.5357   -5.1025   39.3193 Cl  0  0  0  0  0  0  0  0  0  0  0  0
   -0.3512   -4.6253   36.8174 C   0  0  0  0  0  0  0  0  0  0  0  0
   -0.7119   -5.0136   35.5211 C   0  0  0  0  0  0  0  0  0  0  0  0
    0.2296   -2.7061   32.2408 N   0  0  0  0  0  0  0  0  0  0  0  0
    0.5597   -2.2460   33.6918 C   0  0  0  0  0  0  0  0  0  0  0  0
    1.0288   -0.9542   33.0621 C   0  0  0  0  0  0  0  0  0  0  0  0
   -0.1416   -1.2419   32.1471 C   0  0  1  0  0  0  0  0  0  0  0  0
   -0.2707   -0.6335   30.7130 C   0  0  0  0  0  0  0  0  0  0  0  0
    0.1771    0.6705   30.4405 C   0  0  0  0  0  0  0  0  0  0  0  0
   -0.1523    1.3237   29.2553 C   0  0  0  0  0  0  0  0  0  0  0  0
   -0.9354    0.6780   28.3080 C   0  0  0  0  0  0  0  0  0  0  0  0
   -1.6249    1.6922   26.8735 Br  0  0  0  0  0  0  0  0  0  0  0  0
   -1.2997   -0.6503   28.4837 C   0  0  0  0  0  0  0  0  0  0  0  0
   -0.9743   -1.2933   29.6803 C   0  0  0  0  0  0  0  0  0  0  0  0
  1  2  2  0
  2  3  1  0
  3  4  1  0
  4  5  1  0
  5  6  1  0
  5  7  2  0
  7  8  1  0
  8  9  2  0
  9 10  1  0
 10 11  2  0
 11 12  1  0
 12 13  2  0
 13 14  1  0
 13 15  1  0
 15 16  2  0
  2 17  1  0
 17 18  1  0
 18 19  1  0
 19 20  1  0
 20 21  1  6
 21 22  2  0
 22 23  1  0
 23 24  2  0
 24 25  1  0
 24 26  1  0
 26 27  2  0
  9  4  1  0
 16 10  1  0
 20 17  1  0
 27 21  1  0
M  END
>  <ref_mols>  (1467) 
B0454a

>  <gnina_score>  (1467) 
6.086

>  <smina_score_min>  (1467) 
-6.252

>  <ref_pdb>  (1467) 
B0454a

>  <inspiration_score>  (1467) 
None

>  <inchikey>  (1467) 
DPWRPTTTYNMZBO-INIZCTEOSA-N

>  <tags>  (1467) 
BulkDock Fragalysis export,openbind_d68ev3c_c2_elabs_scored,openbind_d68ev3c_c2_elabs_scored_4.5plus,openbind_d68ev3c_c2_elabs,openbind_d68ev3c_c2_elabs_scored_5plus,syndirella_product,openbind_d68ev3c_c2_elabs_scored_top80percent,syndirella_placed

>  <smiles>  (1467) 
O=C(Cn1c(S)nnc1-c1ccc(Cl)cc1)N1CC[C@H]1c1ccc(Br)cc1

>  <subsites>  (1467) 
None

>  <rmsd(smina/fragmenstein)>  (1467) 
0.362

>  <alias>  (1467) 
None

>  <energy_score>  (1467) 
-9.174277

>  <HIPPO Pose ID>  (1467) 
117151

>  <distance_score>  (1467) 
0.811216

>  <HIPPO Compound ID>  (1467) 
151688

>  <gnina_score_min>  (1467) 
6.111

>  <name>  (1467) 
P117151

>  <exports>  (1467) 
['/opt/xchem-fragalysis-2/maxwin/BulkDock/OUTPUTS/openbind_d68ev3c_c2_elabs_1LOTQJ3.sdf', '/opt/xchem-fragalysis-2/maxwin/BulkDock/OUTPUTS/openbind_d68ev3c_c2_elabs_1LSYI5W.sdf']

$$$$
P117154
     RDKit          3D

 27 30  0  0  0  0  0  0  0  0999 V2000
   -1.8541   -4.2575   31.9249 O   0  0  0  0  0  0  0  0  0  0  0  0
   -0.7422   -3.9700   32.1781 C   0  0  0  0  0  0  0  0  0  0  0  0
    0.3843   -4.9934   32.2335 C   0  0  0  0  0  0  0  0  0  0  0  0
   -0.1575   -6.2906   32.5717 N   0  0  0  0  0  0  0  0  0  0  0  0
   -0.6818   -7.2254   31.7315 C   0  0  0  0  0  0  0  0  0  0  0  0
   -0.3519   -7.3568   30.0659 S   0  0  0  0  0  0  0  0  0  0  0  0
   -1.4189   -8.0671   32.3980 N   0  0  0  0  0  0  0  0  0  0  0  0
   -1.3226   -7.7222   33.7216 N   0  0  0  0  0  0  0  0  0  0  0  0
   -0.4641   -6.7294   33.8400 C   0  0  0  0  0  0  0  0  0  0  0  0
    0.0621   -6.1787   35.0853 C   0  0  0  0  0  0  0  0  0  0  0  0
    1.4438   -6.0827   35.3091 C   0  0  0  0  0  0  0  0  0  0  0  0
    1.9346   -5.5562   36.5081 C   0  0  0  0  0  0  0  0  0  0  0  0
    1.0458   -5.1344   37.4951 C   0  0  0  0  0  0  0  0  0  0  0  0
    1.6518   -4.4777   38.9642 Cl  0  0  0  0  0  0  0  0  0  0  0  0
   -0.3267   -5.2414   37.2952 C   0  0  0  0  0  0  0  0  0  0  0  0
   -0.8111   -5.7657   36.0939 C   0  0  0  0  0  0  0  0  0  0  0  0
   -0.1175   -2.6241   32.4259 N   0  0  0  0  0  0  0  0  0  0  0  0
   -0.1684   -2.2404   33.9331 C   0  0  0  0  0  0  0  0  0  0  0  0
    0.1883   -0.8394   33.4810 C   0  0  0  0  0  0  0  0  0  0  0  0
   -0.7039   -1.2264   32.3264 C   0  0  1  0  0  0  0  0  0  0  0  0
   -0.5822   -0.6529   30.8693 C   0  0  0  0  0  0  0  0  0  0  0  0
   -1.2242   -1.3175   29.7952 C   0  0  0  0  0  0  0  0  0  0  0  0
   -1.1771   -0.8468   28.4837 C   0  0  0  0  0  0  0  0  0  0  0  0
   -0.4766    0.3162   28.2046 C   0  0  0  0  0  0  0  0  0  0  0  0
    0.1737    0.9809   29.2333 C   0  0  0  0  0  0  0  0  0  0  0  0
    0.8653    2.0962   28.9647 F   0  0  0  0  0  0  0  0  0  0  0  0
    0.1257    0.5120   30.5447 C   0  0  0  0  0  0  0  0  0  0  0  0
  1  2  2  0
  2  3  1  0
  3  4  1  0
  4  5  1  0
  5  6  1  0
  5  7  2  0
  7  8  1  0
  8  9  2  0
  9 10  1  0
 10 11  2  0
 11 12  1  0
 12 13  2  0
 13 14  1  0
 13 15  1  0
 15 16  2  0
  2 17  1  0
 17 18  1  0
 18 19  1  0
 19 20  1  0
 20 21  1  6
 21 22  2  0
 22 23  1  0
 23 24  2  0
 24 25  1  0
 25 26  1  0
 25 27  2  0
  9  4  1  0
 16 10  1  0
 20 17  1  0
 27 21  1  0
M  END
>  <ref_mols>  (1468) 
B0454a

>  <gnina_score>  (1468) 
6.0

>  <smina_score_min>  (1468) 
-5.503

>  <ref_pdb>  (1468) 
B0454a

>  <inspiration_score>  (1468) 
None

>  <inchikey>  (1468) 
FRSCXVSUNPBDIK-INIZCTEOSA-N

>  <tags>  (1468) 
BulkDock Fragalysis export,openbind_d68ev3c_c2_elabs_scored,openbind_d68ev3c_c2_elabs_scored_4.5plus,openbind_d68ev3c_c2_elabs,openbind_d68ev3c_c2_elabs_scored_5plus,syndirella_product,openbind_d68ev3c_c2_elabs_scored_top80percent,syndirella_placed

>  <smiles>  (1468) 
O=C(Cn1c(S)nnc1-c1ccc(Cl)cc1)N1CC[C@H]1c1cccc(F)c1

>  <subsites>  (1468) 
None

>  <rmsd(smina/fragmenstein)>  (1468) 
0.361

>  <alias>  (1468) 
None

>  <energy_score>  (1468) 
-18.629667

>  <HIPPO Pose ID>  (1468) 
117154

>  <distance_score>  (1468) 
0.853039

>  <HIPPO Compound ID>  (1468) 
151692

>  <gnina_score_min>  (1468) 
5.818

>  <name>  (1468) 
P117154

>  <exports>  (1468) 
['/opt/xchem-fragalysis-2/maxwin/BulkDock/OUTPUTS/openbind_d68ev3c_c2_elabs_1LOTQJ3.sdf', '/opt/xchem-fragalysis-2/maxwin/BulkDock/OUTPUTS/openbind_d68ev3c_c2_elabs_1LSYI5W.sdf']

$$$$
P117157
     RDKit          3D

 27 30  0  0  0  0  0  0  0  0999 V2000
   -0.0290   -4.1322   35.4633 C   0  0  0  0  0  0  0  0  0  0  0  0
    0.8571   -4.6642   34.3337 C   0  0  0  0  0  0  0  0  0  0  0  0
    2.2339   -3.9819   34.4079 C   0  0  0  0  0  0  0  0  0  0  0  0
    0.2439   -4.5519   32.9047 C   0  0  2  0  0  0  0  0  0  0  0  0
   -0.9782   -3.6269   32.6807 C   0  0  0  0  0  0  0  0  0  0  0  0
   -2.0027   -4.0412   32.2932 O   0  0  0  0  0  0  0  0  0  0  0  0
   -0.5204   -2.1585   32.9590 N   0  0  0  0  0  0  0  0  0  0  0  0
   -1.1777   -0.9450   32.7331 N   0  0  0  0  0  0  0  0  0  0  0  0
   -2.0082   -1.0074   31.4820 C   0  0  0  0  0  0  0  0  0  0  0  0
   -1.1646   -0.4298   30.3991 C   0  0  0  0  0  0  0  0  0  0  0  0
   -1.3406   -0.4652   29.0283 C   0  0  0  0  0  0  0  0  0  0  0  0
   -0.4644    0.2708   28.2379 C   0  0  0  0  0  0  0  0  0  0  0  0
    0.5767    1.0047   28.8229 C   0  0  0  0  0  0  0  0  0  0  0  0
    0.7611    1.0079   30.2069 C   0  0  0  0  0  0  0  0  0  0  0  0
   -0.1184    0.2811   30.9806 C   0  0  0  0  0  0  0  0  0  0  0  0
   -0.1937    0.1520   32.4657 C   0  0  0  0  0  0  0  0  0  0  0  0
   -0.0147   -5.8265   32.2116 N   0  0  0  0  0  0  0  0  0  0  0  0
   -0.6592   -6.9602   32.6348 C   0  0  0  0  0  0  0  0  0  0  0  0
   -1.2047   -7.2579   34.2410 S   0  0  0  0  0  0  0  0  0  0  0  0
   -0.7689   -7.8136   31.6420 N   0  0  0  0  0  0  0  0  0  0  0  0
   -0.1973   -7.2412   30.5268 N   0  0  0  0  0  0  0  0  0  0  0  0
    0.2235   -6.0366   30.8599 C   0  0  0  0  0  0  0  0  0  0  0  0
    0.8232   -5.0844   29.9620 C   0  0  0  0  0  0  0  0  0  0  0  0
    2.0796   -5.1007   29.3860 C   0  0  0  0  0  0  0  0  0  0  0  0
    2.3741   -3.9170   28.6471 C   0  0  0  0  0  0  0  0  0  0  0  0
    1.3111   -3.0486   28.6445 C   0  0  0  0  0  0  0  0  0  0  0  0
   -0.0388   -3.6952   29.4581 S   0  0  0  0  0  0  0  0  0  0  0  0
  1  2  1  0
  2  3  1  0
  4  2  1  1
  4  5  1  0
  5  6  2  0
  5  7  1  0
  7  8  1  0
  8  9  1  0
  9 10  1  0
 10 11  2  0
 11 12  1  0
 12 13  2  0
 13 14  1  0
 14 15  2  0
 15 16  1  0
  4 17  1  0
 17 18  1  0
 18 19  1  0
 18 20  2  0
 20 21  1  0
 21 22  2  0
 22 23  1  0
 23 24  2  0
 24 25  1  0
 25 26  2  0
 26 27  1  0
 16  8  1  0
 22 17  1  0
 27 23  1  0
 15 10  1  0
M  END
>  <ref_mols>  (1469) 
B0454a

>  <gnina_score>  (1469) 
5.834

>  <smina_score_min>  (1469) 
-5.376

>  <ref_pdb>  (1469) 
B0454a

>  <inspiration_score>  (1469) 
None

>  <inchikey>  (1469) 
NUWCXOCVVJJPNU-MRXNPFEDSA-N

>  <tags>  (1469) 
BulkDock Fragalysis export,openbind_d68ev3c_c2_elabs_scored,openbind_d68ev3c_c2_elabs_scored_4.5plus,openbind_d68ev3c_c2_elabs,openbind_d68ev3c_c2_elabs_scored_5plus,syndirella_product,openbind_d68ev3c_c2_elabs_scored_top80percent,syndirella_placed

>  <smiles>  (1469) 
CC(C)[C@H](C(=O)NN1Cc2ccccc2C1)n1c(S)nnc1-c1cccs1

>  <subsites>  (1469) 
None

>  <rmsd(smina/fragmenstein)>  (1469) 
0.599

>  <alias>  (1469) 
None

>  <energy_score>  (1469) 
-27.239628

>  <HIPPO Pose ID>  (1469) 
117157

>  <distance_score>  (1469) 
1.073666

>  <HIPPO Compound ID>  (1469) 
151739

>  <gnina_score_min>  (1469) 
5.636

>  <name>  (1469) 
P117157

>  <exports>  (1469) 
['/opt/xchem-fragalysis-2/maxwin/BulkDock/OUTPUTS/openbind_d68ev3c_c2_elabs_1LOTQJ3.sdf', '/opt/xchem-fragalysis-2/maxwin/BulkDock/OUTPUTS/openbind_d68ev3c_c2_elabs_1LSYI5W.sdf']

$$$$
P117172
     RDKit          3D

 27 29  0  0  0  0  0  0  0  0999 V2000
    1.1535    2.2366   30.2596 C   0  0  0  0  0  0  0  0  0  0  0  0
    0.2759    1.0747   29.8777 C   0  0  0  0  0  0  0  0  0  0  0  0
   -0.1260    0.9696   28.5357 C   0  0  0  0  0  0  0  0  0  0  0  0
   -0.9195   -0.0895   28.1070 C   0  0  0  0  0  0  0  0  0  0  0  0
   -1.3291   -1.0590   29.0091 C   0  0  0  0  0  0  0  0  0  0  0  0
   -0.9851   -0.9461   30.3535 C   0  0  0  0  0  0  0  0  0  0  0  0
   -0.1650    0.1060   30.8098 C   0  0  0  0  0  0  0  0  0  0  0  0
    0.2311    0.1537   32.2950 C   0  0  0  0  0  0  0  0  0  0  0  0
    0.9424   -1.1471   32.6063 N   0  0  0  0  0  0  0  0  0  0  0  0
    1.4188   -0.3475   33.7946 C   0  0  0  0  0  0  0  0  0  0  0  0
    0.4289   -2.4141   33.0359 C   0  0  0  0  0  0  0  0  0  0  0  0
   -0.6878   -2.7402   33.3452 O   0  0  0  0  0  0  0  0  0  0  0  0
    1.5372   -3.5086   32.9643 C   0  0  1  0  0  0  0  0  0  0  0  0
    2.6861   -3.4817   34.0102 C   0  0  0  0  0  0  0  0  0  0  0  0
    3.7239   -4.5830   33.7839 C   0  0  0  0  0  0  0  0  0  0  0  0
    2.2836   -3.4160   35.4809 C   0  0  0  0  0  0  0  0  0  0  0  0
    0.9341   -4.7907   32.5690 N   0  0  0  0  0  0  0  0  0  0  0  0
    0.7125   -5.1996   31.2671 C   0  0  0  0  0  0  0  0  0  0  0  0
    1.0988   -4.2945   29.8476 S   0  0  0  0  0  0  0  0  0  0  0  0
    0.1574   -6.3848   31.2389 N   0  0  0  0  0  0  0  0  0  0  0  0
   -0.0399   -6.7674   32.5354 N   0  0  0  0  0  0  0  0  0  0  0  0
    0.3697   -5.7939   33.3306 C   0  0  0  0  0  0  0  0  0  0  0  0
    0.2255   -5.8735   34.7486 C   0  0  0  0  0  0  0  0  0  0  0  0
   -0.5755   -5.1143   35.5766 C   0  0  0  0  0  0  0  0  0  0  0  0
   -0.5163   -5.5416   36.9372 C   0  0  0  0  0  0  0  0  0  0  0  0
    0.3182   -6.6241   37.0990 C   0  0  0  0  0  0  0  0  0  0  0  0
    1.0416   -7.0971   35.6255 S   0  0  0  0  0  0  0  0  0  0  0  0
  1  2  1  0
  2  3  2  0
  3  4  1  0
  4  5  2  0
  5  6  1  0
  6  7  2  0
  7  8  1  0
  8  9  1  0
  9 10  1  0
  9 11  1  0
 11 12  2  0
 11 13  1  0
 13 14  1  1
 14 15  1  0
 14 16  1  0
 13 17  1  0
 17 18  1  0
 18 19  1  0
 18 20  2  0
 20 21  1  0
 21 22  2  0
 22 23  1  0
 23 24  2  0
 24 25  1  0
 25 26  2  0
 26 27  1  0
  7  2  1  0
 22 17  1  0
 27 23  1  0
M  END
>  <ref_mols>  (1470) 
B0454a

>  <gnina_score>  (1470) 
5.322

>  <smina_score_min>  (1470) 
-4.555

>  <ref_pdb>  (1470) 
B0454a

>  <inspiration_score>  (1470) 
None

>  <inchikey>  (1470) 
VLTXGOSOEMJRRO-QGZVFWFLSA-N

>  <tags>  (1470) 
BulkDock Fragalysis export,openbind_d68ev3c_c2_elabs_scored,openbind_d68ev3c_c2_elabs_scored_4.5plus,openbind_d68ev3c_c2_elabs,openbind_d68ev3c_c2_elabs_scored_5plus,syndirella_product,openbind_d68ev3c_c2_elabs_scored_top80percent,syndirella_placed

>  <smiles>  (1470) 
Cc1ccccc1CN(C)C(=O)[C@@H](C(C)C)n1c(S)nnc1-c1cccs1

>  <subsites>  (1470) 
None

>  <rmsd(smina/fragmenstein)>  (1470) 
0.455

>  <alias>  (1470) 
None

>  <energy_score>  (1470) 
-21.295254

>  <HIPPO Pose ID>  (1470) 
117172

>  <distance_score>  (1470) 
1.89282

>  <HIPPO Compound ID>  (1470) 
151749

>  <gnina_score_min>  (1470) 
5.309

>  <name>  (1470) 
P117172

>  <exports>  (1470) 
['/opt/xchem-fragalysis-2/maxwin/BulkDock/OUTPUTS/openbind_d68ev3c_c2_elabs_1LOTQJ3.sdf', '/opt/xchem-fragalysis-2/maxwin/BulkDock/OUTPUTS/openbind_d68ev3c_c2_elabs_1LSYI5W.sdf']

$$$$
P117179
     RDKit          3D

 27 30  0  0  0  0  0  0  0  0999 V2000
    0.5875   -5.8228   40.0384 C   0  0  0  0  0  0  0  0  0  0  0  0
    0.4035   -4.8917   38.9779 O   0  0  0  0  0  0  0  0  0  0  0  0
    0.0950   -5.4161   37.7546 C   0  0  0  0  0  0  0  0  0  0  0  0
    0.1116   -6.7640   37.4133 C   0  0  0  0  0  0  0  0  0  0  0  0
   -0.2466   -7.1620   36.1202 C   0  0  0  0  0  0  0  0  0  0  0  0
   -0.5821   -6.2300   35.1310 C   0  0  0  0  0  0  0  0  0  0  0  0
   -0.8867   -6.7327   33.7893 C   0  0  0  0  0  0  0  0  0  0  0  0
   -1.5949   -7.8223   33.5459 N   0  0  0  0  0  0  0  0  0  0  0  0
   -1.4923   -8.1429   32.2228 N   0  0  0  0  0  0  0  0  0  0  0  0
   -0.7386   -7.2345   31.6758 C   0  0  0  0  0  0  0  0  0  0  0  0
   -0.1611   -7.3349   30.0789 S   0  0  0  0  0  0  0  0  0  0  0  0
   -0.4129   -6.2660   32.5785 N   0  0  0  0  0  0  0  0  0  0  0  0
    0.2131   -4.9876   32.3019 C   0  0  0  0  0  0  0  0  0  0  0  0
   -0.8572   -3.9161   32.1384 C   0  0  0  0  0  0  0  0  0  0  0  0
   -2.0012   -4.1613   32.2213 O   0  0  0  0  0  0  0  0  0  0  0  0
   -0.1653   -2.6178   31.9567 N   0  0  0  0  0  0  0  0  0  0  0  0
    0.2846   -1.7465   32.9752 C   0  0  1  0  0  0  0  0  0  0  0  0
    1.7119   -1.3272   32.9861 C   0  0  0  0  0  0  0  0  0  0  0  0
   -0.6734   -1.2929   31.9241 C   0  0  1  0  0  0  0  0  0  0  0  0
   -0.4764   -0.6423   30.6039 C   0  0  0  0  0  0  0  0  0  0  0  0
   -1.0792   -1.2137   29.4644 C   0  0  0  0  0  0  0  0  0  0  0  0
   -1.0476   -0.5776   28.2307 C   0  0  0  0  0  0  0  0  0  0  0  0
   -0.3983    0.6425   28.1067 C   0  0  0  0  0  0  0  0  0  0  0  0
    0.2213    1.2190   29.2126 C   0  0  0  0  0  0  0  0  0  0  0  0
    0.1790    0.5826   30.4536 C   0  0  0  0  0  0  0  0  0  0  0  0
   -0.6189   -4.8825   35.4931 C   0  0  0  0  0  0  0  0  0  0  0  0
   -0.2767   -4.4797   36.7896 C   0  0  0  0  0  0  0  0  0  0  0  0
  1  2  1  0
  2  3  1  0
  3  4  2  0
  4  5  1  0
  5  6  2  0
  6  7  1  0
  7  8  2  0
  8  9  1  0
  9 10  2  0
 10 11  1  0
 10 12  1  0
 12 13  1  0
 13 14  1  0
 14 15  2  0
 14 16  1  0
 16 17  1  0
 17 18  1  6
 17 19  1  0
 19 20  1  6
 20 21  2  0
 21 22  1  0
 22 23  2  0
 23 24  1  0
 24 25  2  0
  6 26  1  0
 26 27  2  0
 27  3  1  0
 12  7  1  0
 19 16  1  0
 25 20  1  0
M  END
>  <ref_mols>  (1471) 
B0454a

>  <gnina_score>  (1471) 
5.836

>  <smina_score_min>  (1471) 
-5.337

>  <ref_pdb>  (1471) 
B0454a

>  <inspiration_score>  (1471) 
None

>  <inchikey>  (1471) 
SUVQOPBKDQIXMA-VUSMEJPJSA-N

>  <tags>  (1471) 
BulkDock Fragalysis export,openbind_d68ev3c_c2_elabs_scored,openbind_d68ev3c_c2_elabs_scored_4.5plus,openbind_d68ev3c_c2_elabs,openbind_d68ev3c_c2_elabs_scored_5plus,syndirella_product,openbind_d68ev3c_c2_elabs_scored_top80percent,syndirella_placed

>  <smiles>  (1471) 
COc1ccc(-c2nnc(S)n2CC(=O)N2[C@H](c3ccccc3)[C@@H]2C)cc1

>  <subsites>  (1471) 
None

>  <rmsd(smina/fragmenstein)>  (1471) 
0.98

>  <alias>  (1471) 
None

>  <energy_score>  (1471) 
-38.620298

>  <HIPPO Pose ID>  (1471) 
117179

>  <distance_score>  (1471) 
0.889394

>  <HIPPO Compound ID>  (1471) 
151778

>  <gnina_score_min>  (1471) 
5.665

>  <name>  (1471) 
P117179

>  <exports>  (1471) 
['/opt/xchem-fragalysis-2/maxwin/BulkDock/OUTPUTS/openbind_d68ev3c_c2_elabs_1LOTQJ3.sdf', '/opt/xchem-fragalysis-2/maxwin/BulkDock/OUTPUTS/openbind_d68ev3c_c2_elabs_1LSYI5W.sdf']

$$$$
P117182
     RDKit          3D

 27 30  0  0  0  0  0  0  0  0999 V2000
    0.9068   -7.5673   38.5619 C   0  0  0  0  0  0  0  0  0  0  0  0
    0.3159   -6.6063   37.5726 C   0  0  0  0  0  0  0  0  0  0  0  0
    0.0687   -5.2802   37.9329 C   0  0  0  0  0  0  0  0  0  0  0  0
   -0.5086   -4.4058   37.0178 C   0  0  0  0  0  0  0  0  0  0  0  0
   -0.8246   -4.8491   35.7313 C   0  0  0  0  0  0  0  0  0  0  0  0
   -0.5840   -6.1678   35.3384 C   0  0  0  0  0  0  0  0  0  0  0  0
   -0.8665   -6.6654   33.9871 C   0  0  0  0  0  0  0  0  0  0  0  0
   -1.5401   -7.7657   33.7005 N   0  0  0  0  0  0  0  0  0  0  0  0
   -1.4299   -8.0268   32.3592 N   0  0  0  0  0  0  0  0  0  0  0  0
   -0.7066   -7.0715   31.8479 C   0  0  0  0  0  0  0  0  0  0  0  0
   -0.1495   -7.0543   30.2358 S   0  0  0  0  0  0  0  0  0  0  0  0
   -0.3996   -6.1425   32.7973 N   0  0  0  0  0  0  0  0  0  0  0  0
    0.2456   -4.8619   32.5948 C   0  0  0  0  0  0  0  0  0  0  0  0
   -0.8003   -3.7749   32.3675 C   0  0  0  0  0  0  0  0  0  0  0  0
   -1.9451   -4.0053   32.2138 O   0  0  0  0  0  0  0  0  0  0  0  0
   -0.0689   -2.4539   32.4277 N   0  0  0  0  0  0  0  0  0  0  0  0
    0.0068   -1.9097   33.8827 C   0  0  0  0  0  0  0  0  0  0  0  0
    0.4295   -0.5981   33.2583 C   0  0  0  0  0  0  0  0  0  0  0  0
   -0.5667   -1.0354   32.2090 C   0  0  1  0  0  0  0  0  0  0  0  0
   -0.5321   -0.5763   30.7201 C   0  0  0  0  0  0  0  0  0  0  0  0
   -1.1349   -1.3537   29.7069 C   0  0  0  0  0  0  0  0  0  0  0  0
   -1.2085   -0.9144   28.3876 C   0  0  0  0  0  0  0  0  0  0  0  0
   -0.6747    0.3196   28.0401 C   0  0  0  0  0  0  0  0  0  0  0  0
   -0.0547    1.1027   29.0062 C   0  0  0  0  0  0  0  0  0  0  0  0
    0.0080    0.6516   30.3204 C   0  0  0  0  0  0  0  0  0  0  0  0
    0.5654    1.4505   31.2431 F   0  0  0  0  0  0  0  0  0  0  0  0
   -0.0485   -7.0446   36.2889 C   0  0  0  0  0  0  0  0  0  0  0  0
  1  2  1  0
  2  3  2  0
  3  4  1  0
  4  5  2  0
  5  6  1  0
  6  7  1  0
  7  8  2  0
  8  9  1  0
  9 10  2  0
 10 11  1  0
 10 12  1  0
 12 13  1  0
 13 14  1  0
 14 15  2  0
 14 16  1  0
 16 17  1  0
 17 18  1  0
 18 19  1  0
 19 20  1  6
 20 21  2  0
 21 22  1  0
 22 23  2  0
 23 24  1  0
 24 25  2  0
 25 26  1  0
  6 27  2  0
 27  2  1  0
 12  7  1  0
 19 16  1  0
 25 20  1  0
M  END
>  <ref_mols>  (1472) 
B0454a

>  <gnina_score>  (1472) 
5.955

>  <smina_score_min>  (1472) 
-5.698

>  <ref_pdb>  (1472) 
B0454a

>  <inspiration_score>  (1472) 
None

>  <inchikey>  (1472) 
HZRILPYZERBQAD-KRWDZBQOSA-N

>  <tags>  (1472) 
BulkDock Fragalysis export,openbind_d68ev3c_c2_elabs_scored,openbind_d68ev3c_c2_elabs_scored_4.5plus,openbind_d68ev3c_c2_elabs,openbind_d68ev3c_c2_elabs_scored_5plus,syndirella_product,openbind_d68ev3c_c2_elabs_scored_top80percent,syndirella_placed

>  <smiles>  (1472) 
Cc1cccc(-c2nnc(S)n2CC(=O)N2CC[C@H]2c2ccccc2F)c1

>  <subsites>  (1472) 
None

>  <rmsd(smina/fragmenstein)>  (1472) 
0.303

>  <alias>  (1472) 
None

>  <energy_score>  (1472) 
-17.71908

>  <HIPPO Pose ID>  (1472) 
117182

>  <distance_score>  (1472) 
0.874579

>  <HIPPO Compound ID>  (1472) 
151787

>  <gnina_score_min>  (1472) 
5.901

>  <name>  (1472) 
P117182

>  <exports>  (1472) 
['/opt/xchem-fragalysis-2/maxwin/BulkDock/OUTPUTS/openbind_d68ev3c_c2_elabs_1LOTQJ3.sdf', '/opt/xchem-fragalysis-2/maxwin/BulkDock/OUTPUTS/openbind_d68ev3c_c2_elabs_1LSYI5W.sdf']

$$$$
P117184
     RDKit          3D

 27 30  0  0  0  0  0  0  0  0999 V2000
    0.3058   -5.1897   39.3555 C   0  0  0  0  0  0  0  0  0  0  0  0
    0.0120   -5.5618   37.9334 C   0  0  0  0  0  0  0  0  0  0  0  0
    0.1139   -6.8890   37.5146 C   0  0  0  0  0  0  0  0  0  0  0  0
   -0.2366   -7.2460   36.2096 C   0  0  0  0  0  0  0  0  0  0  0  0
   -0.6488   -6.2921   35.2779 C   0  0  0  0  0  0  0  0  0  0  0  0
   -0.9170   -6.7311   33.9057 C   0  0  0  0  0  0  0  0  0  0  0  0
   -1.5885   -7.8204   33.5728 N   0  0  0  0  0  0  0  0  0  0  0  0
   -1.4453   -8.0486   32.2309 N   0  0  0  0  0  0  0  0  0  0  0  0
   -0.7034   -7.0844   31.7662 C   0  0  0  0  0  0  0  0  0  0  0  0
   -0.0915   -7.0387   30.1780 S   0  0  0  0  0  0  0  0  0  0  0  0
   -0.4157   -6.1808   32.7443 N   0  0  0  0  0  0  0  0  0  0  0  0
    0.2433   -4.9010   32.5892 C   0  0  0  0  0  0  0  0  0  0  0  0
   -0.7916   -3.8003   32.3987 C   0  0  0  0  0  0  0  0  0  0  0  0
   -1.9436   -4.0167   32.2850 O   0  0  0  0  0  0  0  0  0  0  0  0
   -0.0407   -2.4875   32.4210 N   0  0  0  0  0  0  0  0  0  0  0  0
    0.0899   -1.9300   33.8673 C   0  0  0  0  0  0  0  0  0  0  0  0
    0.4981   -0.6256   33.2254 C   0  0  0  0  0  0  0  0  0  0  0  0
   -0.5270   -1.0646   32.2038 C   0  0  1  0  0  0  0  0  0  0  0  0
   -0.4991   -0.5877   30.7144 C   0  0  0  0  0  0  0  0  0  0  0  0
    0.0868    0.6245   30.3129 C   0  0  0  0  0  0  0  0  0  0  0  0
    0.0054    1.0736   28.9927 C   0  0  0  0  0  0  0  0  0  0  0  0
   -0.6600    0.3153   28.0353 C   0  0  0  0  0  0  0  0  0  0  0  0
   -1.2270   -0.8999   28.3888 C   0  0  0  0  0  0  0  0  0  0  0  0
   -1.1434   -1.3307   29.7047 C   0  0  0  0  0  0  0  0  0  0  0  0
   -1.7379   -2.4887   30.0218 F   0  0  0  0  0  0  0  0  0  0  0  0
   -0.7849   -4.9734   35.7165 C   0  0  0  0  0  0  0  0  0  0  0  0
   -0.4640   -4.6088   37.0297 C   0  0  0  0  0  0  0  0  0  0  0  0
  1  2  1  0
  2  3  2  0
  3  4  1  0
  4  5  2  0
  5  6  1  0
  6  7  2  0
  7  8  1  0
  8  9  2  0
  9 10  1  0
  9 11  1  0
 11 12  1  0
 12 13  1  0
 13 14  2  0
 13 15  1  0
 15 16  1  0
 16 17  1  0
 17 18  1  0
 18 19  1  6
 19 20  2  0
 20 21  1  0
 21 22  2  0
 22 23  1  0
 23 24  2  0
 24 25  1  0
  5 26  1  0
 26 27  2  0
 27  2  1  0
 11  6  1  0
 18 15  1  0
 24 19  1  0
M  END
>  <ref_mols>  (1473) 
B0454a

>  <gnina_score>  (1473) 
6.052

>  <smina_score_min>  (1473) 
-5.936

>  <ref_pdb>  (1473) 
B0454a

>  <inspiration_score>  (1473) 
None

>  <inchikey>  (1473) 
HCURPRBTWYRNRW-KRWDZBQOSA-N

>  <tags>  (1473) 
BulkDock Fragalysis export,openbind_d68ev3c_c2_elabs_scored,openbind_d68ev3c_c2_elabs_scored_4.5plus,openbind_d68ev3c_c2_elabs,openbind_d68ev3c_c2_elabs_scored_5plus,syndirella_product,openbind_d68ev3c_c2_elabs_scored_top80percent,syndirella_placed

>  <smiles>  (1473) 
Cc1ccc(-c2nnc(S)n2CC(=O)N2CC[C@H]2c2ccccc2F)cc1

>  <subsites>  (1473) 
None

>  <rmsd(smina/fragmenstein)>  (1473) 
0.784

>  <alias>  (1473) 
None

>  <energy_score>  (1473) 
-7.512933

>  <HIPPO Pose ID>  (1473) 
117184

>  <distance_score>  (1473) 
0.828242

>  <HIPPO Compound ID>  (1473) 
151807

>  <gnina_score_min>  (1473) 
5.972

>  <name>  (1473) 
P117184

>  <exports>  (1473) 
['/opt/xchem-fragalysis-2/maxwin/BulkDock/OUTPUTS/openbind_d68ev3c_c2_elabs_1LOTQJ3.sdf', '/opt/xchem-fragalysis-2/maxwin/BulkDock/OUTPUTS/openbind_d68ev3c_c2_elabs_1LSYI5W.sdf']

$$$$
P117186
     RDKit          3D

 27 30  0  0  0  0  0  0  0  0999 V2000
    0.9043   -7.5857   38.5917 C   0  0  0  0  0  0  0  0  0  0  0  0
    0.3045   -6.6186   37.6138 C   0  0  0  0  0  0  0  0  0  0  0  0
    0.0311   -5.3036   37.9952 C   0  0  0  0  0  0  0  0  0  0  0  0
   -0.5549   -4.4238   37.0910 C   0  0  0  0  0  0  0  0  0  0  0  0
   -0.8542   -4.8507   35.7950 C   0  0  0  0  0  0  0  0  0  0  0  0
   -0.5894   -6.1589   35.3815 C   0  0  0  0  0  0  0  0  0  0  0  0
   -0.8511   -6.6368   34.0183 C   0  0  0  0  0  0  0  0  0  0  0  0
   -1.4947   -7.7475   33.7021 N   0  0  0  0  0  0  0  0  0  0  0  0
   -1.3700   -7.9752   32.3554 N   0  0  0  0  0  0  0  0  0  0  0  0
   -0.6667   -6.9904   31.8718 C   0  0  0  0  0  0  0  0  0  0  0  0
   -0.1025   -6.9139   30.2637 S   0  0  0  0  0  0  0  0  0  0  0  0
   -0.3879   -6.0768   32.8445 N   0  0  0  0  0  0  0  0  0  0  0  0
    0.2260   -4.7762   32.6731 C   0  0  0  0  0  0  0  0  0  0  0  0
   -0.8431   -3.7194   32.4153 C   0  0  0  0  0  0  0  0  0  0  0  0
   -1.9710   -3.9832   32.2014 O   0  0  0  0  0  0  0  0  0  0  0  0
   -0.1547   -2.3772   32.5129 N   0  0  0  0  0  0  0  0  0  0  0  0
   -0.1722   -1.8318   33.9696 C   0  0  0  0  0  0  0  0  0  0  0  0
    0.2446   -0.4992   33.3707 C   0  0  2  0  0  0  0  0  0  0  0  0
   -0.1725    0.7333   34.1464 C   0  0  0  0  0  0  0  0  0  0  0  0
   -0.6816   -0.9741   32.2668 C   0  0  1  0  0  0  0  0  0  0  0  0
   -0.5669   -0.5303   30.7707 C   0  0  0  0  0  0  0  0  0  0  0  0
    0.0797    0.6460   30.3624 C   0  0  0  0  0  0  0  0  0  0  0  0
    0.0708    1.0582   29.0293 C   0  0  0  0  0  0  0  0  0  0  0  0
   -0.5783    0.2934   28.0673 C   0  0  0  0  0  0  0  0  0  0  0  0
   -1.1989   -0.8933   28.4268 C   0  0  0  0  0  0  0  0  0  0  0  0
   -1.1901   -1.2945   29.7584 C   0  0  0  0  0  0  0  0  0  0  0  0
   -0.0441   -7.0417   36.3205 C   0  0  0  0  0  0  0  0  0  0  0  0
  1  2  1  0
  2  3  2  0
  3  4  1  0
  4  5  2  0
  5  6  1  0
  6  7  1  0
  7  8  2  0
  8  9  1  0
  9 10  2  0
 10 11  1  0
 10 12  1  0
 12 13  1  0
 13 14  1  0
 14 15  2  0
 14 16  1  0
 16 17  1  0
 17 18  1  0
 18 19  1  1
 18 20  1  0
 20 21  1  6
 21 22  2  0
 22 23  1  0
 23 24  2  0
 24 25  1  0
 25 26  2  0
  6 27  2  0
 27  2  1  0
 12  7  1  0
 20 16  1  0
 26 21  1  0
M  END
>  <ref_mols>  (1474) 
B0454a

>  <gnina_score>  (1474) 
5.935

>  <smina_score_min>  (1474) 
-5.619

>  <ref_pdb>  (1474) 
B0454a

>  <inspiration_score>  (1474) 
None

>  <inchikey>  (1474) 
UAFFEVLGCFOZIN-KXBFYZLASA-N

>  <tags>  (1474) 
BulkDock Fragalysis export,openbind_d68ev3c_c2_elabs_scored,openbind_d68ev3c_c2_elabs_scored_4.5plus,openbind_d68ev3c_c2_elabs,openbind_d68ev3c_c2_elabs_scored_5plus,syndirella_product,openbind_d68ev3c_c2_elabs_scored_top80percent,syndirella_placed

>  <smiles>  (1474) 
Cc1cccc(-c2nnc(S)n2CC(=O)N2C[C@H](C)[C@H]2c2ccccc2)c1

>  <subsites>  (1474) 
None

>  <rmsd(smina/fragmenstein)>  (1474) 
0.397

>  <alias>  (1474) 
None

>  <energy_score>  (1474) 
-19.806901

>  <HIPPO Pose ID>  (1474) 
117186

>  <distance_score>  (1474) 
0.910431

>  <HIPPO Compound ID>  (1474) 
151817

>  <gnina_score_min>  (1474) 
5.824

>  <name>  (1474) 
P117186

>  <exports>  (1474) 
['/opt/xchem-fragalysis-2/maxwin/BulkDock/OUTPUTS/openbind_d68ev3c_c2_elabs_1LOTQJ3.sdf', '/opt/xchem-fragalysis-2/maxwin/BulkDock/OUTPUTS/openbind_d68ev3c_c2_elabs_1LSYI5W.sdf']

$$$$
P117188
     RDKit          3D

 27 30  0  0  0  0  0  0  0  0999 V2000
    0.9384   -7.5419   38.4260 C   0  0  0  0  0  0  0  0  0  0  0  0
    0.3653   -6.5974   37.4109 C   0  0  0  0  0  0  0  0  0  0  0  0
    0.1624   -5.2530   37.7273 C   0  0  0  0  0  0  0  0  0  0  0  0
   -0.4076   -4.3969   36.7910 C   0  0  0  0  0  0  0  0  0  0  0  0
   -0.7552   -4.8759   35.5253 C   0  0  0  0  0  0  0  0  0  0  0  0
   -0.5518   -6.2107   35.1728 C   0  0  0  0  0  0  0  0  0  0  0  0
   -0.8765   -6.7491   33.8471 C   0  0  0  0  0  0  0  0  0  0  0  0
   -1.5968   -7.8330   33.6213 N   0  0  0  0  0  0  0  0  0  0  0  0
   -1.5221   -8.1591   32.2939 N   0  0  0  0  0  0  0  0  0  0  0  0
   -0.7689   -7.2616   31.7280 C   0  0  0  0  0  0  0  0  0  0  0  0
   -0.2234   -7.3701   30.1167 S   0  0  0  0  0  0  0  0  0  0  0  0
   -0.4071   -6.3028   32.6261 N   0  0  0  0  0  0  0  0  0  0  0  0
    0.3187   -5.0795   32.3583 C   0  0  0  0  0  0  0  0  0  0  0  0
   -0.6450   -3.9065   32.2275 C   0  0  0  0  0  0  0  0  0  0  0  0
   -1.8161   -4.0349   32.1999 O   0  0  0  0  0  0  0  0  0  0  0  0
    0.2018   -2.6520   32.2503 N   0  0  0  0  0  0  0  0  0  0  0  0
    0.4890   -2.1831   33.7077 C   0  0  0  0  0  0  0  0  0  0  0  0
    0.9529   -0.8861   33.0849 C   0  0  0  0  0  0  0  0  0  0  0  0
   -0.1908   -1.1958   32.1437 C   0  0  1  0  0  0  0  0  0  0  0  0
   -0.2964   -0.5964   30.7047 C   0  0  0  0  0  0  0  0  0  0  0  0
    0.1633    0.7021   30.4276 C   0  0  0  0  0  0  0  0  0  0  0  0
   -0.1554    1.3505   29.2371 C   0  0  0  0  0  0  0  0  0  0  0  0
   -0.9377    0.7043   28.2894 C   0  0  0  0  0  0  0  0  0  0  0  0
   -1.6243    1.7182   26.8532 Br  0  0  0  0  0  0  0  0  0  0  0  0
   -1.3072   -0.6222   28.4678 C   0  0  0  0  0  0  0  0  0  0  0  0
   -0.9933   -1.2599   29.6698 C   0  0  0  0  0  0  0  0  0  0  0  0
   -0.0289   -7.0683   36.1475 C   0  0  0  0  0  0  0  0  0  0  0  0
  1  2  1  0
  2  3  2  0
  3  4  1  0
  4  5  2  0
  5  6  1  0
  6  7  1  0
  7  8  2  0
  8  9  1  0
  9 10  2  0
 10 11  1  0
 10 12  1  0
 12 13  1  0
 13 14  1  0
 14 15  2  0
 14 16  1  0
 16 17  1  0
 17 18  1  0
 18 19  1  0
 19 20  1  6
 20 21  2  0
 21 22  1  0
 22 23  2  0
 23 24  1  0
 23 25  1  0
 25 26  2  0
  6 27  2  0
 27  2  1  0
 12  7  1  0
 19 16  1  0
 26 20  1  0
M  END
>  <ref_mols>  (1475) 
B0454a

>  <gnina_score>  (1475) 
6.03

>  <smina_score_min>  (1475) 
-6.111

>  <ref_pdb>  (1475) 
B0454a

>  <inspiration_score>  (1475) 
None

>  <inchikey>  (1475) 
CPZFIINDYFSBHU-KRWDZBQOSA-N

>  <tags>  (1475) 
BulkDock Fragalysis export,openbind_d68ev3c_c2_elabs_scored,openbind_d68ev3c_c2_elabs_scored_4.5plus,openbind_d68ev3c_c2_elabs,openbind_d68ev3c_c2_elabs_scored_5plus,syndirella_product,openbind_d68ev3c_c2_elabs_scored_top80percent,syndirella_placed

>  <smiles>  (1475) 
Cc1cccc(-c2nnc(S)n2CC(=O)N2CC[C@H]2c2ccc(Br)cc2)c1

>  <subsites>  (1475) 
None

>  <rmsd(smina/fragmenstein)>  (1475) 
0.366

>  <alias>  (1475) 
None

>  <energy_score>  (1475) 
-8.773299

>  <HIPPO Pose ID>  (1475) 
117188

>  <distance_score>  (1475) 
0.858913

>  <HIPPO Compound ID>  (1475) 
151818

>  <gnina_score_min>  (1475) 
5.983

>  <name>  (1475) 
P117188

>  <exports>  (1475) 
['/opt/xchem-fragalysis-2/maxwin/BulkDock/OUTPUTS/openbind_d68ev3c_c2_elabs_1LOTQJ3.sdf', '/opt/xchem-fragalysis-2/maxwin/BulkDock/OUTPUTS/openbind_d68ev3c_c2_elabs_1LSYI5W.sdf']

$$$$
P117193
     RDKit          3D

 27 30  0  0  0  0  0  0  0  0999 V2000
    4.2626   -3.1170   31.9202 C   0  0  0  0  0  0  0  0  0  0  0  0
    3.0638   -3.6415   31.1862 C   0  0  0  0  0  0  0  0  0  0  0  0
    2.7980   -3.2204   29.8813 C   0  0  0  0  0  0  0  0  0  0  0  0
    1.7011   -3.7299   29.1907 C   0  0  0  0  0  0  0  0  0  0  0  0
    0.8636   -4.6690   29.7956 C   0  0  0  0  0  0  0  0  0  0  0  0
    1.1082   -5.1081   31.0930 C   0  0  0  0  0  0  0  0  0  0  0  0
    0.1850   -6.0358   31.7445 C   0  0  0  0  0  0  0  0  0  0  0  0
   -0.2286   -7.2112   31.3038 N   0  0  0  0  0  0  0  0  0  0  0  0
   -0.9068   -7.8329   32.3334 N   0  0  0  0  0  0  0  0  0  0  0  0
   -0.9334   -7.0001   33.3471 C   0  0  0  0  0  0  0  0  0  0  0  0
   -1.4032   -7.3529   34.9649 S   0  0  0  0  0  0  0  0  0  0  0  0
   -0.4193   -5.7998   32.9644 N   0  0  0  0  0  0  0  0  0  0  0  0
   -0.5039   -4.5111   33.6364 C   0  0  0  0  0  0  0  0  0  0  0  0
   -1.0247   -3.4492   32.6541 C   0  0  0  0  0  0  0  0  0  0  0  0
   -1.9435   -3.6411   31.9498 O   0  0  0  0  0  0  0  0  0  0  0  0
   -0.0524   -2.2238   32.7424 N   0  0  0  0  0  0  0  0  0  0  0  0
    0.0370   -1.0788   31.9484 C   0  0  0  0  0  0  0  0  0  0  0  0
    0.8748   -0.0476   32.4136 C   0  0  0  0  0  0  0  0  0  0  0  0
    1.1386    1.0980   31.6389 C   0  0  0  0  0  0  0  0  0  0  0  0
    0.5991    1.2210   30.3633 C   0  0  0  0  0  0  0  0  0  0  0  0
   -0.2100    0.1950   29.9234 C   0  0  0  0  0  0  0  0  0  0  0  0
   -0.5232   -0.9358   30.6904 C   0  0  0  0  0  0  0  0  0  0  0  0
   -1.4024   -1.8194   29.8736 C   0  0  0  0  0  0  0  0  0  0  0  0
   -1.4784   -1.1441   28.6032 N   0  0  0  0  0  0  0  0  0  0  0  0
   -0.7952    0.0437   28.5871 C   0  0  0  0  0  0  0  0  0  0  0  0
   -0.6467    0.8162   27.6631 O   0  0  0  0  0  0  0  0  0  0  0  0
    2.2242   -4.5980   31.7768 C   0  0  0  0  0  0  0  0  0  0  0  0
  1  2  1  0
  2  3  2  0
  3  4  1  0
  4  5  2  0
  5  6  1  0
  6  7  1  0
  7  8  2  0
  8  9  1  0
  9 10  2  0
 10 11  1  0
 10 12  1  0
 12 13  1  0
 13 14  1  0
 14 15  2  0
 14 16  1  0
 16 17  1  0
 17 18  2  0
 18 19  1  0
 19 20  2  0
 20 21  1  0
 21 22  2  0
 22 23  1  0
 23 24  1  0
 24 25  1  0
 25 26  2  0
  6 27  2  0
 27  2  1  0
 12  7  1  0
 22 17  1  0
 25 21  1  0
M  END
>  <ref_mols>  (1476) 
B0454a

>  <gnina_score>  (1476) 
5.369

>  <smina_score_min>  (1476) 
-5.164

>  <ref_pdb>  (1476) 
B0454a

>  <inspiration_score>  (1476) 
None

>  <inchikey>  (1476) 
RSJCKYSKMUCIQP-UHFFFAOYSA-N

>  <tags>  (1476) 
BulkDock Fragalysis export,openbind_d68ev3c_c2_elabs_scored,openbind_d68ev3c_c2_elabs_scored_4.5plus,openbind_d68ev3c_c2_elabs,openbind_d68ev3c_c2_elabs_scored_5plus,syndirella_product,openbind_d68ev3c_c2_elabs_scored_top80percent,syndirella_placed

>  <smiles>  (1476) 
Cc1cccc(-c2nnc(S)n2CC(=O)Nc2cccc3c2CNC3=O)c1

>  <subsites>  (1476) 
None

>  <rmsd(smina/fragmenstein)>  (1476) 
0.111

>  <alias>  (1476) 
None

>  <energy_score>  (1476) 
-29.539005

>  <HIPPO Pose ID>  (1476) 
117193

>  <distance_score>  (1476) 
0.946065

>  <HIPPO Compound ID>  (1476) 
151829

>  <gnina_score_min>  (1476) 
5.408

>  <name>  (1476) 
P117193

>  <exports>  (1476) 
['/opt/xchem-fragalysis-2/maxwin/BulkDock/OUTPUTS/openbind_d68ev3c_c2_elabs_1LOTQJ3.sdf', '/opt/xchem-fragalysis-2/maxwin/BulkDock/OUTPUTS/openbind_d68ev3c_c2_elabs_1LSYI5W.sdf']

$$$$
P117195
     RDKit          3D

 27 30  0  0  0  0  0  0  0  0999 V2000
    3.8957   -5.5518   27.1871 C   0  0  0  0  0  0  0  0  0  0  0  0
    2.9552   -4.8806   28.1442 C   0  0  0  0  0  0  0  0  0  0  0  0
    2.9096   -3.4935   28.2430 C   0  0  0  0  0  0  0  0  0  0  0  0
    1.9963   -2.9006   29.1046 C   0  0  0  0  0  0  0  0  0  0  0  0
    1.1665   -3.6935   29.9057 C   0  0  0  0  0  0  0  0  0  0  0  0
    1.2329   -5.0810   29.9030 C   0  0  0  0  0  0  0  0  0  0  0  0
    0.3833   -5.9114   30.7922 C   0  0  0  0  0  0  0  0  0  0  0  0
   -0.3265   -6.9670   30.4128 N   0  0  0  0  0  0  0  0  0  0  0  0
   -0.9431   -7.5179   31.5137 N   0  0  0  0  0  0  0  0  0  0  0  0
   -0.5744   -6.8196   32.5593 C   0  0  0  0  0  0  0  0  0  0  0  0
   -0.9684   -7.1836   34.1980 S   0  0  0  0  0  0  0  0  0  0  0  0
    0.2434   -5.7854   32.1735 N   0  0  0  0  0  0  0  0  0  0  0  0
    0.9902   -4.9033   33.0611 C   0  0  0  0  0  0  0  0  0  0  0  0
    0.1318   -3.8050   33.6880 C   0  0  0  0  0  0  0  0  0  0  0  0
   -0.4815   -3.9445   34.6827 O   0  0  0  0  0  0  0  0  0  0  0  0
    0.1858   -2.6347   32.7252 N   0  0  0  0  0  0  0  0  0  0  0  0
    1.3106   -1.6183   33.1212 C   0  0  0  0  0  0  0  0  0  0  0  0
    0.2810   -0.7381   33.7533 C   0  0  0  0  0  0  0  0  0  0  0  0
   -0.6173   -1.3186   32.6968 C   0  0  1  0  0  0  0  0  0  0  0  0
   -0.7320   -0.7315   31.2022 C   0  0  0  0  0  0  0  0  0  0  0  0
   -1.4371   -1.4419   30.2026 C   0  0  0  0  0  0  0  0  0  0  0  0
   -1.4339   -1.0553   28.8565 C   0  0  0  0  0  0  0  0  0  0  0  0
   -0.7661    0.0970   28.4713 C   0  0  0  0  0  0  0  0  0  0  0  0
   -0.1006    0.8376   29.4330 C   0  0  0  0  0  0  0  0  0  0  0  0
    0.5645    1.9429   29.0738 F   0  0  0  0  0  0  0  0  0  0  0  0
   -0.0805    0.4385   30.7711 C   0  0  0  0  0  0  0  0  0  0  0  0
    2.1129   -5.6479   28.9707 C   0  0  0  0  0  0  0  0  0  0  0  0
  1  2  1  0
  2  3  2  0
  3  4  1  0
  4  5  2  0
  5  6  1  0
  6  7  1  0
  7  8  2  0
  8  9  1  0
  9 10  2  0
 10 11  1  0
 10 12  1  0
 12 13  1  0
 13 14  1  0
 14 15  2  0
 14 16  1  0
 16 17  1  0
 17 18  1  0
 18 19  1  0
 19 20  1  6
 20 21  2  0
 21 22  1  0
 22 23  2  0
 23 24  1  0
 24 25  1  0
 24 26  2  0
  6 27  2  0
 27  2  1  0
 12  7  1  0
 19 16  1  0
 26 20  1  0
M  END
>  <ref_mols>  (1477) 
B0454a

>  <gnina_score>  (1477) 
5.475

>  <smina_score_min>  (1477) 
-5.73

>  <ref_pdb>  (1477) 
B0454a

>  <inspiration_score>  (1477) 
None

>  <inchikey>  (1477) 
YFIDHNKOIBVLPF-KRWDZBQOSA-N

>  <tags>  (1477) 
BulkDock Fragalysis export,openbind_d68ev3c_c2_elabs_scored,openbind_d68ev3c_c2_elabs_scored_4.5plus,openbind_d68ev3c_c2_elabs,openbind_d68ev3c_c2_elabs_scored_5plus,syndirella_product,openbind_d68ev3c_c2_elabs_scored_top80percent,syndirella_placed

>  <smiles>  (1477) 
Cc1cccc(-c2nnc(S)n2CC(=O)N2CC[C@H]2c2cccc(F)c2)c1

>  <subsites>  (1477) 
None

>  <rmsd(smina/fragmenstein)>  (1477) 
0.407

>  <alias>  (1477) 
None

>  <energy_score>  (1477) 
-25.098471

>  <HIPPO Pose ID>  (1477) 
117195

>  <distance_score>  (1477) 
1.190701

>  <HIPPO Compound ID>  (1477) 
151840

>  <gnina_score_min>  (1477) 
5.431

>  <name>  (1477) 
P117195

>  <exports>  (1477) 
['/opt/xchem-fragalysis-2/maxwin/BulkDock/OUTPUTS/openbind_d68ev3c_c2_elabs_1LOTQJ3.sdf', '/opt/xchem-fragalysis-2/maxwin/BulkDock/OUTPUTS/openbind_d68ev3c_c2_elabs_1LSYI5W.sdf']

$$$$
P117196
     RDKit          3D

 27 30  0  0  0  0  0  0  0  0999 V2000
    0.7187   -7.1804   38.5224 C   0  0  0  0  0  0  0  0  0  0  0  0
    0.2957   -6.3037   37.3805 C   0  0  0  0  0  0  0  0  0  0  0  0
    0.2262   -4.9165   37.5475 C   0  0  0  0  0  0  0  0  0  0  0  0
   -0.2183   -4.1025   36.5069 C   0  0  0  0  0  0  0  0  0  0  0  0
   -0.5795   -4.6684   35.2837 C   0  0  0  0  0  0  0  0  0  0  0  0
   -0.5006   -6.0525   35.0888 C   0  0  0  0  0  0  0  0  0  0  0  0
   -0.8455   -6.6717   33.8111 C   0  0  0  0  0  0  0  0  0  0  0  0
   -1.7288   -7.6344   33.6520 N   0  0  0  0  0  0  0  0  0  0  0  0
   -1.7159   -8.0409   32.3493 N   0  0  0  0  0  0  0  0  0  0  0  0
   -0.8051   -7.3441   31.7316 C   0  0  0  0  0  0  0  0  0  0  0  0
   -0.3726   -7.6637   30.1064 S   0  0  0  0  0  0  0  0  0  0  0  0
   -0.2450   -6.4334   32.5892 N   0  0  0  0  0  0  0  0  0  0  0  0
    0.8757   -5.5466   32.3587 C   0  0  0  0  0  0  0  0  0  0  0  0
    0.5899   -4.5376   31.2634 C   0  0  0  0  0  0  0  0  0  0  0  0
    0.5662   -4.8744   30.1443 O   0  0  0  0  0  0  0  0  0  0  0  0
    0.3724   -3.1359   31.8974 N   0  0  0  0  0  0  0  0  0  0  0  0
    0.0033   -1.9327   31.3159 C   0  0  0  0  0  0  0  0  0  0  0  0
    0.2110   -0.7247   31.9919 C   0  0  0  0  0  0  0  0  0  0  0  0
    0.1007    0.4933   31.3065 C   0  0  0  0  0  0  0  0  0  0  0  0
   -0.2662    0.4693   29.9731 C   0  0  0  0  0  0  0  0  0  0  0  0
   -0.6015   -0.7267   29.3600 C   0  0  0  0  0  0  0  0  0  0  0  0
   -0.4626   -1.9368   30.0047 C   0  0  0  0  0  0  0  0  0  0  0  0
   -0.9994   -0.4960   27.9503 C   0  0  0  0  0  0  0  0  0  0  0  0
   -0.6795    0.9172   27.6859 N   0  0  0  0  0  0  0  0  0  0  0  0
   -1.7729    1.6233   27.0303 C   0  0  0  0  0  0  0  0  0  0  0  0
   -0.2938    1.5639   28.9558 C   0  0  0  0  0  0  0  0  0  0  0  0
   -0.0976   -6.8642   36.1571 C   0  0  0  0  0  0  0  0  0  0  0  0
  1  2  1  0
  2  3  2  0
  3  4  1  0
  4  5  2  0
  5  6  1  0
  6  7  1  0
  7  8  2  0
  8  9  1  0
  9 10  2  0
 10 11  1  0
 10 12  1  0
 12 13  1  0
 13 14  1  0
 14 15  2  0
 14 16  1  0
 16 17  1  0
 17 18  2  0
 18 19  1  0
 19 20  2  0
 20 21  1  0
 21 22  2  0
 21 23  1  0
 23 24  1  0
 24 25  1  0
 24 26  1  0
  6 27  2  0
 27  2  1  0
 12  7  1  0
 22 17  1  0
 26 20  1  0
M  END
>  <ref_mols>  (1478) 
B0454a

>  <gnina_score>  (1478) 
5.761

>  <smina_score_min>  (1478) 
-5.624

>  <ref_pdb>  (1478) 
B0454a

>  <inspiration_score>  (1478) 
None

>  <inchikey>  (1478) 
GZSQNUKPPOUXCM-UHFFFAOYSA-N

>  <tags>  (1478) 
BulkDock Fragalysis export,openbind_d68ev3c_c2_elabs_scored,openbind_d68ev3c_c2_elabs_scored_4.5plus,openbind_d68ev3c_c2_elabs,openbind_d68ev3c_c2_elabs_scored_5plus,syndirella_product,openbind_d68ev3c_c2_elabs_scored_top80percent,syndirella_placed

>  <smiles>  (1478) 
Cc1cccc(-c2nnc(S)n2CC(=O)Nc2ccc3c(c2)CN(C)C3)c1

>  <subsites>  (1478) 
None

>  <rmsd(smina/fragmenstein)>  (1478) 
0.497

>  <alias>  (1478) 
None

>  <energy_score>  (1478) 
-16.195643

>  <HIPPO Pose ID>  (1478) 
117196

>  <distance_score>  (1478) 
1.58083

>  <HIPPO Compound ID>  (1478) 
151859

>  <gnina_score_min>  (1478) 
5.723

>  <name>  (1478) 
P117196

>  <exports>  (1478) 
['/opt/xchem-fragalysis-2/maxwin/BulkDock/OUTPUTS/openbind_d68ev3c_c2_elabs_1LOTQJ3.sdf', '/opt/xchem-fragalysis-2/maxwin/BulkDock/OUTPUTS/openbind_d68ev3c_c2_elabs_1LSYI5W.sdf']

$$$$
P117199
     RDKit          3D

 27 30  0  0  0  0  0  0  0  0999 V2000
    0.2655   -5.2509   39.4112 C   0  0  0  0  0  0  0  0  0  0  0  0
   -0.0178   -5.5967   37.9803 C   0  0  0  0  0  0  0  0  0  0  0  0
    0.1106   -6.9120   37.5322 C   0  0  0  0  0  0  0  0  0  0  0  0
   -0.2318   -7.2467   36.2191 C   0  0  0  0  0  0  0  0  0  0  0  0
   -0.6609   -6.2806   35.3083 C   0  0  0  0  0  0  0  0  0  0  0  0
   -0.9148   -6.6928   33.9252 C   0  0  0  0  0  0  0  0  0  0  0  0
   -1.5585   -7.7896   33.5618 N   0  0  0  0  0  0  0  0  0  0  0  0
   -1.4003   -7.9825   32.2156 N   0  0  0  0  0  0  0  0  0  0  0  0
   -0.6753   -6.9915   31.7810 C   0  0  0  0  0  0  0  0  0  0  0  0
   -0.0466   -6.8881   30.2021 S   0  0  0  0  0  0  0  0  0  0  0  0
   -0.4200   -6.1028   32.7812 N   0  0  0  0  0  0  0  0  0  0  0  0
    0.2225   -4.8109   32.6594 C   0  0  0  0  0  0  0  0  0  0  0  0
   -0.8187   -3.7198   32.4322 C   0  0  0  0  0  0  0  0  0  0  0  0
   -1.9588   -3.9448   32.2388 O   0  0  0  0  0  0  0  0  0  0  0  0
   -0.0867   -2.4001   32.5417 N   0  0  0  0  0  0  0  0  0  0  0  0
   -0.0548   -1.8859   34.0088 C   0  0  0  0  0  0  0  0  0  0  0  0
    0.3878   -0.5611   33.4232 C   0  0  0  0  0  0  0  0  0  0  0  0
   -0.5752   -0.9783   32.3371 C   0  0  1  0  0  0  0  0  0  0  0  0
   -0.4900   -0.5039   30.8507 C   0  0  0  0  0  0  0  0  0  0  0  0
    0.2290    0.6287   30.4332 C   0  0  0  0  0  0  0  0  0  0  0  0
    0.2042    1.0663   29.1049 C   0  0  0  0  0  0  0  0  0  0  0  0
   -0.5454    0.3778   28.1582 C   0  0  0  0  0  0  0  0  0  0  0  0
   -1.2475   -0.7488   28.5421 C   0  0  0  0  0  0  0  0  0  0  0  0
   -2.0148   -1.3881   27.6570 F   0  0  0  0  0  0  0  0  0  0  0  0
   -1.2166   -1.1909   29.8557 C   0  0  0  0  0  0  0  0  0  0  0  0
   -0.8216   -4.9745   35.7754 C   0  0  0  0  0  0  0  0  0  0  0  0
   -0.5101   -4.6329   37.0969 C   0  0  0  0  0  0  0  0  0  0  0  0
  1  2  1  0
  2  3  2  0
  3  4  1  0
  4  5  2  0
  5  6  1  0
  6  7  2  0
  7  8  1  0
  8  9  2  0
  9 10  1  0
  9 11  1  0
 11 12  1  0
 12 13  1  0
 13 14  2  0
 13 15  1  0
 15 16  1  0
 16 17  1  0
 17 18  1  0
 18 19  1  6
 19 20  2  0
 20 21  1  0
 21 22  2  0
 22 23  1  0
 23 24  1  0
 23 25  2  0
  5 26  1  0
 26 27  2  0
 27  2  1  0
 11  6  1  0
 18 15  1  0
 25 19  1  0
M  END
>  <ref_mols>  (1479) 
B0454a

>  <gnina_score>  (1479) 
5.982

>  <smina_score_min>  (1479) 
-6.058

>  <ref_pdb>  (1479) 
B0454a

>  <inspiration_score>  (1479) 
None

>  <inchikey>  (1479) 
GQVAJUZOBZEWGN-KRWDZBQOSA-N

>  <tags>  (1479) 
BulkDock Fragalysis export,openbind_d68ev3c_c2_elabs_scored,openbind_d68ev3c_c2_elabs_scored_4.5plus,openbind_d68ev3c_c2_elabs,openbind_d68ev3c_c2_elabs_scored_5plus,syndirella_product,openbind_d68ev3c_c2_elabs_scored_top80percent,syndirella_placed

>  <smiles>  (1479) 
Cc1ccc(-c2nnc(S)n2CC(=O)N2CC[C@H]2c2cccc(F)c2)cc1

>  <subsites>  (1479) 
None

>  <rmsd(smina/fragmenstein)>  (1479) 
0.796

>  <alias>  (1479) 
None

>  <energy_score>  (1479) 
-22.178454

>  <HIPPO Pose ID>  (1479) 
117199

>  <distance_score>  (1479) 
0.874141

>  <HIPPO Compound ID>  (1479) 
151889

>  <gnina_score_min>  (1479) 
5.99

>  <name>  (1479) 
P117199

>  <exports>  (1479) 
['/opt/xchem-fragalysis-2/maxwin/BulkDock/OUTPUTS/openbind_d68ev3c_c2_elabs_1LOTQJ3.sdf', '/opt/xchem-fragalysis-2/maxwin/BulkDock/OUTPUTS/openbind_d68ev3c_c2_elabs_1LSYI5W.sdf']

$$$$
P117200
     RDKit          3D

 27 30  0  0  0  0  0  0  0  0999 V2000
    3.5225   -2.1249   29.1653 C   0  0  0  0  0  0  0  0  0  0  0  0
    2.6745   -3.1709   29.8275 C   0  0  0  0  0  0  0  0  0  0  0  0
    2.9995   -3.6617   31.0939 C   0  0  0  0  0  0  0  0  0  0  0  0
    2.1900   -4.6248   31.7059 C   0  0  0  0  0  0  0  0  0  0  0  0
    1.0499   -5.1226   31.0587 C   0  0  0  0  0  0  0  0  0  0  0  0
    0.1460   -6.0524   31.7324 C   0  0  0  0  0  0  0  0  0  0  0  0
   -0.2746   -7.2301   31.3047 N   0  0  0  0  0  0  0  0  0  0  0  0
   -0.9354   -7.8461   32.3493 N   0  0  0  0  0  0  0  0  0  0  0  0
   -0.9441   -7.0076   33.3592 C   0  0  0  0  0  0  0  0  0  0  0  0
   -1.3842   -7.3509   34.9873 S   0  0  0  0  0  0  0  0  0  0  0  0
   -0.4374   -5.8091   32.9614 N   0  0  0  0  0  0  0  0  0  0  0  0
   -0.5070   -4.5171   33.6311 C   0  0  0  0  0  0  0  0  0  0  0  0
   -1.0104   -3.4493   32.6448 C   0  0  0  0  0  0  0  0  0  0  0  0
   -1.9231   -3.6364   31.9306 O   0  0  0  0  0  0  0  0  0  0  0  0
   -0.0327   -2.2277   32.7441 N   0  0  0  0  0  0  0  0  0  0  0  0
    0.0704   -1.0818   31.9512 C   0  0  0  0  0  0  0  0  0  0  0  0
    0.9582   -0.0839   32.3965 C   0  0  0  0  0  0  0  0  0  0  0  0
    1.2443    1.0544   31.6191 C   0  0  0  0  0  0  0  0  0  0  0  0
    0.6799    1.2007   30.3571 C   0  0  0  0  0  0  0  0  0  0  0  0
   -0.1761    0.2061   29.9350 C   0  0  0  0  0  0  0  0  0  0  0  0
   -0.5157   -0.9130   30.7085 C   0  0  0  0  0  0  0  0  0  0  0  0
   -1.4437   -1.7613   29.9098 C   0  0  0  0  0  0  0  0  0  0  0  0
   -1.5130   -1.0876   28.6380 N   0  0  0  0  0  0  0  0  0  0  0  0
   -0.7842    0.0722   28.6073 C   0  0  0  0  0  0  0  0  0  0  0  0
   -0.6135    0.8299   27.6749 O   0  0  0  0  0  0  0  0  0  0  0  0
    0.7537   -4.6558   29.7825 C   0  0  0  0  0  0  0  0  0  0  0  0
    1.5574   -3.6902   29.1692 C   0  0  0  0  0  0  0  0  0  0  0  0
  1  2  1  0
  2  3  2  0
  3  4  1  0
  4  5  2  0
  5  6  1  0
  6  7  2  0
  7  8  1  0
  8  9  2  0
  9 10  1  0
  9 11  1  0
 11 12  1  0
 12 13  1  0
 13 14  2  0
 13 15  1  0
 15 16  1  0
 16 17  2  0
 17 18  1  0
 18 19  2  0
 19 20  1  0
 20 21  2  0
 21 22  1  0
 22 23  1  0
 23 24  1  0
 24 25  2  0
  5 26  1  0
 26 27  2  0
 27  2  1  0
 11  6  1  0
 21 16  1  0
 24 20  1  0
M  END
>  <ref_mols>  (1480) 
B0454a

>  <gnina_score>  (1480) 
5.416

>  <smina_score_min>  (1480) 
-5.912

>  <ref_pdb>  (1480) 
B0454a

>  <inspiration_score>  (1480) 
None

>  <inchikey>  (1480) 
QDVTWCUIEKQERF-UHFFFAOYSA-N

>  <tags>  (1480) 
BulkDock Fragalysis export,openbind_d68ev3c_c2_elabs_scored,openbind_d68ev3c_c2_elabs_scored_4.5plus,openbind_d68ev3c_c2_elabs,openbind_d68ev3c_c2_elabs_scored_5plus,syndirella_product,openbind_d68ev3c_c2_elabs_scored_top80percent,syndirella_placed

>  <smiles>  (1480) 
Cc1ccc(-c2nnc(S)n2CC(=O)Nc2cccc3c2CNC3=O)cc1

>  <subsites>  (1480) 
None

>  <rmsd(smina/fragmenstein)>  (1480) 
0.989

>  <alias>  (1480) 
None

>  <energy_score>  (1480) 
-45.129723

>  <HIPPO Pose ID>  (1480) 
117200

>  <distance_score>  (1480) 
0.939384

>  <HIPPO Compound ID>  (1480) 
151900

>  <gnina_score_min>  (1480) 
5.434

>  <name>  (1480) 
P117200

>  <exports>  (1480) 
['/opt/xchem-fragalysis-2/maxwin/BulkDock/OUTPUTS/openbind_d68ev3c_c2_elabs_1LOTQJ3.sdf', '/opt/xchem-fragalysis-2/maxwin/BulkDock/OUTPUTS/openbind_d68ev3c_c2_elabs_1LSYI5W.sdf']

$$$$
P117201
     RDKit          3D

 27 29  0  0  0  0  0  0  0  0999 V2000
    7.7289    5.5633   32.7351 C   0  0  0  0  0  0  0  0  0  0  0  0
    6.3787    5.1364   33.2296 C   0  0  0  0  0  0  0  0  0  0  0  0
    5.3136    4.9811   32.3355 C   0  0  0  0  0  0  0  0  0  0  0  0
    4.0607    4.5597   32.7903 C   0  0  0  0  0  0  0  0  0  0  0  0
    3.8595    4.2639   34.1425 C   0  0  0  0  0  0  0  0  0  0  0  0
    2.5645    3.8123   34.6396 C   0  0  0  0  0  0  0  0  0  0  0  0
    1.8709    4.3975   35.6014 N   0  0  0  0  0  0  0  0  0  0  0  0
    0.7233    3.6762   35.8187 N   0  0  0  0  0  0  0  0  0  0  0  0
    0.7507    2.6494   35.0088 C   0  0  0  0  0  0  0  0  0  0  0  0
   -0.4544    1.4194   34.9482 S   0  0  0  0  0  0  0  0  0  0  0  0
    1.8909    2.6700   34.2546 N   0  0  0  0  0  0  0  0  0  0  0  0
    2.3737    1.6206   33.3804 C   0  0  0  0  0  0  0  0  0  0  0  0
    1.6982    1.6597   32.0135 C   0  0  0  0  0  0  0  0  0  0  0  0
    1.8509    2.5527   31.2719 O   0  0  0  0  0  0  0  0  0  0  0  0
    0.9071    0.3243   31.8396 N   0  0  0  0  0  0  0  0  0  0  0  0
    0.0978   -0.1192   30.7929 C   0  0  0  0  0  0  0  0  0  0  0  0
    0.1376    0.5224   29.5517 C   0  0  0  0  0  0  0  0  0  0  0  0
   -0.5693    0.0043   28.4671 C   0  0  0  0  0  0  0  0  0  0  0  0
   -1.3107   -1.1607   28.6149 C   0  0  0  0  0  0  0  0  0  0  0  0
   -1.3861   -1.7835   29.8590 C   0  0  0  0  0  0  0  0  0  0  0  0
   -0.7136   -1.2569   30.9725 C   0  0  0  0  0  0  0  0  0  0  0  0
   -0.9007   -1.9191   32.3225 C   0  0  0  0  0  0  0  0  0  0  0  0
    0.2558   -2.7452   32.6978 N   0  0  0  0  0  0  0  0  0  0  0  0
    0.1329   -4.0860   32.1173 C   0  0  0  0  0  0  0  0  0  0  0  0
    0.3834   -2.8485   34.1475 C   0  0  0  0  0  0  0  0  0  0  0  0
    4.9236    4.4265   35.0374 C   0  0  0  0  0  0  0  0  0  0  0  0
    6.1764    4.8484   34.5837 C   0  0  0  0  0  0  0  0  0  0  0  0
  1  2  1  0
  2  3  2  0
  3  4  1  0
  4  5  2  0
  5  6  1  0
  6  7  2  0
  7  8  1  0
  8  9  2  0
  9 10  1  0
  9 11  1  0
 11 12  1  0
 12 13  1  0
 13 14  2  0
 13 15  1  0
 15 16  1  0
 16 17  2  0
 17 18  1  0
 18 19  2  0
 19 20  1  0
 20 21  2  0
 21 22  1  0
 22 23  1  0
 23 24  1  0
 23 25  1  0
  5 26  1  0
 26 27  2  0
 27  2  1  0
 11  6  1  0
 21 16  1  0
M  END
>  <ref_mols>  (1481) 
B0454a

>  <gnina_score>  (1481) 
5.166

>  <smina_score_min>  (1481) 
-2.594

>  <ref_pdb>  (1481) 
B0454a

>  <inspiration_score>  (1481) 
None

>  <inchikey>  (1481) 
KOECPVGDAKIFNS-UHFFFAOYSA-N

>  <tags>  (1481) 
BulkDock Fragalysis export,openbind_d68ev3c_c2_elabs_scored,openbind_d68ev3c_c2_elabs_scored_4.5plus,openbind_d68ev3c_c2_elabs,openbind_d68ev3c_c2_elabs_scored_5plus,syndirella_product,openbind_d68ev3c_c2_elabs_scored_top80percent,syndirella_placed

>  <smiles>  (1481) 
Cc1ccc(-c2nnc(S)n2CC(=O)Nc2ccccc2CN(C)C)cc1

>  <subsites>  (1481) 
None

>  <rmsd(smina/fragmenstein)>  (1481) 
1.904

>  <alias>  (1481) 
None

>  <energy_score>  (1481) 
-46.103501

>  <HIPPO Pose ID>  (1481) 
117201

>  <distance_score>  (1481) 
0.651964

>  <HIPPO Compound ID>  (1481) 
151902

>  <gnina_score_min>  (1481) 
5.041

>  <name>  (1481) 
P117201

>  <exports>  (1481) 
['/opt/xchem-fragalysis-2/maxwin/BulkDock/OUTPUTS/openbind_d68ev3c_c2_elabs_1LOTQJ3.sdf', '/opt/xchem-fragalysis-2/maxwin/BulkDock/OUTPUTS/openbind_d68ev3c_c2_elabs_1LSYI5W.sdf']

$$$$
P117207
     RDKit          3D

 27 30  0  0  0  0  0  0  0  0999 V2000
    0.2864   -5.1711   39.3310 C   0  0  0  0  0  0  0  0  0  0  0  0
   -0.0012   -5.5531   37.9101 C   0  0  0  0  0  0  0  0  0  0  0  0
   -0.4711   -4.6033   36.9998 C   0  0  0  0  0  0  0  0  0  0  0  0
   -0.7893   -4.9741   35.6879 C   0  0  0  0  0  0  0  0  0  0  0  0
   -0.6572   -6.2953   35.2568 C   0  0  0  0  0  0  0  0  0  0  0  0
   -0.9330   -6.7409   33.8885 C   0  0  0  0  0  0  0  0  0  0  0  0
   -1.6165   -7.8255   33.5663 N   0  0  0  0  0  0  0  0  0  0  0  0
   -1.4795   -8.0662   32.2262 N   0  0  0  0  0  0  0  0  0  0  0  0
   -0.7277   -7.1147   31.7519 C   0  0  0  0  0  0  0  0  0  0  0  0
   -0.1139   -7.0953   30.1641 S   0  0  0  0  0  0  0  0  0  0  0  0
   -0.4332   -6.2029   32.7204 N   0  0  0  0  0  0  0  0  0  0  0  0
    0.2474   -4.9364   32.5542 C   0  0  0  0  0  0  0  0  0  0  0  0
   -0.7646   -3.8126   32.3581 C   0  0  0  0  0  0  0  0  0  0  0  0
   -1.9210   -3.9987   32.2333 O   0  0  0  0  0  0  0  0  0  0  0  0
    0.0180   -2.5198   32.4070 N   0  0  0  0  0  0  0  0  0  0  0  0
    0.1525   -1.9888   33.8641 C   0  0  0  0  0  0  0  0  0  0  0  0
    0.6091   -0.6759   33.2443 C   0  0  1  0  0  0  0  0  0  0  0  0
    2.0833   -0.5791   32.8758 C   0  0  0  0  0  0  0  0  0  0  0  0
   -0.4313   -1.0823   32.2104 C   0  0  1  0  0  0  0  0  0  0  0  0
   -0.4528   -0.6062   30.7187 C   0  0  0  0  0  0  0  0  0  0  0  0
    0.0417    0.6422   30.3085 C   0  0  0  0  0  0  0  0  0  0  0  0
   -0.0879    1.0866   28.9917 C   0  0  0  0  0  0  0  0  0  0  0  0
   -0.7226    0.2897   28.0473 C   0  0  0  0  0  0  0  0  0  0  0  0
   -1.2123   -0.9558   28.4104 C   0  0  0  0  0  0  0  0  0  0  0  0
   -1.0773   -1.3926   29.7247 C   0  0  0  0  0  0  0  0  0  0  0  0
   -0.2476   -7.2452   36.1937 C   0  0  0  0  0  0  0  0  0  0  0  0
    0.1007   -6.8822   37.4978 C   0  0  0  0  0  0  0  0  0  0  0  0
  1  2  1  0
  2  3  2  0
  3  4  1  0
  4  5  2  0
  5  6  1  0
  6  7  2  0
  7  8  1  0
  8  9  2  0
  9 10  1  0
  9 11  1  0
 11 12  1  0
 12 13  1  0
 13 14  2  0
 13 15  1  0
 15 16  1  0
 16 17  1  0
 17 18  1  6
 17 19  1  0
 19 20  1  6
 20 21  2  0
 21 22  1  0
 22 23  2  0
 23 24  1  0
 24 25  2  0
  5 26  1  0
 26 27  2  0
 27  2  1  0
 11  6  1  0
 19 15  1  0
 25 20  1  0
M  END
>  <ref_mols>  (1482) 
B0454a

>  <gnina_score>  (1482) 
5.928

>  <smina_score_min>  (1482) 
-5.818

>  <ref_pdb>  (1482) 
B0454a

>  <inspiration_score>  (1482) 
None

>  <inchikey>  (1482) 
FOLDAPVMDUMWHU-BEFAXECRSA-N

>  <tags>  (1482) 
BulkDock Fragalysis export,openbind_d68ev3c_c2_elabs_scored,openbind_d68ev3c_c2_elabs_scored_4.5plus,openbind_d68ev3c_c2_elabs,openbind_d68ev3c_c2_elabs_scored_5plus,syndirella_product,openbind_d68ev3c_c2_elabs_scored_top80percent,syndirella_placed

>  <smiles>  (1482) 
Cc1ccc(-c2nnc(S)n2CC(=O)N2C[C@@H](C)[C@H]2c2ccccc2)cc1

>  <subsites>  (1482) 
None

>  <rmsd(smina/fragmenstein)>  (1482) 
0.49

>  <alias>  (1482) 
None

>  <energy_score>  (1482) 
-9.64749

>  <HIPPO Pose ID>  (1482) 
117207

>  <distance_score>  (1482) 
0.808413

>  <HIPPO Compound ID>  (1482) 
151912

>  <gnina_score_min>  (1482) 
5.933

>  <name>  (1482) 
P117207

>  <exports>  (1482) 
['/opt/xchem-fragalysis-2/maxwin/BulkDock/OUTPUTS/openbind_d68ev3c_c2_elabs_1LOTQJ3.sdf', '/opt/xchem-fragalysis-2/maxwin/BulkDock/OUTPUTS/openbind_d68ev3c_c2_elabs_1LSYI5W.sdf']

$$$$
P131486
     RDKit          3D

 24 26  0  0  0  0  0  0  0  0999 V2000
  -16.5126   -0.2690   10.3747 C   0  0  0  0  0  0  0  0  0  0  0  0
  -15.1845    0.2687   10.2572 N   0  0  0  0  0  0  0  0  0  0  0  0
  -14.6867    0.9577    9.1961 C   0  0  0  0  0  0  0  0  0  0  0  0
  -13.4711    1.4707    9.6060 C   0  0  0  0  0  0  0  0  0  0  0  0
  -12.5971    2.4038    8.8489 C   0  0  0  0  0  0  0  0  0  0  0  0
  -11.3768    1.8255    8.3038 N   0  0  0  0  0  0  0  0  0  0  0  0
  -10.2475    1.8045    9.2465 C   0  0  0  0  0  0  0  0  0  0  0  0
   -8.9332    1.4169    8.5333 C   0  0  0  0  0  0  0  0  0  0  0  0
   -9.0810    0.1382    7.8402 N   0  0  0  0  0  0  0  0  0  0  0  0
   -7.9642   -0.5912    7.4666 C   0  0  0  0  0  0  0  0  0  0  0  0
   -8.1365   -1.9390    7.1795 C   0  0  0  0  0  0  0  0  0  0  0  0
   -7.0670   -2.7357    6.8266 C   0  0  0  0  0  0  0  0  0  0  0  0
   -7.3797   -4.3797    6.6221 Cl  0  0  0  0  0  0  0  0  0  0  0  0
   -5.7796   -2.2356    6.7482 C   0  0  0  0  0  0  0  0  0  0  0  0
   -5.5534   -0.8998    7.0783 C   0  0  0  0  0  0  0  0  0  0  0  0
   -4.1407   -0.3896    7.0858 C   0  0  0  0  0  0  0  0  0  0  0  0
   -4.0373    0.9501    7.3006 F   0  0  0  0  0  0  0  0  0  0  0  0
   -3.5031   -0.6267    5.9044 F   0  0  0  0  0  0  0  0  0  0  0  0
   -3.3750   -0.9821    8.0425 F   0  0  0  0  0  0  0  0  0  0  0  0
   -6.6522   -0.0887    7.4314 C   0  0  0  0  0  0  0  0  0  0  0  0
  -10.2577    0.0658    6.9451 C   0  0  0  0  0  0  0  0  0  0  0  0
  -11.5384    0.4971    7.6859 C   0  0  0  0  0  0  0  0  0  0  0  0
  -13.3136    0.9650   10.9166 C   0  0  0  0  0  0  0  0  0  0  0  0
  -14.3602    0.2376   11.3155 N   0  0  0  0  0  0  0  0  0  0  0  0
  1  2  1  0
  2  3  1  0
  3  4  2  0
  4  5  1  0
  5  6  1  0
  6  7  1  0
  7  8  1  0
  8  9  1  0
  9 10  1  0
 10 11  2  0
 11 12  1  0
 12 13  1  0
 12 14  2  0
 14 15  1  0
 15 16  1  0
 16 17  1  0
 16 18  1  0
 16 19  1  0
 15 20  2  0
  9 21  1  0
 21 22  1  0
  4 23  1  0
 23 24  2  0
 24  2  1  0
 22  6  1  0
 20 10  1  0
M  END
>  <ref_mols>  (1483) 
B0426a

>  <gnina_score>  (1483) 
5.507

>  <smina_score_min>  (1483) 
-5.631

>  <ref_pdb>  (1483) 
B0426a

>  <inspiration_score>  (1483) 
None

>  <inchikey>  (1483) 
CDAFSAGTQYCBAQ-UHFFFAOYSA-N

>  <tags>  (1483) 
BulkDock Fragalysis export,openbind_d68ev3c_c2_elabs_scored,openbind_d68ev3c_c2_elabs_scored_4.5plus,openbind_d68ev3c_c2_elabs,openbind_d68ev3c_c2_elabs_scored_5plus,syndirella_product,openbind_d68ev3c_c2_elabs_scored_top80percent,syndirella_placed

>  <smiles>  (1483) 
Cn1cc(CN2CCN(c3cc(Cl)cc(C(F)(F)F)c3)CC2)cn1

>  <subsites>  (1483) 
None

>  <rmsd(smina/fragmenstein)>  (1483) 
1.193

>  <alias>  (1483) 
None

>  <energy_score>  (1483) 
-31.704879

>  <HIPPO Pose ID>  (1483) 
131486

>  <distance_score>  (1483) 
0.594339

>  <HIPPO Compound ID>  (1483) 
157531

>  <gnina_score_min>  (1483) 
5.497

>  <name>  (1483) 
P131486

>  <exports>  (1483) 
['/opt/xchem-fragalysis-2/maxwin/BulkDock/OUTPUTS/openbind_d68ev3c_c2_elabs_1LOTQJ3.sdf', '/opt/xchem-fragalysis-2/maxwin/BulkDock/OUTPUTS/openbind_d68ev3c_c2_elabs_1LSYI5W.sdf']

$$$$
P131487
     RDKit          3D

 24 26  0  0  0  0  0  0  0  0999 V2000
  -16.7388   -0.0811    8.9630 C   0  0  0  0  0  0  0  0  0  0  0  0
  -15.4812    0.3405    9.5254 N   0  0  0  0  0  0  0  0  0  0  0  0
  -14.5044    1.0276    8.8693 C   0  0  0  0  0  0  0  0  0  0  0  0
  -13.5313    1.3100    9.8060 C   0  0  0  0  0  0  0  0  0  0  0  0
  -12.2367    2.0291    9.6282 C   0  0  0  0  0  0  0  0  0  0  0  0
  -11.3456    1.2894    8.7255 N   0  0  0  0  0  0  0  0  0  0  0  0
  -11.0351   -0.0583    9.2613 C   0  0  0  0  0  0  0  0  0  0  0  0
  -10.0881   -0.8336    8.3416 C   0  0  0  0  0  0  0  0  0  0  0  0
   -8.8260   -0.1051    8.1280 N   0  0  0  0  0  0  0  0  0  0  0  0
   -7.8526   -0.8137    7.4099 C   0  0  0  0  0  0  0  0  0  0  0  0
   -8.1367   -1.9487    6.6387 C   0  0  0  0  0  0  0  0  0  0  0  0
   -7.1472   -2.5851    5.9009 C   0  0  0  0  0  0  0  0  0  0  0  0
   -5.8441   -2.1064    5.9358 C   0  0  0  0  0  0  0  0  0  0  0  0
   -4.7442   -2.8309    4.8419 Cl  0  0  0  0  0  0  0  0  0  0  0  0
   -5.4970   -1.0408    6.7676 C   0  0  0  0  0  0  0  0  0  0  0  0
   -4.0812   -0.5839    6.9373 C   0  0  0  0  0  0  0  0  0  0  0  0
   -3.9802    0.6697    7.4713 F   0  0  0  0  0  0  0  0  0  0  0  0
   -3.3590   -1.3876    7.7640 F   0  0  0  0  0  0  0  0  0  0  0  0
   -3.3913   -0.5196    5.7681 F   0  0  0  0  0  0  0  0  0  0  0  0
   -6.5178   -0.4013    7.4896 C   0  0  0  0  0  0  0  0  0  0  0  0
   -9.0465    1.2795    7.6607 C   0  0  0  0  0  0  0  0  0  0  0  0
  -10.0632    2.0171    8.5687 C   0  0  0  0  0  0  0  0  0  0  0  0
  -14.0318    0.7342   10.9985 C   0  0  0  0  0  0  0  0  0  0  0  0
  -15.2176    0.1427   10.8314 N   0  0  0  0  0  0  0  0  0  0  0  0
  1  2  1  0
  2  3  1  0
  3  4  2  0
  4  5  1  0
  5  6  1  0
  6  7  1  0
  7  8  1  0
  8  9  1  0
  9 10  1  0
 10 11  2  0
 11 12  1  0
 12 13  2  0
 13 14  1  0
 13 15  1  0
 15 16  1  0
 16 17  1  0
 16 18  1  0
 16 19  1  0
 15 20  2  0
  9 21  1  0
 21 22  1  0
  4 23  1  0
 23 24  2  0
 24  2  1  0
 22  6  1  0
 20 10  1  0
M  END
>  <ref_mols>  (1484) 
B0426a

>  <gnina_score>  (1484) 
5.332

>  <smina_score_min>  (1484) 
-5.011

>  <ref_pdb>  (1484) 
B0426a

>  <inspiration_score>  (1484) 
None

>  <inchikey>  (1484) 
HAVZIZRSTXQIDP-UHFFFAOYSA-N

>  <tags>  (1484) 
BulkDock Fragalysis export,openbind_d68ev3c_c2_elabs_scored,openbind_d68ev3c_c2_elabs_scored_4.5plus,openbind_d68ev3c_c2_elabs,openbind_d68ev3c_c2_elabs_scored_5plus,syndirella_product,openbind_d68ev3c_c2_elabs_scored_top80percent,syndirella_placed

>  <smiles>  (1484) 
Cn1cc(CN2CCN(c3ccc(Cl)c(C(F)(F)F)c3)CC2)cn1

>  <subsites>  (1484) 
None

>  <rmsd(smina/fragmenstein)>  (1484) 
0.153

>  <alias>  (1484) 
None

>  <energy_score>  (1484) 
-43.774126

>  <HIPPO Pose ID>  (1484) 
131487

>  <distance_score>  (1484) 
0.541639

>  <HIPPO Compound ID>  (1484) 
157532

>  <gnina_score_min>  (1484) 
5.384

>  <name>  (1484) 
P131487

>  <exports>  (1484) 
['/opt/xchem-fragalysis-2/maxwin/BulkDock/OUTPUTS/openbind_d68ev3c_c2_elabs_1LOTQJ3.sdf', '/opt/xchem-fragalysis-2/maxwin/BulkDock/OUTPUTS/openbind_d68ev3c_c2_elabs_1LSYI5W.sdf']

$$$$
P131488
     RDKit          3D

 25 27  0  0  0  0  0  0  0  0999 V2000
  -16.6952   -0.1063    8.8982 C   0  0  0  0  0  0  0  0  0  0  0  0
  -15.4577    0.3440    9.4832 N   0  0  0  0  0  0  0  0  0  0  0  0
  -14.4532    0.9846    8.8229 C   0  0  0  0  0  0  0  0  0  0  0  0
  -13.5239    1.3502    9.7798 C   0  0  0  0  0  0  0  0  0  0  0  0
  -12.2340    2.0711    9.5714 C   0  0  0  0  0  0  0  0  0  0  0  0
  -11.3414    1.2973    8.6973 N   0  0  0  0  0  0  0  0  0  0  0  0
  -10.0681    2.0311    8.4987 C   0  0  0  0  0  0  0  0  0  0  0  0
   -9.0545    1.2643    7.6135 C   0  0  0  0  0  0  0  0  0  0  0  0
   -8.8164   -0.0981    8.1357 N   0  0  0  0  0  0  0  0  0  0  0  0
   -7.8486   -0.8200    7.4234 C   0  0  0  0  0  0  0  0  0  0  0  0
   -8.1385   -1.9580    6.6604 C   0  0  0  0  0  0  0  0  0  0  0  0
   -7.1527   -2.5955    5.9181 C   0  0  0  0  0  0  0  0  0  0  0  0
   -5.8492   -2.1151    5.9419 C   0  0  0  0  0  0  0  0  0  0  0  0
   -4.7565   -2.8367    4.8381 Cl  0  0  0  0  0  0  0  0  0  0  0  0
   -5.4965   -1.0480    6.7692 C   0  0  0  0  0  0  0  0  0  0  0  0
   -4.0801   -0.5901    6.9308 C   0  0  0  0  0  0  0  0  0  0  0  0
   -3.3535   -1.3924    7.7553 F   0  0  0  0  0  0  0  0  0  0  0  0
   -3.9767    0.6642    7.4629 F   0  0  0  0  0  0  0  0  0  0  0  0
   -3.3953   -0.5269    5.7584 F   0  0  0  0  0  0  0  0  0  0  0  0
   -6.5132   -0.4068    7.4944 C   0  0  0  0  0  0  0  0  0  0  0  0
  -10.0697   -0.8278    8.3947 C   0  0  0  0  0  0  0  0  0  0  0  0
  -11.0093   -0.0196    9.2949 C   0  0  0  0  0  0  0  0  0  0  0  0
  -14.0857    0.8653   10.9845 C   0  0  0  0  0  0  0  0  0  0  0  0
  -13.3090    1.0680   12.6888 Br  0  0  0  0  0  0  0  0  0  0  0  0
  -15.2535    0.2427   10.8087 N   0  0  0  0  0  0  0  0  0  0  0  0
  1  2  1  0
  2  3  1  0
  3  4  2  0
  4  5  1  0
  5  6  1  0
  6  7  1  0
  7  8  1  0
  8  9  1  0
  9 10  1  0
 10 11  2  0
 11 12  1  0
 12 13  2  0
 13 14  1  0
 13 15  1  0
 15 16  1  0
 16 17  1  0
 16 18  1  0
 16 19  1  0
 15 20  2  0
  9 21  1  0
 21 22  1  0
  4 23  1  0
 23 24  1  0
 23 25  2  0
 25  2  1  0
 22  6  1  0
 20 10  1  0
M  END
>  <ref_mols>  (1485) 
B0426a

>  <gnina_score>  (1485) 
5.685

>  <smina_score_min>  (1485) 
-5.333

>  <ref_pdb>  (1485) 
B0426a

>  <inspiration_score>  (1485) 
None

>  <inchikey>  (1485) 
KPNJHMHWZYIGEH-UHFFFAOYSA-N

>  <tags>  (1485) 
BulkDock Fragalysis export,openbind_d68ev3c_c2_elabs_scored,openbind_d68ev3c_c2_elabs_scored_4.5plus,openbind_d68ev3c_c2_elabs,openbind_d68ev3c_c2_elabs_scored_5plus,syndirella_product,openbind_d68ev3c_c2_elabs_scored_top80percent,syndirella_placed

>  <smiles>  (1485) 
Cn1cc(CN2CCN(c3ccc(Cl)c(C(F)(F)F)c3)CC2)c(Br)n1

>  <subsites>  (1485) 
None

>  <rmsd(smina/fragmenstein)>  (1485) 
0.131

>  <alias>  (1485) 
None

>  <energy_score>  (1485) 
-39.68786

>  <HIPPO Pose ID>  (1485) 
131488

>  <distance_score>  (1485) 
0.559861

>  <HIPPO Compound ID>  (1485) 
157533

>  <gnina_score_min>  (1485) 
5.728

>  <name>  (1485) 
P131488

>  <exports>  (1485) 
['/opt/xchem-fragalysis-2/maxwin/BulkDock/OUTPUTS/openbind_d68ev3c_c2_elabs_1LOTQJ3.sdf', '/opt/xchem-fragalysis-2/maxwin/BulkDock/OUTPUTS/openbind_d68ev3c_c2_elabs_1LSYI5W.sdf']

$$$$
P131489
     RDKit          3D

 25 27  0  0  0  0  0  0  0  0999 V2000
  -16.8073   -0.0949    8.9292 C   0  0  0  0  0  0  0  0  0  0  0  0
  -15.5497    0.3703    9.4561 N   0  0  0  0  0  0  0  0  0  0  0  0
  -15.2478    0.1662   10.7575 N   0  0  0  0  0  0  0  0  0  0  0  0
  -14.0804    0.7986   10.9018 C   0  0  0  0  0  0  0  0  0  0  0  0
  -13.6265    1.4120    9.7061 C   0  0  0  0  0  0  0  0  0  0  0  0
  -12.3631    2.1851    9.5318 C   0  0  0  0  0  0  0  0  0  0  0  0
  -11.4102    1.4544    8.6895 N   0  0  0  0  0  0  0  0  0  0  0  0
  -10.1563    2.2283    8.5371 C   0  0  0  0  0  0  0  0  0  0  0  0
   -9.0858    1.5072    7.6773 C   0  0  0  0  0  0  0  0  0  0  0  0
   -8.8263    0.1509    8.1914 N   0  0  0  0  0  0  0  0  0  0  0  0
   -7.7717   -0.5583    7.6051 C   0  0  0  0  0  0  0  0  0  0  0  0
   -7.9398   -1.8588    7.1304 C   0  0  0  0  0  0  0  0  0  0  0  0
   -6.8644   -2.6093    6.6966 C   0  0  0  0  0  0  0  0  0  0  0  0
   -7.1385   -4.2268    6.3169 Cl  0  0  0  0  0  0  0  0  0  0  0  0
   -5.5858   -2.0990    6.6732 C   0  0  0  0  0  0  0  0  0  0  0  0
   -5.3755   -0.7994    7.1240 C   0  0  0  0  0  0  0  0  0  0  0  0
   -3.9693   -0.2940    7.1597 C   0  0  0  0  0  0  0  0  0  0  0  0
   -3.8662    1.0464    7.3541 F   0  0  0  0  0  0  0  0  0  0  0  0
   -3.3223   -0.5554    5.9899 F   0  0  0  0  0  0  0  0  0  0  0  0
   -3.2245   -0.8813    8.1334 F   0  0  0  0  0  0  0  0  0  0  0  0
   -6.4691   -0.0379    7.5785 C   0  0  0  0  0  0  0  0  0  0  0  0
  -10.0691   -0.6241    8.4110 C   0  0  0  0  0  0  0  0  0  0  0  0
  -11.0696    0.1405    9.2740 C   0  0  0  0  0  0  0  0  0  0  0  0
  -14.6092    1.1018    8.7912 C   0  0  0  0  0  0  0  0  0  0  0  0
  -14.6423    1.6075    6.9560 Br  0  0  0  0  0  0  0  0  0  0  0  0
  1  2  1  0
  2  3  1  0
  3  4  2  0
  4  5  1  0
  5  6  1  0
  6  7  1  0
  7  8  1  0
  8  9  1  0
  9 10  1  0
 10 11  1  0
 11 12  2  0
 12 13  1  0
 13 14  1  0
 13 15  2  0
 15 16  1  0
 16 17  1  0
 17 18  1  0
 17 19  1  0
 17 20  1  0
 16 21  2  0
 10 22  1  0
 22 23  1  0
  5 24  2  0
 24 25  1  0
 24  2  1  0
 23  7  1  0
 21 11  1  0
M  END
>  <ref_mols>  (1486) 
B0426a

>  <gnina_score>  (1486) 
5.734

>  <smina_score_min>  (1486) 
-6.058

>  <ref_pdb>  (1486) 
B0426a

>  <inspiration_score>  (1486) 
None

>  <inchikey>  (1486) 
NHWPLDIVBZRCKI-UHFFFAOYSA-N

>  <tags>  (1486) 
BulkDock Fragalysis export,openbind_d68ev3c_c2_elabs_scored,openbind_d68ev3c_c2_elabs_scored_4.5plus,openbind_d68ev3c_c2_elabs,openbind_d68ev3c_c2_elabs_scored_5plus,syndirella_product,openbind_d68ev3c_c2_elabs_scored_top80percent,syndirella_placed

>  <smiles>  (1486) 
Cn1ncc(CN2CCN(c3cc(Cl)cc(C(F)(F)F)c3)CC2)c1Br

>  <subsites>  (1486) 
None

>  <rmsd(smina/fragmenstein)>  (1486) 
1.242

>  <alias>  (1486) 
None

>  <energy_score>  (1486) 
-34.666313

>  <HIPPO Pose ID>  (1486) 
131489

>  <distance_score>  (1486) 
0.611315

>  <HIPPO Compound ID>  (1486) 
157534

>  <gnina_score_min>  (1486) 
5.749

>  <name>  (1486) 
P131489

>  <exports>  (1486) 
['/opt/xchem-fragalysis-2/maxwin/BulkDock/OUTPUTS/openbind_d68ev3c_c2_elabs_1LOTQJ3.sdf', '/opt/xchem-fragalysis-2/maxwin/BulkDock/OUTPUTS/openbind_d68ev3c_c2_elabs_1LSYI5W.sdf']

$$$$
P131490
     RDKit          3D

 25 27  0  0  0  0  0  0  0  0999 V2000
  -16.7675   -0.0739    8.9488 C   0  0  0  0  0  0  0  0  0  0  0  0
  -15.5000    0.3510    9.4865 N   0  0  0  0  0  0  0  0  0  0  0  0
  -15.2170    0.1396   10.7908 N   0  0  0  0  0  0  0  0  0  0  0  0
  -14.0274    0.7271   10.9430 C   0  0  0  0  0  0  0  0  0  0  0  0
  -13.5393    1.3171    9.7497 C   0  0  0  0  0  0  0  0  0  0  0  0
  -12.2445    2.0380    9.5860 C   0  0  0  0  0  0  0  0  0  0  0  0
  -11.3286    1.2860    8.7227 N   0  0  0  0  0  0  0  0  0  0  0  0
  -11.0197   -0.0514    9.2779 C   0  0  0  0  0  0  0  0  0  0  0  0
  -10.0735   -0.8355    8.3648 C   0  0  0  0  0  0  0  0  0  0  0  0
   -8.8113   -0.1082    8.1423 N   0  0  0  0  0  0  0  0  0  0  0  0
   -7.8426   -0.8203    7.4211 C   0  0  0  0  0  0  0  0  0  0  0  0
   -8.1318   -1.9539    6.6502 C   0  0  0  0  0  0  0  0  0  0  0  0
   -7.1465   -2.5898    5.9066 C   0  0  0  0  0  0  0  0  0  0  0  0
   -5.8427   -2.1119    5.9356 C   0  0  0  0  0  0  0  0  0  0  0  0
   -4.7492   -2.8347    4.8338 Cl  0  0  0  0  0  0  0  0  0  0  0  0
   -5.4905   -1.0481    6.7676 C   0  0  0  0  0  0  0  0  0  0  0  0
   -4.0741   -0.5917    6.9319 C   0  0  0  0  0  0  0  0  0  0  0  0
   -3.3880   -0.5290    5.7602 F   0  0  0  0  0  0  0  0  0  0  0  0
   -3.9699    0.6622    7.4645 F   0  0  0  0  0  0  0  0  0  0  0  0
   -3.3495   -1.3954    7.7567 F   0  0  0  0  0  0  0  0  0  0  0  0
   -6.5071   -0.4092    7.4954 C   0  0  0  0  0  0  0  0  0  0  0  0
   -9.0344    1.2724    7.6617 C   0  0  0  0  0  0  0  0  0  0  0  0
  -10.0522    2.0181    8.5609 C   0  0  0  0  0  0  0  0  0  0  0  0
  -14.5277    1.0459    8.8281 C   0  0  0  0  0  0  0  0  0  0  0  0
  -14.5298    1.5514    6.9926 Br  0  0  0  0  0  0  0  0  0  0  0  0
  1  2  1  0
  2  3  1  0
  3  4  2  0
  4  5  1  0
  5  6  1  0
  6  7  1  0
  7  8  1  0
  8  9  1  0
  9 10  1  0
 10 11  1  0
 11 12  2  0
 12 13  1  0
 13 14  2  0
 14 15  1  0
 14 16  1  0
 16 17  1  0
 17 18  1  0
 17 19  1  0
 17 20  1  0
 16 21  2  0
 10 22  1  0
 22 23  1  0
  5 24  2  0
 24 25  1  0
 24  2  1  0
 23  7  1  0
 21 11  1  0
M  END
>  <ref_mols>  (1487) 
B0426a

>  <gnina_score>  (1487) 
5.562

>  <smina_score_min>  (1487) 
-5.169

>  <ref_pdb>  (1487) 
B0426a

>  <inspiration_score>  (1487) 
None

>  <inchikey>  (1487) 
XAZCZGOXAQSZJM-UHFFFAOYSA-N

>  <tags>  (1487) 
BulkDock Fragalysis export,openbind_d68ev3c_c2_elabs_scored,openbind_d68ev3c_c2_elabs_scored_4.5plus,openbind_d68ev3c_c2_elabs,openbind_d68ev3c_c2_elabs_scored_5plus,syndirella_product,openbind_d68ev3c_c2_elabs_scored_top80percent,syndirella_placed

>  <smiles>  (1487) 
Cn1ncc(CN2CCN(c3ccc(Cl)c(C(F)(F)F)c3)CC2)c1Br

>  <subsites>  (1487) 
None

>  <rmsd(smina/fragmenstein)>  (1487) 
0.175

>  <alias>  (1487) 
None

>  <energy_score>  (1487) 
-40.434921

>  <HIPPO Pose ID>  (1487) 
131490

>  <distance_score>  (1487) 
0.540684

>  <HIPPO Compound ID>  (1487) 
157535

>  <gnina_score_min>  (1487) 
5.632

>  <name>  (1487) 
P131490

>  <exports>  (1487) 
['/opt/xchem-fragalysis-2/maxwin/BulkDock/OUTPUTS/openbind_d68ev3c_c2_elabs_1LOTQJ3.sdf', '/opt/xchem-fragalysis-2/maxwin/BulkDock/OUTPUTS/openbind_d68ev3c_c2_elabs_1LSYI5W.sdf']

$$$$
P131491
     RDKit          3D

 25 27  0  0  0  0  0  0  0  0999 V2000
  -16.7781   -0.1164    9.0274 C   0  0  0  0  0  0  0  0  0  0  0  0
  -15.5101    0.3302    9.5454 N   0  0  0  0  0  0  0  0  0  0  0  0
  -14.5704    1.0302    8.8521 C   0  0  0  0  0  0  0  0  0  0  0  0
  -13.6031    1.4033    9.7678 C   0  0  0  0  0  0  0  0  0  0  0  0
  -12.3492    2.1975    9.5708 C   0  0  2  0  0  0  0  0  0  0  0  0
  -12.8279    3.7690    8.8546 Cl  0  0  0  0  0  0  0  0  0  0  0  0
  -11.4102    1.5260    8.6580 N   0  0  0  0  0  0  0  0  0  0  0  0
  -10.1051    2.2413    8.6197 C   0  0  0  0  0  0  0  0  0  0  0  0
   -9.0357    1.5487    7.7369 C   0  0  0  0  0  0  0  0  0  0  0  0
   -8.8421    0.1526    8.1561 N   0  0  0  0  0  0  0  0  0  0  0  0
   -7.7752   -0.5541    7.5890 C   0  0  0  0  0  0  0  0  0  0  0  0
   -7.9353   -1.8555    7.1119 C   0  0  0  0  0  0  0  0  0  0  0  0
   -6.8557   -2.6080    6.6907 C   0  0  0  0  0  0  0  0  0  0  0  0
   -7.1278   -4.2245    6.3071 Cl  0  0  0  0  0  0  0  0  0  0  0  0
   -5.5772   -2.0994    6.6800 C   0  0  0  0  0  0  0  0  0  0  0  0
   -5.3717   -0.8005    7.1335 C   0  0  0  0  0  0  0  0  0  0  0  0
   -3.9657   -0.2944    7.1772 C   0  0  0  0  0  0  0  0  0  0  0  0
   -3.3118   -0.5569    6.0119 F   0  0  0  0  0  0  0  0  0  0  0  0
   -3.8656    1.0464    7.3706 F   0  0  0  0  0  0  0  0  0  0  0  0
   -3.2273   -0.8799    8.1564 F   0  0  0  0  0  0  0  0  0  0  0  0
   -6.4697   -0.0389    7.5798 C   0  0  0  0  0  0  0  0  0  0  0  0
  -10.1134   -0.5915    8.2736 C   0  0  0  0  0  0  0  0  0  0  0  0
  -11.1336    0.1486    9.1364 C   0  0  0  0  0  0  0  0  0  0  0  0
  -14.0514    0.8223   10.9800 C   0  0  0  0  0  0  0  0  0  0  0  0
  -15.2035    0.1605   10.8457 N   0  0  0  0  0  0  0  0  0  0  0  0
  1  2  1  0
  2  3  1  0
  3  4  2  0
  4  5  1  0
  5  6  1  6
  5  7  1  0
  7  8  1  0
  8  9  1  0
  9 10  1  0
 10 11  1  0
 11 12  2  0
 12 13  1  0
 13 14  1  0
 13 15  2  0
 15 16  1  0
 16 17  1  0
 17 18  1  0
 17 19  1  0
 17 20  1  0
 16 21  2  0
 10 22  1  0
 22 23  1  0
  4 24  1  0
 24 25  2  0
 25  2  1  0
 23  7  1  0
 21 11  1  0
M  END
>  <ref_mols>  (1488) 
B0426a

>  <gnina_score>  (1488) 
5.82

>  <smina_score_min>  (1488) 
-5.91

>  <ref_pdb>  (1488) 
B0426a

>  <inspiration_score>  (1488) 
None

>  <inchikey>  (1488) 
WNBIYVXONGVBLB-OAHLLOKOSA-N

>  <tags>  (1488) 
BulkDock Fragalysis export,openbind_d68ev3c_c2_elabs_scored,openbind_d68ev3c_c2_elabs_scored_4.5plus,openbind_d68ev3c_c2_elabs,openbind_d68ev3c_c2_elabs_scored_5plus,syndirella_product,openbind_d68ev3c_c2_elabs_scored_top80percent,syndirella_placed

>  <smiles>  (1488) 
Cn1cc([C@H](Cl)N2CCN(c3cc(Cl)cc(C(F)(F)F)c3)CC2)cn1

>  <subsites>  (1488) 
None

>  <rmsd(smina/fragmenstein)>  (1488) 
1.511

>  <alias>  (1488) 
None

>  <energy_score>  (1488) 
-38.769918

>  <HIPPO Pose ID>  (1488) 
131491

>  <distance_score>  (1488) 
0.58254

>  <HIPPO Compound ID>  (1488) 
157536

>  <gnina_score_min>  (1488) 
5.753

>  <name>  (1488) 
P131491

>  <exports>  (1488) 
['/opt/xchem-fragalysis-2/maxwin/BulkDock/OUTPUTS/openbind_d68ev3c_c2_elabs_1LOTQJ3.sdf', '/opt/xchem-fragalysis-2/maxwin/BulkDock/OUTPUTS/openbind_d68ev3c_c2_elabs_1LSYI5W.sdf']

$$$$
P131493
     RDKit          3D

 25 27  0  0  0  0  0  0  0  0999 V2000
  -16.7878   -0.0759    8.9672 C   0  0  0  0  0  0  0  0  0  0  0  0
  -15.5200    0.3090    9.5337 N   0  0  0  0  0  0  0  0  0  0  0  0
  -14.5401    1.0096    8.8983 C   0  0  0  0  0  0  0  0  0  0  0  0
  -13.5535    1.2455    9.8387 C   0  0  0  0  0  0  0  0  0  0  0  0
  -12.2451    1.9570    9.7122 C   0  0  2  0  0  0  0  0  0  0  0  0
  -12.6048    3.6445    9.2289 Cl  0  0  0  0  0  0  0  0  0  0  0  0
  -11.3606    1.3720    8.6919 N   0  0  0  0  0  0  0  0  0  0  0  0
   -9.9787    1.9059    8.8617 C   0  0  0  0  0  0  0  0  0  0  0  0
   -8.9373    1.2941    7.8928 C   0  0  0  0  0  0  0  0  0  0  0  0
   -8.9474   -0.1816    7.9808 N   0  0  0  0  0  0  0  0  0  0  0  0
   -7.9244   -0.8573    7.3050 C   0  0  0  0  0  0  0  0  0  0  0  0
   -8.1649   -1.9563    6.4677 C   0  0  0  0  0  0  0  0  0  0  0  0
   -7.1405   -2.5811    5.7698 C   0  0  0  0  0  0  0  0  0  0  0  0
   -5.8388   -2.1197    5.8942 C   0  0  0  0  0  0  0  0  0  0  0  0
   -4.6922   -2.8263    4.8416 Cl  0  0  0  0  0  0  0  0  0  0  0  0
   -5.5304   -1.0886    6.7801 C   0  0  0  0  0  0  0  0  0  0  0  0
   -4.1240   -0.6250    7.0130 C   0  0  0  0  0  0  0  0  0  0  0  0
   -3.3894   -0.5304    5.8731 F   0  0  0  0  0  0  0  0  0  0  0  0
   -4.0560    0.6197    7.5728 F   0  0  0  0  0  0  0  0  0  0  0  0
   -3.4258   -1.4375    7.8510 F   0  0  0  0  0  0  0  0  0  0  0  0
   -6.5855   -0.4813    7.4858 C   0  0  0  0  0  0  0  0  0  0  0  0
  -10.3079   -0.7224    7.8090 C   0  0  0  0  0  0  0  0  0  0  0  0
  -11.2751   -0.1051    8.8255 C   0  0  0  0  0  0  0  0  0  0  0  0
  -14.0526    0.6227   11.0084 C   0  0  0  0  0  0  0  0  0  0  0  0
  -15.2416    0.0446   10.8243 N   0  0  0  0  0  0  0  0  0  0  0  0
  1  2  1  0
  2  3  1  0
  3  4  2  0
  4  5  1  0
  5  6  1  6
  5  7  1  0
  7  8  1  0
  8  9  1  0
  9 10  1  0
 10 11  1  0
 11 12  2  0
 12 13  1  0
 13 14  2  0
 14 15  1  0
 14 16  1  0
 16 17  1  0
 17 18  1  0
 17 19  1  0
 17 20  1  0
 16 21  2  0
 10 22  1  0
 22 23  1  0
  4 24  1  0
 24 25  2  0
 25  2  1  0
 23  7  1  0
 21 11  1  0
M  END
>  <ref_mols>  (1489) 
B0426a

>  <gnina_score>  (1489) 
5.702

>  <smina_score_min>  (1489) 
-6.176

>  <ref_pdb>  (1489) 
B0426a

>  <inspiration_score>  (1489) 
None

>  <inchikey>  (1489) 
VEWYIJZFJQBGAD-OAHLLOKOSA-N

>  <tags>  (1489) 
BulkDock Fragalysis export,openbind_d68ev3c_c2_elabs_scored,openbind_d68ev3c_c2_elabs_scored_4.5plus,openbind_d68ev3c_c2_elabs,openbind_d68ev3c_c2_elabs_scored_5plus,syndirella_product,openbind_d68ev3c_c2_elabs_scored_top80percent,syndirella_placed

>  <smiles>  (1489) 
Cn1cc([C@H](Cl)N2CCN(c3ccc(Cl)c(C(F)(F)F)c3)CC2)cn1

>  <subsites>  (1489) 
None

>  <rmsd(smina/fragmenstein)>  (1489) 
1.17

>  <alias>  (1489) 
None

>  <energy_score>  (1489) 
-35.530547

>  <HIPPO Pose ID>  (1489) 
131493

>  <distance_score>  (1489) 
0.464791

>  <HIPPO Compound ID>  (1489) 
157537

>  <gnina_score_min>  (1489) 
5.887

>  <name>  (1489) 
P131493

>  <exports>  (1489) 
['/opt/xchem-fragalysis-2/maxwin/BulkDock/OUTPUTS/openbind_d68ev3c_c2_elabs_1LOTQJ3.sdf', '/opt/xchem-fragalysis-2/maxwin/BulkDock/OUTPUTS/openbind_d68ev3c_c2_elabs_1LSYI5W.sdf']

$$$$
P131495
     RDKit          3D

 25 27  0  0  0  0  0  0  0  0999 V2000
  -16.8197   -0.2010    9.2839 C   0  0  0  0  0  0  0  0  0  0  0  0
  -15.4817    0.2288    9.5987 N   0  0  0  0  0  0  0  0  0  0  0  0
  -14.6688    0.9360    8.7682 C   0  0  0  0  0  0  0  0  0  0  0  0
  -13.6150    1.3925    9.5408 C   0  0  0  0  0  0  0  0  0  0  0  0
  -12.5697    2.3557    9.1003 C   0  0  0  0  0  0  0  0  0  0  0  0
  -11.3572    1.7832    8.5263 N   0  0  0  0  0  0  0  0  0  0  0  0
  -11.5293    0.5651    7.7160 C   0  0  0  0  0  0  0  0  0  0  0  0
  -10.2259    0.1791    6.9834 C   0  0  0  0  0  0  0  0  0  0  0  0
   -9.0921    0.0992    7.9242 N   0  0  0  0  0  0  0  0  0  0  0  0
   -7.9766   -0.6049    7.5070 C   0  0  0  0  0  0  0  0  0  0  0  0
   -8.1541   -1.9384    7.1654 C   0  0  0  0  0  0  0  0  0  0  0  0
   -7.0789   -2.7252    6.8077 C   0  0  0  0  0  0  0  0  0  0  0  0
   -7.3756   -4.3703    6.5926 Cl  0  0  0  0  0  0  0  0  0  0  0  0
   -5.7917   -2.2204    6.7455 C   0  0  0  0  0  0  0  0  0  0  0  0
   -5.5676   -0.8916    7.1045 C   0  0  0  0  0  0  0  0  0  0  0  0
   -4.1556   -0.3794    7.1185 C   0  0  0  0  0  0  0  0  0  0  0  0
   -4.0549    0.9604    7.3331 F   0  0  0  0  0  0  0  0  0  0  0  0
   -3.3937   -0.9711    8.0788 F   0  0  0  0  0  0  0  0  0  0  0  0
   -3.5111   -0.6159    5.9403 F   0  0  0  0  0  0  0  0  0  0  0  0
   -6.6672   -0.0954    7.4863 C   0  0  0  0  0  0  0  0  0  0  0  0
   -8.9441    1.2479    8.8123 C   0  0  0  0  0  0  0  0  0  0  0  0
  -10.2822    1.5751    9.5084 C   0  0  0  0  0  0  0  0  0  0  0  0
  -13.8797    0.8341   10.8127 C   0  0  0  0  0  0  0  0  0  0  0  0
  -12.8628    1.1410   12.3628 Br  0  0  0  0  0  0  0  0  0  0  0  0
  -15.0047    0.1140   10.8482 N   0  0  0  0  0  0  0  0  0  0  0  0
  1  2  1  0
  2  3  1  0
  3  4  2  0
  4  5  1  0
  5  6  1  0
  6  7  1  0
  7  8  1  0
  8  9  1  0
  9 10  1  0
 10 11  2  0
 11 12  1  0
 12 13  1  0
 12 14  2  0
 14 15  1  0
 15 16  1  0
 16 17  1  0
 16 18  1  0
 16 19  1  0
 15 20  2  0
  9 21  1  0
 21 22  1  0
  4 23  1  0
 23 24  1  0
 23 25  2  0
 25  2  1  0
 22  6  1  0
 20 10  1  0
M  END
>  <ref_mols>  (1490) 
B0426a

>  <gnina_score>  (1490) 
5.849

>  <smina_score_min>  (1490) 
-5.753

>  <ref_pdb>  (1490) 
B0426a

>  <inspiration_score>  (1490) 
None

>  <inchikey>  (1490) 
QUJWFOZRYGNMNO-UHFFFAOYSA-N

>  <tags>  (1490) 
BulkDock Fragalysis export,openbind_d68ev3c_c2_elabs_scored,openbind_d68ev3c_c2_elabs_scored_4.5plus,openbind_d68ev3c_c2_elabs,openbind_d68ev3c_c2_elabs_scored_5plus,syndirella_product,openbind_d68ev3c_c2_elabs_scored_top80percent,syndirella_placed

>  <smiles>  (1490) 
Cn1cc(CN2CCN(c3cc(Cl)cc(C(F)(F)F)c3)CC2)c(Br)n1

>  <subsites>  (1490) 
None

>  <rmsd(smina/fragmenstein)>  (1490) 
0.672

>  <alias>  (1490) 
None

>  <energy_score>  (1490) 
-38.319798

>  <HIPPO Pose ID>  (1490) 
131495

>  <distance_score>  (1490) 
0.558039

>  <HIPPO Compound ID>  (1490) 
157538

>  <gnina_score_min>  (1490) 
5.844

>  <name>  (1490) 
P131495

>  <exports>  (1490) 
['/opt/xchem-fragalysis-2/maxwin/BulkDock/OUTPUTS/openbind_d68ev3c_c2_elabs_1LOTQJ3.sdf', '/opt/xchem-fragalysis-2/maxwin/BulkDock/OUTPUTS/openbind_d68ev3c_c2_elabs_1LSYI5W.sdf']

$$$$
P131496
     RDKit          3D

 25 27  0  0  0  0  0  0  0  0999 V2000
  -17.9028   -0.0508    9.1574 C   0  0  0  0  0  0  0  0  0  0  0  0
  -16.7117    0.2532    8.6241 C   0  0  0  0  0  0  0  0  0  0  0  0
  -15.5219    0.4237    9.3410 N   0  0  0  0  0  0  0  0  0  0  0  0
  -14.3551    0.9112    8.7749 C   0  0  0  0  0  0  0  0  0  0  0  0
  -13.4320    1.1012    9.7787 C   0  0  0  0  0  0  0  0  0  0  0  0
  -12.0635    1.6859    9.7273 C   0  0  0  0  0  0  0  0  0  0  0  0
  -11.2401    1.1551    8.6283 N   0  0  0  0  0  0  0  0  0  0  0  0
  -11.1015   -0.3233    8.7114 C   0  0  0  0  0  0  0  0  0  0  0  0
  -10.1244   -0.8934    7.6613 C   0  0  0  0  0  0  0  0  0  0  0  0
   -8.7901   -0.2825    7.8255 N   0  0  0  0  0  0  0  0  0  0  0  0
   -7.7204   -0.8704    7.1428 C   0  0  0  0  0  0  0  0  0  0  0  0
   -7.8768   -1.7545    6.0662 C   0  0  0  0  0  0  0  0  0  0  0  0
   -6.7676   -2.2711    5.3966 C   0  0  0  0  0  0  0  0  0  0  0  0
   -6.9703   -3.1768    3.9487 Cl  0  0  0  0  0  0  0  0  0  0  0  0
   -5.4811   -1.9654    5.8147 C   0  0  0  0  0  0  0  0  0  0  0  0
   -5.2913   -1.0876    6.8842 C   0  0  0  0  0  0  0  0  0  0  0  0
   -3.9077   -0.6760    7.2842 C   0  0  0  0  0  0  0  0  0  0  0  0
   -3.0158   -0.8664    6.2756 F   0  0  0  0  0  0  0  0  0  0  0  0
   -3.8172    0.6448    7.6046 F   0  0  0  0  0  0  0  0  0  0  0  0
   -3.4242   -1.3624    8.3479 F   0  0  0  0  0  0  0  0  0  0  0  0
   -6.4112   -0.5661    7.5453 C   0  0  0  0  0  0  0  0  0  0  0  0
   -8.8536    1.1923    7.7342 C   0  0  0  0  0  0  0  0  0  0  0  0
   -9.8814    1.7505    8.7442 C   0  0  0  0  0  0  0  0  0  0  0  0
  -14.0997    0.6350   10.9259 C   0  0  0  0  0  0  0  0  0  0  0  0
  -15.3412    0.2214   10.6796 N   0  0  0  0  0  0  0  0  0  0  0  0
  1  2  2  0
  2  3  1  0
  3  4  1  0
  4  5  2  0
  5  6  1  0
  6  7  1  0
  7  8  1  0
  8  9  1  0
  9 10  1  0
 10 11  1  0
 11 12  2  0
 12 13  1  0
 13 14  1  0
 13 15  2  0
 15 16  1  0
 16 17  1  0
 17 18  1  0
 17 19  1  0
 17 20  1  0
 16 21  2  0
 10 22  1  0
 22 23  1  0
  5 24  1  0
 24 25  2  0
 25  3  1  0
 23  7  1  0
 21 11  1  0
M  END
>  <ref_mols>  (1491) 
B0426a

>  <gnina_score>  (1491) 
5.571

>  <smina_score_min>  (1491) 
-5.138

>  <ref_pdb>  (1491) 
B0426a

>  <inspiration_score>  (1491) 
None

>  <inchikey>  (1491) 
KCMUIPWIRGVYDH-UHFFFAOYSA-N

>  <tags>  (1491) 
BulkDock Fragalysis export,openbind_d68ev3c_c2_elabs_scored,openbind_d68ev3c_c2_elabs_scored_4.5plus,openbind_d68ev3c_c2_elabs,openbind_d68ev3c_c2_elabs_scored_5plus,syndirella_product,openbind_d68ev3c_c2_elabs_scored_top80percent,syndirella_placed

>  <smiles>  (1491) 
C=Cn1cc(CN2CCN(c3cc(Cl)cc(C(F)(F)F)c3)CC2)cn1

>  <subsites>  (1491) 
None

>  <rmsd(smina/fragmenstein)>  (1491) 
0.467

>  <alias>  (1491) 
None

>  <energy_score>  (1491) 
-44.759757

>  <HIPPO Pose ID>  (1491) 
131496

>  <distance_score>  (1491) 
0.562773

>  <HIPPO Compound ID>  (1491) 
157539

>  <gnina_score_min>  (1491) 
5.611

>  <name>  (1491) 
P131496

>  <exports>  (1491) 
['/opt/xchem-fragalysis-2/maxwin/BulkDock/OUTPUTS/openbind_d68ev3c_c2_elabs_1LOTQJ3.sdf', '/opt/xchem-fragalysis-2/maxwin/BulkDock/OUTPUTS/openbind_d68ev3c_c2_elabs_1LSYI5W.sdf']

$$$$
P131497
     RDKit          3D

 25 27  0  0  0  0  0  0  0  0999 V2000
  -16.4316   -0.5240    7.0579 C   0  0  0  0  0  0  0  0  0  0  0  0
  -16.6337   -0.0043    8.4730 C   0  0  0  0  0  0  0  0  0  0  0  0
  -15.4143    0.3309    9.1794 N   0  0  0  0  0  0  0  0  0  0  0  0
  -14.3374    1.0008    8.6792 C   0  0  0  0  0  0  0  0  0  0  0  0
  -13.4374    1.1271    9.7165 C   0  0  0  0  0  0  0  0  0  0  0  0
  -12.0727    1.7215    9.7171 C   0  0  0  0  0  0  0  0  0  0  0  0
  -11.2207    1.1892    8.6391 N   0  0  0  0  0  0  0  0  0  0  0  0
   -9.8585    1.7600    8.7913 C   0  0  0  0  0  0  0  0  0  0  0  0
   -8.8285    1.2053    7.7812 C   0  0  0  0  0  0  0  0  0  0  0  0
   -8.7821   -0.2720    7.8450 N   0  0  0  0  0  0  0  0  0  0  0  0
   -7.7170   -0.8624    7.1569 C   0  0  0  0  0  0  0  0  0  0  0  0
   -7.8805   -1.7447    6.0794 C   0  0  0  0  0  0  0  0  0  0  0  0
   -6.7760   -2.2642    5.4044 C   0  0  0  0  0  0  0  0  0  0  0  0
   -6.9865   -3.1680    3.9561 Cl  0  0  0  0  0  0  0  0  0  0  0  0
   -5.4866   -1.9630    5.8173 C   0  0  0  0  0  0  0  0  0  0  0  0
   -5.2896   -1.0880    6.8876 C   0  0  0  0  0  0  0  0  0  0  0  0
   -3.9037   -0.6800    7.2821 C   0  0  0  0  0  0  0  0  0  0  0  0
   -3.4152   -1.3695    8.3417 F   0  0  0  0  0  0  0  0  0  0  0  0
   -3.8080    0.6400    7.6043 F   0  0  0  0  0  0  0  0  0  0  0  0
   -3.0169   -0.8700    6.2685 F   0  0  0  0  0  0  0  0  0  0  0  0
   -6.4049   -0.5650    7.5550 C   0  0  0  0  0  0  0  0  0  0  0  0
  -10.1244   -0.8654    7.6641 C   0  0  0  0  0  0  0  0  0  0  0  0
  -11.1061   -0.2939    8.7084 C   0  0  0  0  0  0  0  0  0  0  0  0
  -14.1102    0.5530   10.8194 C   0  0  0  0  0  0  0  0  0  0  0  0
  -15.3261    0.0992   10.5068 N   0  0  0  0  0  0  0  0  0  0  0  0
  1  2  1  0
  2  3  1  0
  3  4  1  0
  4  5  2  0
  5  6  1  0
  6  7  1  0
  7  8  1  0
  8  9  1  0
  9 10  1  0
 10 11  1  0
 11 12  2  0
 12 13  1  0
 13 14  1  0
 13 15  2  0
 15 16  1  0
 16 17  1  0
 17 18  1  0
 17 19  1  0
 17 20  1  0
 16 21  2  0
 10 22  1  0
 22 23  1  0
  5 24  1  0
 24 25  2  0
 25  3  1  0
 23  7  1  0
 21 11  1  0
M  END
>  <ref_mols>  (1492) 
B0426a

>  <gnina_score>  (1492) 
5.599

>  <smina_score_min>  (1492) 
-5.065

>  <ref_pdb>  (1492) 
B0426a

>  <inspiration_score>  (1492) 
None

>  <inchikey>  (1492) 
GUVOYZSULZJJFL-UHFFFAOYSA-N

>  <tags>  (1492) 
BulkDock Fragalysis export,openbind_d68ev3c_c2_elabs_scored,openbind_d68ev3c_c2_elabs_scored_4.5plus,openbind_d68ev3c_c2_elabs,openbind_d68ev3c_c2_elabs_scored_5plus,syndirella_product,openbind_d68ev3c_c2_elabs_scored_top80percent,syndirella_placed

>  <smiles>  (1492) 
CCn1cc(CN2CCN(c3cc(Cl)cc(C(F)(F)F)c3)CC2)cn1

>  <subsites>  (1492) 
None

>  <rmsd(smina/fragmenstein)>  (1492) 
0.431

>  <alias>  (1492) 
None

>  <energy_score>  (1492) 
-39.482381

>  <HIPPO Pose ID>  (1492) 
131497

>  <distance_score>  (1492) 
0.555774

>  <HIPPO Compound ID>  (1492) 
157540

>  <gnina_score_min>  (1492) 
5.569

>  <name>  (1492) 
P131497

>  <exports>  (1492) 
['/opt/xchem-fragalysis-2/maxwin/BulkDock/OUTPUTS/openbind_d68ev3c_c2_elabs_1LOTQJ3.sdf', '/opt/xchem-fragalysis-2/maxwin/BulkDock/OUTPUTS/openbind_d68ev3c_c2_elabs_1LSYI5W.sdf']

$$$$
P131498
     RDKit          3D

 25 27  0  0  0  0  0  0  0  0999 V2000
  -17.5936    0.8931   10.7777 C   0  0  0  0  0  0  0  0  0  0  0  0
  -16.6050   -0.1906   10.3849 C   0  0  0  0  0  0  0  0  0  0  0  0
  -15.2498    0.3042   10.3013 N   0  0  0  0  0  0  0  0  0  0  0  0
  -14.6691    0.9047    9.2275 C   0  0  0  0  0  0  0  0  0  0  0  0
  -13.4395    1.3634    9.6600 C   0  0  0  0  0  0  0  0  0  0  0  0
  -12.4628    2.1757    8.8877 C   0  0  0  0  0  0  0  0  0  0  0  0
  -11.2881    1.4522    8.4134 N   0  0  0  0  0  0  0  0  0  0  0  0
  -11.5672    0.1180    7.8582 C   0  0  0  0  0  0  0  0  0  0  0  0
  -10.3268   -0.4951    7.1819 C   0  0  0  0  0  0  0  0  0  0  0  0
   -9.1236   -0.4875    8.0612 N   0  0  0  0  0  0  0  0  0  0  0  0
   -8.0011   -1.1053    7.4805 C   0  0  0  0  0  0  0  0  0  0  0  0
   -8.1418   -2.3221    6.7992 C   0  0  0  0  0  0  0  0  0  0  0  0
   -7.0971   -2.8702    6.0645 C   0  0  0  0  0  0  0  0  0  0  0  0
   -5.8612   -2.2384    6.0396 C   0  0  0  0  0  0  0  0  0  0  0  0
   -4.7197   -2.8282    4.9079 Cl  0  0  0  0  0  0  0  0  0  0  0  0
   -5.6162   -1.1290    6.8450 C   0  0  0  0  0  0  0  0  0  0  0  0
   -4.2400   -0.5448    6.9944 C   0  0  0  0  0  0  0  0  0  0  0  0
   -3.4376   -1.2911    7.8032 F   0  0  0  0  0  0  0  0  0  0  0  0
   -3.5656   -0.4055    5.8205 F   0  0  0  0  0  0  0  0  0  0  0  0
   -4.2409    0.7060    7.5437 F   0  0  0  0  0  0  0  0  0  0  0  0
   -6.7009   -0.5744    7.5551 C   0  0  0  0  0  0  0  0  0  0  0  0
   -8.9190    0.8017    8.7555 C   0  0  0  0  0  0  0  0  0  0  0  0
  -10.2138    1.3305    9.4076 C   0  0  0  0  0  0  0  0  0  0  0  0
  -13.3671    0.9269   11.0023 C   0  0  0  0  0  0  0  0  0  0  0  0
  -14.4668    0.2774   11.3917 N   0  0  0  0  0  0  0  0  0  0  0  0
  1  2  1  0
  2  3  1  0
  3  4  1  0
  4  5  2  0
  5  6  1  0
  6  7  1  0
  7  8  1  0
  8  9  1  0
  9 10  1  0
 10 11  1  0
 11 12  2  0
 12 13  1  0
 13 14  2  0
 14 15  1  0
 14 16  1  0
 16 17  1  0
 17 18  1  0
 17 19  1  0
 17 20  1  0
 16 21  2  0
 10 22  1  0
 22 23  1  0
  5 24  1  0
 24 25  2  0
 25  3  1  0
 23  7  1  0
 21 11  1  0
M  END
>  <ref_mols>  (1493) 
B0426a

>  <gnina_score>  (1493) 
5.514

>  <smina_score_min>  (1493) 
-6.123

>  <ref_pdb>  (1493) 
B0426a

>  <inspiration_score>  (1493) 
None

>  <inchikey>  (1493) 
SBLZLPQIQUUUJP-UHFFFAOYSA-N

>  <tags>  (1493) 
BulkDock Fragalysis export,openbind_d68ev3c_c2_elabs_scored,openbind_d68ev3c_c2_elabs_scored_4.5plus,openbind_d68ev3c_c2_elabs,openbind_d68ev3c_c2_elabs_scored_5plus,syndirella_product,openbind_d68ev3c_c2_elabs_scored_top80percent,syndirella_placed

>  <smiles>  (1493) 
CCn1cc(CN2CCN(c3ccc(Cl)c(C(F)(F)F)c3)CC2)cn1

>  <subsites>  (1493) 
None

>  <rmsd(smina/fragmenstein)>  (1493) 
0.78

>  <alias>  (1493) 
None

>  <energy_score>  (1493) 
-38.2098

>  <HIPPO Pose ID>  (1493) 
131498

>  <distance_score>  (1493) 
0.477621

>  <HIPPO Compound ID>  (1493) 
157541

>  <gnina_score_min>  (1493) 
5.641

>  <name>  (1493) 
P131498

>  <exports>  (1493) 
['/opt/xchem-fragalysis-2/maxwin/BulkDock/OUTPUTS/openbind_d68ev3c_c2_elabs_1LOTQJ3.sdf', '/opt/xchem-fragalysis-2/maxwin/BulkDock/OUTPUTS/openbind_d68ev3c_c2_elabs_1LSYI5W.sdf']

$$$$
P131499
     RDKit          3D

 25 27  0  0  0  0  0  0  0  0999 V2000
  -14.5914    1.3298    7.2835 C   0  0  0  0  0  0  0  0  0  0  0  0
  -14.5583    1.0749    8.7464 C   0  0  0  0  0  0  0  0  0  0  0  0
  -13.6259    1.4238    9.7094 C   0  0  0  0  0  0  0  0  0  0  0  0
  -12.3513    2.1881    9.5590 C   0  0  0  0  0  0  0  0  0  0  0  0
  -11.4040    1.4713    8.6970 N   0  0  0  0  0  0  0  0  0  0  0  0
  -10.1399    2.2319    8.5754 C   0  0  0  0  0  0  0  0  0  0  0  0
   -9.0731    1.5198    7.7041 C   0  0  0  0  0  0  0  0  0  0  0  0
   -8.8290    0.1503    8.1889 N   0  0  0  0  0  0  0  0  0  0  0  0
   -7.7731   -0.5571    7.6032 C   0  0  0  0  0  0  0  0  0  0  0  0
   -7.9405   -1.8568    7.1252 C   0  0  0  0  0  0  0  0  0  0  0  0
   -6.8642   -2.6077    6.6939 C   0  0  0  0  0  0  0  0  0  0  0  0
   -7.1363   -4.2253    6.3128 Cl  0  0  0  0  0  0  0  0  0  0  0  0
   -5.5854   -2.0980    6.6741 C   0  0  0  0  0  0  0  0  0  0  0  0
   -5.3755   -0.7992    7.1267 C   0  0  0  0  0  0  0  0  0  0  0  0
   -3.9694   -0.2942    7.1645 C   0  0  0  0  0  0  0  0  0  0  0  0
   -3.8656    1.0463    7.3587 F   0  0  0  0  0  0  0  0  0  0  0  0
   -3.2258   -0.8817    8.1390 F   0  0  0  0  0  0  0  0  0  0  0  0
   -3.3205   -0.5560    5.9956 F   0  0  0  0  0  0  0  0  0  0  0  0
   -6.4696   -0.0383    7.5809 C   0  0  0  0  0  0  0  0  0  0  0  0
  -10.0817   -0.6181    8.3828 C   0  0  0  0  0  0  0  0  0  0  0  0
  -11.0858    0.1374    9.2503 C   0  0  0  0  0  0  0  0  0  0  0  0
  -14.1330    0.8587   10.9036 C   0  0  0  0  0  0  0  0  0  0  0  0
  -15.2918    0.2228   10.7266 N   0  0  0  0  0  0  0  0  0  0  0  0
  -15.5298    0.3681    9.4068 N   0  0  0  0  0  0  0  0  0  0  0  0
  -16.7614   -0.1280    8.8433 C   0  0  0  0  0  0  0  0  0  0  0  0
  1  2  1  0
  2  3  2  0
  3  4  1  0
  4  5  1  0
  5  6  1  0
  6  7  1  0
  7  8  1  0
  8  9  1  0
  9 10  2  0
 10 11  1  0
 11 12  1  0
 11 13  2  0
 13 14  1  0
 14 15  1  0
 15 16  1  0
 15 17  1  0
 15 18  1  0
 14 19  2  0
  8 20  1  0
 20 21  1  0
  3 22  1  0
 22 23  2  0
 23 24  1  0
 24 25  1  0
 24  2  1  0
 21  5  1  0
 19  9  1  0
M  END
>  <ref_mols>  (1494) 
B0426a

>  <gnina_score>  (1494) 
5.705

>  <smina_score_min>  (1494) 
-5.787

>  <ref_pdb>  (1494) 
B0426a

>  <inspiration_score>  (1494) 
None

>  <inchikey>  (1494) 
JGLUFVCUYYNEDX-UHFFFAOYSA-N

>  <tags>  (1494) 
BulkDock Fragalysis export,openbind_d68ev3c_c2_elabs_scored,openbind_d68ev3c_c2_elabs_scored_4.5plus,openbind_d68ev3c_c2_elabs,openbind_d68ev3c_c2_elabs_scored_5plus,syndirella_product,openbind_d68ev3c_c2_elabs_scored_top80percent,syndirella_placed

>  <smiles>  (1494) 
Cc1c(CN2CCN(c3cc(Cl)cc(C(F)(F)F)c3)CC2)cnn1C

>  <subsites>  (1494) 
None

>  <rmsd(smina/fragmenstein)>  (1494) 
1.204

>  <alias>  (1494) 
None

>  <energy_score>  (1494) 
-43.552443

>  <HIPPO Pose ID>  (1494) 
131499

>  <distance_score>  (1494) 
0.613461

>  <HIPPO Compound ID>  (1494) 
157542

>  <gnina_score_min>  (1494) 
5.582

>  <name>  (1494) 
P131499

>  <exports>  (1494) 
['/opt/xchem-fragalysis-2/maxwin/BulkDock/OUTPUTS/openbind_d68ev3c_c2_elabs_1LOTQJ3.sdf', '/opt/xchem-fragalysis-2/maxwin/BulkDock/OUTPUTS/openbind_d68ev3c_c2_elabs_1LSYI5W.sdf']

$$$$
P131500
     RDKit          3D

 25 27  0  0  0  0  0  0  0  0999 V2000
  -14.4965    1.2884    7.3339 C   0  0  0  0  0  0  0  0  0  0  0  0
  -14.4796    1.0234    8.7950 C   0  0  0  0  0  0  0  0  0  0  0  0
  -13.5364    1.3269    9.7633 C   0  0  0  0  0  0  0  0  0  0  0  0
  -12.2294    2.0364    9.6247 C   0  0  0  0  0  0  0  0  0  0  0  0
  -11.3216    1.3048    8.7336 N   0  0  0  0  0  0  0  0  0  0  0  0
  -10.0313    2.0193    8.6134 C   0  0  0  0  0  0  0  0  0  0  0  0
   -9.0148    1.2898    7.6994 C   0  0  0  0  0  0  0  0  0  0  0  0
   -8.8168   -0.1087    8.1355 N   0  0  0  0  0  0  0  0  0  0  0  0
   -7.8460   -0.8152    7.4119 C   0  0  0  0  0  0  0  0  0  0  0  0
   -8.1346   -1.9442    6.6333 C   0  0  0  0  0  0  0  0  0  0  0  0
   -7.1483   -2.5809    5.8920 C   0  0  0  0  0  0  0  0  0  0  0  0
   -5.8433   -2.1080    5.9293 C   0  0  0  0  0  0  0  0  0  0  0  0
   -4.7469   -2.8334    4.8322 Cl  0  0  0  0  0  0  0  0  0  0  0  0
   -5.4917   -1.0481    6.7665 C   0  0  0  0  0  0  0  0  0  0  0  0
   -4.0750   -0.5949    6.9365 C   0  0  0  0  0  0  0  0  0  0  0  0
   -3.9696    0.6582    7.4707 F   0  0  0  0  0  0  0  0  0  0  0  0
   -3.3846   -0.5324    5.7672 F   0  0  0  0  0  0  0  0  0  0  0  0
   -3.3545   -1.4011    7.7625 F   0  0  0  0  0  0  0  0  0  0  0  0
   -6.5092   -0.4097    7.4939 C   0  0  0  0  0  0  0  0  0  0  0  0
  -10.0932   -0.8243    8.3184 C   0  0  0  0  0  0  0  0  0  0  0  0
  -11.0424   -0.0582    9.2432 C   0  0  0  0  0  0  0  0  0  0  0  0
  -14.0735    0.7815   10.9531 C   0  0  0  0  0  0  0  0  0  0  0  0
  -15.2556    0.1928   10.7679 N   0  0  0  0  0  0  0  0  0  0  0  0
  -15.4807    0.3515    9.4477 N   0  0  0  0  0  0  0  0  0  0  0  0
  -16.7248   -0.1020    8.8756 C   0  0  0  0  0  0  0  0  0  0  0  0
  1  2  1  0
  2  3  2  0
  3  4  1  0
  4  5  1  0
  5  6  1  0
  6  7  1  0
  7  8  1  0
  8  9  1  0
  9 10  2  0
 10 11  1  0
 11 12  2  0
 12 13  1  0
 12 14  1  0
 14 15  1  0
 15 16  1  0
 15 17  1  0
 15 18  1  0
 14 19  2  0
  8 20  1  0
 20 21  1  0
  3 22  1  0
 22 23  2  0
 23 24  1  0
 24 25  1  0
 24  2  1  0
 21  5  1  0
 19  9  1  0
M  END
>  <ref_mols>  (1495) 
B0426a

>  <gnina_score>  (1495) 
5.514

>  <smina_score_min>  (1495) 
-6.236

>  <ref_pdb>  (1495) 
B0426a

>  <inspiration_score>  (1495) 
None

>  <inchikey>  (1495) 
NPOIWGJLAITUML-UHFFFAOYSA-N

>  <tags>  (1495) 
BulkDock Fragalysis export,openbind_d68ev3c_c2_elabs_scored,openbind_d68ev3c_c2_elabs_scored_4.5plus,openbind_d68ev3c_c2_elabs,openbind_d68ev3c_c2_elabs_scored_5plus,syndirella_product,openbind_d68ev3c_c2_elabs_scored_top80percent,syndirella_placed

>  <smiles>  (1495) 
Cc1c(CN2CCN(c3ccc(Cl)c(C(F)(F)F)c3)CC2)cnn1C

>  <subsites>  (1495) 
None

>  <rmsd(smina/fragmenstein)>  (1495) 
1.179

>  <alias>  (1495) 
None

>  <energy_score>  (1495) 
-41.006481

>  <HIPPO Pose ID>  (1495) 
131500

>  <distance_score>  (1495) 
0.54089

>  <HIPPO Compound ID>  (1495) 
157543

>  <gnina_score_min>  (1495) 
5.772

>  <name>  (1495) 
P131500

>  <exports>  (1495) 
['/opt/xchem-fragalysis-2/maxwin/BulkDock/OUTPUTS/openbind_d68ev3c_c2_elabs_1LOTQJ3.sdf', '/opt/xchem-fragalysis-2/maxwin/BulkDock/OUTPUTS/openbind_d68ev3c_c2_elabs_1LSYI5W.sdf']

$$$$
P131501
     RDKit          3D

 25 27  0  0  0  0  0  0  0  0999 V2000
  -16.8063   -0.0912    8.9213 C   0  0  0  0  0  0  0  0  0  0  0  0
  -15.5482    0.3750    9.4478 N   0  0  0  0  0  0  0  0  0  0  0  0
  -15.2471    0.1597   10.7513 N   0  0  0  0  0  0  0  0  0  0  0  0
  -14.0774    0.7892   10.9038 C   0  0  0  0  0  0  0  0  0  0  0  0
  -13.6188    1.4138    9.7161 C   0  0  0  0  0  0  0  0  0  0  0  0
  -12.3597    2.1865    9.5345 C   0  0  0  0  0  0  0  0  0  0  0  0
  -11.4105    1.4539    8.6898 N   0  0  0  0  0  0  0  0  0  0  0  0
  -10.1569    2.2282    8.5318 C   0  0  0  0  0  0  0  0  0  0  0  0
   -9.0870    1.5058    7.6722 C   0  0  0  0  0  0  0  0  0  0  0  0
   -8.8258    0.1512    8.1897 N   0  0  0  0  0  0  0  0  0  0  0  0
   -7.7712   -0.5583    7.6037 C   0  0  0  0  0  0  0  0  0  0  0  0
   -7.9394   -1.8587    7.1291 C   0  0  0  0  0  0  0  0  0  0  0  0
   -6.8639   -2.6096    6.6960 C   0  0  0  0  0  0  0  0  0  0  0  0
   -7.1382   -4.2271    6.3169 Cl  0  0  0  0  0  0  0  0  0  0  0  0
   -5.5853   -2.0994    6.6731 C   0  0  0  0  0  0  0  0  0  0  0  0
   -5.3750   -0.7997    7.1236 C   0  0  0  0  0  0  0  0  0  0  0  0
   -3.9687   -0.2945    7.1597 C   0  0  0  0  0  0  0  0  0  0  0  0
   -3.3213   -0.5561    5.9903 F   0  0  0  0  0  0  0  0  0  0  0  0
   -3.8658    1.0461    7.3540 F   0  0  0  0  0  0  0  0  0  0  0  0
   -3.2245   -0.8815    8.1339 F   0  0  0  0  0  0  0  0  0  0  0  0
   -6.4686   -0.0379    7.5775 C   0  0  0  0  0  0  0  0  0  0  0  0
  -10.0674   -0.6244    8.4118 C   0  0  0  0  0  0  0  0  0  0  0  0
  -11.0663    0.1411    9.2758 C   0  0  0  0  0  0  0  0  0  0  0  0
  -14.6008    1.1133    8.8056 C   0  0  0  0  0  0  0  0  0  0  0  0
  -14.7611    1.5148    7.1592 Cl  0  0  0  0  0  0  0  0  0  0  0  0
  1  2  1  0
  2  3  1  0
  3  4  2  0
  4  5  1  0
  5  6  1  0
  6  7  1  0
  7  8  1  0
  8  9  1  0
  9 10  1  0
 10 11  1  0
 11 12  2  0
 12 13  1  0
 13 14  1  0
 13 15  2  0
 15 16  1  0
 16 17  1  0
 17 18  1  0
 17 19  1  0
 17 20  1  0
 16 21  2  0
 10 22  1  0
 22 23  1  0
  5 24  2  0
 24 25  1  0
 24  2  1  0
 23  7  1  0
 21 11  1  0
M  END
>  <ref_mols>  (1496) 
B0426a

>  <gnina_score>  (1496) 
5.768

>  <smina_score_min>  (1496) 
-6.047

>  <ref_pdb>  (1496) 
B0426a

>  <inspiration_score>  (1496) 
None

>  <inchikey>  (1496) 
SZNNMKJSEZTKMF-UHFFFAOYSA-N

>  <tags>  (1496) 
BulkDock Fragalysis export,openbind_d68ev3c_c2_elabs_scored,openbind_d68ev3c_c2_elabs_scored_4.5plus,openbind_d68ev3c_c2_elabs,openbind_d68ev3c_c2_elabs_scored_5plus,syndirella_product,openbind_d68ev3c_c2_elabs_scored_top80percent,syndirella_placed

>  <smiles>  (1496) 
Cn1ncc(CN2CCN(c3cc(Cl)cc(C(F)(F)F)c3)CC2)c1Cl

>  <subsites>  (1496) 
None

>  <rmsd(smina/fragmenstein)>  (1496) 
1.144

>  <alias>  (1496) 
None

>  <energy_score>  (1496) 
-34.335806

>  <HIPPO Pose ID>  (1496) 
131501

>  <distance_score>  (1496) 
0.612579

>  <HIPPO Compound ID>  (1496) 
157544

>  <gnina_score_min>  (1496) 
5.827

>  <name>  (1496) 
P131501

>  <exports>  (1496) 
['/opt/xchem-fragalysis-2/maxwin/BulkDock/OUTPUTS/openbind_d68ev3c_c2_elabs_1LOTQJ3.sdf', '/opt/xchem-fragalysis-2/maxwin/BulkDock/OUTPUTS/openbind_d68ev3c_c2_elabs_1LSYI5W.sdf']

$$$$
P131502
     RDKit          3D

 25 27  0  0  0  0  0  0  0  0999 V2000
  -16.7651   -0.0716    8.9364 C   0  0  0  0  0  0  0  0  0  0  0  0
  -15.4981    0.3547    9.4753 N   0  0  0  0  0  0  0  0  0  0  0  0
  -15.2186    0.1343   10.7826 N   0  0  0  0  0  0  0  0  0  0  0  0
  -14.0272    0.7193   10.9444 C   0  0  0  0  0  0  0  0  0  0  0  0
  -13.5320    1.3184    9.7588 C   0  0  0  0  0  0  0  0  0  0  0  0
  -12.2411    2.0389    9.5890 C   0  0  0  0  0  0  0  0  0  0  0  0
  -11.3292    1.2852    8.7229 N   0  0  0  0  0  0  0  0  0  0  0  0
  -10.0533    2.0179    8.5553 C   0  0  0  0  0  0  0  0  0  0  0  0
   -9.0364    1.2708    7.6561 C   0  0  0  0  0  0  0  0  0  0  0  0
   -8.8112   -0.1080    8.1405 N   0  0  0  0  0  0  0  0  0  0  0  0
   -7.8425   -0.8205    7.4197 C   0  0  0  0  0  0  0  0  0  0  0  0
   -8.1319   -1.9539    6.6485 C   0  0  0  0  0  0  0  0  0  0  0  0
   -7.1464   -2.5899    5.9053 C   0  0  0  0  0  0  0  0  0  0  0  0
   -5.8425   -2.1123    5.9347 C   0  0  0  0  0  0  0  0  0  0  0  0
   -4.7488   -2.8352    4.8333 Cl  0  0  0  0  0  0  0  0  0  0  0  0
   -5.4903   -1.0486    6.7668 C   0  0  0  0  0  0  0  0  0  0  0  0
   -4.0739   -0.5924    6.9316 C   0  0  0  0  0  0  0  0  0  0  0  0
   -3.3873   -0.5299    5.7602 F   0  0  0  0  0  0  0  0  0  0  0  0
   -3.9700    0.6617    7.4640 F   0  0  0  0  0  0  0  0  0  0  0  0
   -3.3497   -1.3958    7.7569 F   0  0  0  0  0  0  0  0  0  0  0  0
   -6.5070   -0.4095    7.4944 C   0  0  0  0  0  0  0  0  0  0  0  0
  -10.0719   -0.8362    8.3660 C   0  0  0  0  0  0  0  0  0  0  0  0
  -11.0166   -0.0510    9.2797 C   0  0  0  0  0  0  0  0  0  0  0  0
  -14.5175    1.0549    8.8402 C   0  0  0  0  0  0  0  0  0  0  0  0
  -14.6485    1.4575    7.1914 Cl  0  0  0  0  0  0  0  0  0  0  0  0
  1  2  1  0
  2  3  1  0
  3  4  2  0
  4  5  1  0
  5  6  1  0
  6  7  1  0
  7  8  1  0
  8  9  1  0
  9 10  1  0
 10 11  1  0
 11 12  2  0
 12 13  1  0
 13 14  2  0
 14 15  1  0
 14 16  1  0
 16 17  1  0
 17 18  1  0
 17 19  1  0
 17 20  1  0
 16 21  2  0
 10 22  1  0
 22 23  1  0
  5 24  2  0
 24 25  1  0
 24  2  1  0
 23  7  1  0
 21 11  1  0
M  END
>  <ref_mols>  (1497) 
B0426a

>  <gnina_score>  (1497) 
5.577

>  <smina_score_min>  (1497) 
-5.144

>  <ref_pdb>  (1497) 
B0426a

>  <inspiration_score>  (1497) 
None

>  <inchikey>  (1497) 
HBVWDJAUTUHVSK-UHFFFAOYSA-N

>  <tags>  (1497) 
BulkDock Fragalysis export,openbind_d68ev3c_c2_elabs_scored,openbind_d68ev3c_c2_elabs_scored_4.5plus,openbind_d68ev3c_c2_elabs,openbind_d68ev3c_c2_elabs_scored_5plus,syndirella_product,openbind_d68ev3c_c2_elabs_scored_top80percent,syndirella_placed

>  <smiles>  (1497) 
Cn1ncc(CN2CCN(c3ccc(Cl)c(C(F)(F)F)c3)CC2)c1Cl

>  <subsites>  (1497) 
None

>  <rmsd(smina/fragmenstein)>  (1497) 
0.154

>  <alias>  (1497) 
None

>  <energy_score>  (1497) 
-48.938063

>  <HIPPO Pose ID>  (1497) 
131502

>  <distance_score>  (1497) 
0.542667

>  <HIPPO Compound ID>  (1497) 
157545

>  <gnina_score_min>  (1497) 
5.644

>  <name>  (1497) 
P131502

>  <exports>  (1497) 
['/opt/xchem-fragalysis-2/maxwin/BulkDock/OUTPUTS/openbind_d68ev3c_c2_elabs_1LOTQJ3.sdf', '/opt/xchem-fragalysis-2/maxwin/BulkDock/OUTPUTS/openbind_d68ev3c_c2_elabs_1LSYI5W.sdf']

$$$$
P131503
     RDKit          3D

 25 27  0  0  0  0  0  0  0  0999 V2000
  -16.6463   -0.1243    8.6570 C   0  0  0  0  0  0  0  0  0  0  0  0
  -15.4295    0.2693    9.3209 N   0  0  0  0  0  0  0  0  0  0  0  0
  -14.3447    0.8480    8.7229 C   0  0  0  0  0  0  0  0  0  0  0  0
  -13.4360    1.1149    9.7300 C   0  0  0  0  0  0  0  0  0  0  0  0
  -12.0848    1.7323    9.6727 C   0  0  0  0  0  0  0  0  0  0  0  0
  -11.2384    1.1781    8.5974 N   0  0  0  0  0  0  0  0  0  0  0  0
  -11.0870   -0.2964    8.7269 C   0  0  0  0  0  0  0  0  0  0  0  0
  -10.1073   -0.8832    7.6898 C   0  0  0  0  0  0  0  0  0  0  0  0
   -8.7763   -0.2619    7.8371 N   0  0  0  0  0  0  0  0  0  0  0  0
   -7.7105   -0.8549    7.1525 C   0  0  0  0  0  0  0  0  0  0  0  0
   -7.8722   -1.7421    6.0792 C   0  0  0  0  0  0  0  0  0  0  0  0
   -6.7663   -2.2639    5.4084 C   0  0  0  0  0  0  0  0  0  0  0  0
   -6.9749   -3.1732    3.9638 Cl  0  0  0  0  0  0  0  0  0  0  0  0
   -5.4782   -1.9609    5.8230 C   0  0  0  0  0  0  0  0  0  0  0  0
   -5.2836   -1.0798    6.8891 C   0  0  0  0  0  0  0  0  0  0  0  0
   -3.8982   -0.6725    7.2859 C   0  0  0  0  0  0  0  0  0  0  0  0
   -3.8016    0.6485    7.6029 F   0  0  0  0  0  0  0  0  0  0  0  0
   -3.4155   -1.3587    8.3502 F   0  0  0  0  0  0  0  0  0  0  0  0
   -3.0091   -0.8691    6.2762 F   0  0  0  0  0  0  0  0  0  0  0  0
   -6.4001   -0.5516    7.5504 C   0  0  0  0  0  0  0  0  0  0  0  0
   -8.8467    1.2117    7.7245 C   0  0  0  0  0  0  0  0  0  0  0  0
   -9.8855    1.7843    8.7164 C   0  0  0  0  0  0  0  0  0  0  0  0
  -14.1109    0.6757   10.8758 C   0  0  0  0  0  0  0  0  0  0  0  0
  -13.7333    0.7178   12.1496 O   0  0  0  0  0  0  0  0  0  0  0  0
  -15.3135    0.1629   10.6627 N   0  0  0  0  0  0  0  0  0  0  0  0
  1  2  1  0
  2  3  1  0
  3  4  2  0
  4  5  1  0
  5  6  1  0
  6  7  1  0
  7  8  1  0
  8  9  1  0
  9 10  1  0
 10 11  2  0
 11 12  1  0
 12 13  1  0
 12 14  2  0
 14 15  1  0
 15 16  1  0
 16 17  1  0
 16 18  1  0
 16 19  1  0
 15 20  2  0
  9 21  1  0
 21 22  1  0
  4 23  1  0
 23 24  1  0
 23 25  2  0
 25  2  1  0
 22  6  1  0
 20 10  1  0
M  END
>  <ref_mols>  (1498) 
B0426a

>  <gnina_score>  (1498) 
5.523

>  <smina_score_min>  (1498) 
-5.515

>  <ref_pdb>  (1498) 
B0426a

>  <inspiration_score>  (1498) 
None

>  <inchikey>  (1498) 
WBFJUICTNNWJPO-UHFFFAOYSA-N

>  <tags>  (1498) 
BulkDock Fragalysis export,openbind_d68ev3c_c2_elabs_scored,openbind_d68ev3c_c2_elabs_scored_4.5plus,openbind_d68ev3c_c2_elabs,openbind_d68ev3c_c2_elabs_scored_5plus,syndirella_product,openbind_d68ev3c_c2_elabs_scored_top80percent,syndirella_placed

>  <smiles>  (1498) 
Cn1cc(CN2CCN(c3cc(Cl)cc(C(F)(F)F)c3)CC2)c(O)n1

>  <subsites>  (1498) 
None

>  <rmsd(smina/fragmenstein)>  (1498) 
0.605

>  <alias>  (1498) 
None

>  <energy_score>  (1498) 
-54.561655

>  <HIPPO Pose ID>  (1498) 
131503

>  <distance_score>  (1498) 
0.545068

>  <HIPPO Compound ID>  (1498) 
157546

>  <gnina_score_min>  (1498) 
5.466

>  <name>  (1498) 
P131503

>  <exports>  (1498) 
['/opt/xchem-fragalysis-2/maxwin/BulkDock/OUTPUTS/openbind_d68ev3c_c2_elabs_1LOTQJ3.sdf', '/opt/xchem-fragalysis-2/maxwin/BulkDock/OUTPUTS/openbind_d68ev3c_c2_elabs_1LSYI5W.sdf']

$$$$
P131504
     RDKit          3D

 25 27  0  0  0  0  0  0  0  0999 V2000
  -16.7369   -0.0922    8.9539 C   0  0  0  0  0  0  0  0  0  0  0  0
  -15.4832    0.3411    9.5163 N   0  0  0  0  0  0  0  0  0  0  0  0
  -14.4868    0.9883    8.8405 C   0  0  0  0  0  0  0  0  0  0  0  0
  -13.5293    1.3240    9.7796 C   0  0  0  0  0  0  0  0  0  0  0  0
  -12.2348    2.0355    9.6020 C   0  0  0  0  0  0  0  0  0  0  0  0
  -11.3434    1.2872    8.7037 N   0  0  0  0  0  0  0  0  0  0  0  0
  -10.0639    2.0182    8.5392 C   0  0  0  0  0  0  0  0  0  0  0  0
   -9.0455    1.2706    7.6423 C   0  0  0  0  0  0  0  0  0  0  0  0
   -8.8192   -0.1068    8.1286 N   0  0  0  0  0  0  0  0  0  0  0  0
   -7.8480   -0.8201    7.4130 C   0  0  0  0  0  0  0  0  0  0  0  0
   -8.1342   -1.9564    6.6452 C   0  0  0  0  0  0  0  0  0  0  0  0
   -7.1463   -2.5927    5.9053 C   0  0  0  0  0  0  0  0  0  0  0  0
   -5.8432   -2.1126    5.9355 C   0  0  0  0  0  0  0  0  0  0  0  0
   -4.7467   -2.8353    4.8369 Cl  0  0  0  0  0  0  0  0  0  0  0  0
   -5.4940   -1.0466    6.7658 C   0  0  0  0  0  0  0  0  0  0  0  0
   -4.0782   -0.5888    6.9323 C   0  0  0  0  0  0  0  0  0  0  0  0
   -3.3904   -0.5253    5.7618 F   0  0  0  0  0  0  0  0  0  0  0  0
   -3.3541   -1.3918    7.7582 F   0  0  0  0  0  0  0  0  0  0  0  0
   -3.9763    0.6652    7.4652 F   0  0  0  0  0  0  0  0  0  0  0  0
   -6.5131   -0.4069    7.4893 C   0  0  0  0  0  0  0  0  0  0  0  0
  -10.0779   -0.8359    8.3607 C   0  0  0  0  0  0  0  0  0  0  0  0
  -11.0241   -0.0472    9.2696 C   0  0  0  0  0  0  0  0  0  0  0  0
  -14.0698    0.8153   10.9670 C   0  0  0  0  0  0  0  0  0  0  0  0
  -13.5823    0.8536   12.2030 O   0  0  0  0  0  0  0  0  0  0  0  0
  -15.2449    0.2158   10.8406 N   0  0  0  0  0  0  0  0  0  0  0  0
  1  2  1  0
  2  3  1  0
  3  4  2  0
  4  5  1  0
  5  6  1  0
  6  7  1  0
  7  8  1  0
  8  9  1  0
  9 10  1  0
 10 11  2  0
 11 12  1  0
 12 13  2  0
 13 14  1  0
 13 15  1  0
 15 16  1  0
 16 17  1  0
 16 18  1  0
 16 19  1  0
 15 20  2  0
  9 21  1  0
 21 22  1  0
  4 23  1  0
 23 24  1  0
 23 25  2  0
 25  2  1  0
 22  6  1  0
 20 10  1  0
M  END
>  <ref_mols>  (1499) 
B0426a

>  <gnina_score>  (1499) 
5.368

>  <smina_score_min>  (1499) 
-5.132

>  <ref_pdb>  (1499) 
B0426a

>  <inspiration_score>  (1499) 
None

>  <inchikey>  (1499) 
SAVFTHUCKAXDPS-UHFFFAOYSA-N

>  <tags>  (1499) 
BulkDock Fragalysis export,openbind_d68ev3c_c2_elabs_scored,openbind_d68ev3c_c2_elabs_scored_4.5plus,openbind_d68ev3c_c2_elabs,openbind_d68ev3c_c2_elabs_scored_5plus,syndirella_product,openbind_d68ev3c_c2_elabs_scored_top80percent,syndirella_placed

>  <smiles>  (1499) 
Cn1cc(CN2CCN(c3ccc(Cl)c(C(F)(F)F)c3)CC2)c(O)n1

>  <subsites>  (1499) 
None

>  <rmsd(smina/fragmenstein)>  (1499) 
0.104

>  <alias>  (1499) 
None

>  <energy_score>  (1499) 
-72.858422

>  <HIPPO Pose ID>  (1499) 
131504

>  <distance_score>  (1499) 
0.547582

>  <HIPPO Compound ID>  (1499) 
157547

>  <gnina_score_min>  (1499) 
5.388

>  <name>  (1499) 
P131504

>  <exports>  (1499) 
['/opt/xchem-fragalysis-2/maxwin/BulkDock/OUTPUTS/openbind_d68ev3c_c2_elabs_1LOTQJ3.sdf', '/opt/xchem-fragalysis-2/maxwin/BulkDock/OUTPUTS/openbind_d68ev3c_c2_elabs_1LSYI5W.sdf']

$$$$
P131505
     RDKit          3D

 25 27  0  0  0  0  0  0  0  0999 V2000
  -17.9590   -0.0330    9.5095 C   0  0  0  0  0  0  0  0  0  0  0  0
  -16.8152    0.2889    8.8900 C   0  0  0  0  0  0  0  0  0  0  0  0
  -15.5853    0.5038    9.5216 N   0  0  0  0  0  0  0  0  0  0  0  0
  -14.4792    1.0281    8.8739 C   0  0  0  0  0  0  0  0  0  0  0  0
  -13.5252    1.3246    9.8221 C   0  0  0  0  0  0  0  0  0  0  0  0
  -12.2103    2.0064    9.6563 C   0  0  0  0  0  0  0  0  0  0  0  0
  -11.3404    1.2697    8.7343 N   0  0  0  0  0  0  0  0  0  0  0  0
  -11.0303   -0.0816    9.2606 C   0  0  0  0  0  0  0  0  0  0  0  0
  -10.0869   -0.8536    8.3337 C   0  0  0  0  0  0  0  0  0  0  0  0
   -8.8257   -0.1236    8.1199 N   0  0  0  0  0  0  0  0  0  0  0  0
   -7.8512   -0.8296    7.4019 C   0  0  0  0  0  0  0  0  0  0  0  0
   -8.1339   -1.9619    6.6268 C   0  0  0  0  0  0  0  0  0  0  0  0
   -7.1429   -2.5950    5.8888 C   0  0  0  0  0  0  0  0  0  0  0  0
   -5.8402   -2.1150    5.9268 C   0  0  0  0  0  0  0  0  0  0  0  0
   -4.7394   -2.8356    4.8317 Cl  0  0  0  0  0  0  0  0  0  0  0  0
   -5.4948   -1.0516    6.7619 C   0  0  0  0  0  0  0  0  0  0  0  0
   -4.0801   -0.5923    6.9340 C   0  0  0  0  0  0  0  0  0  0  0  0
   -3.3883   -0.5262    5.7661 F   0  0  0  0  0  0  0  0  0  0  0  0
   -3.3578   -1.3949    7.7618 F   0  0  0  0  0  0  0  0  0  0  0  0
   -3.9824    0.6613    7.4687 F   0  0  0  0  0  0  0  0  0  0  0  0
   -6.5169   -0.4159    7.4850 C   0  0  0  0  0  0  0  0  0  0  0  0
   -9.0478    1.2600    7.6530 C   0  0  0  0  0  0  0  0  0  0  0  0
  -10.0567    1.9954    8.5693 C   0  0  0  0  0  0  0  0  0  0  0  0
  -14.0873    0.8338   11.0145 C   0  0  0  0  0  0  0  0  0  0  0  0
  -15.3073    0.3257   10.8470 N   0  0  0  0  0  0  0  0  0  0  0  0
  1  2  2  0
  2  3  1  0
  3  4  1  0
  4  5  2  0
  5  6  1  0
  6  7  1  0
  7  8  1  0
  8  9  1  0
  9 10  1  0
 10 11  1  0
 11 12  2  0
 12 13  1  0
 13 14  2  0
 14 15  1  0
 14 16  1  0
 16 17  1  0
 17 18  1  0
 17 19  1  0
 17 20  1  0
 16 21  2  0
 10 22  1  0
 22 23  1  0
  5 24  1  0
 24 25  2  0
 25  3  1  0
 23  7  1  0
 21 11  1  0
M  END
>  <ref_mols>  (1500) 
B0426a

>  <gnina_score>  (1500) 
5.455

>  <smina_score_min>  (1500) 
-6.144

>  <ref_pdb>  (1500) 
B0426a

>  <inspiration_score>  (1500) 
None

>  <inchikey>  (1500) 
PLLAGHACJWRPRA-UHFFFAOYSA-N

>  <tags>  (1500) 
BulkDock Fragalysis export,openbind_d68ev3c_c2_elabs_scored,openbind_d68ev3c_c2_elabs_scored_4.5plus,openbind_d68ev3c_c2_elabs,openbind_d68ev3c_c2_elabs_scored_5plus,syndirella_product,openbind_d68ev3c_c2_elabs_scored_top80percent,syndirella_placed

>  <smiles>  (1500) 
C=Cn1cc(CN2CCN(c3ccc(Cl)c(C(F)(F)F)c3)CC2)cn1

>  <subsites>  (1500) 
None

>  <rmsd(smina/fragmenstein)>  (1500) 
1.355

>  <alias>  (1500) 
None

>  <energy_score>  (1500) 
-42.185908

>  <HIPPO Pose ID>  (1500) 
131505

>  <distance_score>  (1500) 
0.570251

>  <HIPPO Compound ID>  (1500) 
157548

>  <gnina_score_min>  (1500) 
5.732

>  <name>  (1500) 
P131505

>  <exports>  (1500) 
['/opt/xchem-fragalysis-2/maxwin/BulkDock/OUTPUTS/openbind_d68ev3c_c2_elabs_1LOTQJ3.sdf', '/opt/xchem-fragalysis-2/maxwin/BulkDock/OUTPUTS/openbind_d68ev3c_c2_elabs_1LSYI5W.sdf']

$$$$
P131506
     RDKit          3D

 25 27  0  0  0  0  0  0  0  0999 V2000
  -16.6572   -0.1339    8.8170 C   0  0  0  0  0  0  0  0  0  0  0  0
  -15.4435    0.3409    9.4312 N   0  0  0  0  0  0  0  0  0  0  0  0
  -14.4065    0.9367    8.7820 C   0  0  0  0  0  0  0  0  0  0  0  0
  -13.5271    1.3704    9.7580 C   0  0  0  0  0  0  0  0  0  0  0  0
  -12.2313    2.0848    9.5560 C   0  0  0  0  0  0  0  0  0  0  0  0
  -11.3359    1.3039    8.6909 N   0  0  0  0  0  0  0  0  0  0  0  0
  -10.0628    2.0362    8.4886 C   0  0  0  0  0  0  0  0  0  0  0  0
   -9.0500    1.2624    7.6094 C   0  0  0  0  0  0  0  0  0  0  0  0
   -8.8128   -0.0969    8.1409 N   0  0  0  0  0  0  0  0  0  0  0  0
   -7.8467   -0.8223    7.4297 C   0  0  0  0  0  0  0  0  0  0  0  0
   -8.1387   -1.9607    6.6684 C   0  0  0  0  0  0  0  0  0  0  0  0
   -7.1544   -2.5983    5.9239 C   0  0  0  0  0  0  0  0  0  0  0  0
   -5.8506   -2.1178    5.9441 C   0  0  0  0  0  0  0  0  0  0  0  0
   -4.7606   -2.8382    4.8368 Cl  0  0  0  0  0  0  0  0  0  0  0  0
   -5.4958   -1.0509    6.7708 C   0  0  0  0  0  0  0  0  0  0  0  0
   -4.0791   -0.5928    6.9296 C   0  0  0  0  0  0  0  0  0  0  0  0
   -3.3959   -0.5303    5.7563 F   0  0  0  0  0  0  0  0  0  0  0  0
   -3.3514   -1.3948    7.7535 F   0  0  0  0  0  0  0  0  0  0  0  0
   -3.9748    0.6617    7.4611 F   0  0  0  0  0  0  0  0  0  0  0  0
   -6.5109   -0.4096    7.4980 C   0  0  0  0  0  0  0  0  0  0  0  0
  -10.0671   -0.8236    8.4056 C   0  0  0  0  0  0  0  0  0  0  0  0
  -11.0051   -0.0076    9.3009 C   0  0  0  0  0  0  0  0  0  0  0  0
  -14.1517    0.9719   10.9662 C   0  0  0  0  0  0  0  0  0  0  0  0
  -13.4503    1.3446   12.8911 I   0  0  0  0  0  0  0  0  0  0  0  0
  -15.3055    0.3275   10.7681 N   0  0  0  0  0  0  0  0  0  0  0  0
  1  2  1  0
  2  3  1  0
  3  4  2  0
  4  5  1  0
  5  6  1  0
  6  7  1  0
  7  8  1  0
  8  9  1  0
  9 10  1  0
 10 11  2  0
 11 12  1  0
 12 13  2  0
 13 14  1  0
 13 15  1  0
 15 16  1  0
 16 17  1  0
 16 18  1  0
 16 19  1  0
 15 20  2  0
  9 21  1  0
 21 22  1  0
  4 23  1  0
 23 24  1  0
 23 25  2  0
 25  2  1  0
 22  6  1  0
 20 10  1  0
M  END
>  <ref_mols>  (1501) 
B0426a

>  <gnina_score>  (1501) 
5.799

>  <smina_score_min>  (1501) 
-5.311

>  <ref_pdb>  (1501) 
B0426a

>  <inspiration_score>  (1501) 
None

>  <inchikey>  (1501) 
VDCFLDXFMVMXTL-UHFFFAOYSA-N

>  <tags>  (1501) 
BulkDock Fragalysis export,openbind_d68ev3c_c2_elabs_scored,openbind_d68ev3c_c2_elabs_scored_4.5plus,openbind_d68ev3c_c2_elabs,openbind_d68ev3c_c2_elabs_scored_5plus,syndirella_product,openbind_d68ev3c_c2_elabs_scored_top80percent,syndirella_placed

>  <smiles>  (1501) 
Cn1cc(CN2CCN(c3ccc(Cl)c(C(F)(F)F)c3)CC2)c(I)n1

>  <subsites>  (1501) 
None

>  <rmsd(smina/fragmenstein)>  (1501) 
0.125

>  <alias>  (1501) 
None

>  <energy_score>  (1501) 
-41.40767

>  <HIPPO Pose ID>  (1501) 
131506

>  <distance_score>  (1501) 
0.572122

>  <HIPPO Compound ID>  (1501) 
157549

>  <gnina_score_min>  (1501) 
5.851

>  <name>  (1501) 
P131506

>  <exports>  (1501) 
['/opt/xchem-fragalysis-2/maxwin/BulkDock/OUTPUTS/openbind_d68ev3c_c2_elabs_1LOTQJ3.sdf', '/opt/xchem-fragalysis-2/maxwin/BulkDock/OUTPUTS/openbind_d68ev3c_c2_elabs_1LSYI5W.sdf']

$$$$
P131507
     RDKit          3D

 25 27  0  0  0  0  0  0  0  0999 V2000
  -16.5421   -0.2436   10.3407 C   0  0  0  0  0  0  0  0  0  0  0  0
  -15.2046    0.2720   10.2297 N   0  0  0  0  0  0  0  0  0  0  0  0
  -14.7009    0.9723    9.1810 C   0  0  0  0  0  0  0  0  0  0  0  0
  -13.4794    1.4711    9.5957 C   0  0  0  0  0  0  0  0  0  0  0  0
  -12.5823    2.4111    8.8701 C   0  0  2  0  0  0  0  0  0  0  0  0
  -13.2623    3.0309    7.7873 O   0  0  0  0  0  0  0  0  0  0  0  0
  -11.3866    1.8272    8.2963 N   0  0  0  0  0  0  0  0  0  0  0  0
  -10.2241    1.8647    9.2001 C   0  0  0  0  0  0  0  0  0  0  0  0
   -8.9291    1.4609    8.4617 C   0  0  0  0  0  0  0  0  0  0  0  0
   -9.0819    0.1471    7.8391 N   0  0  0  0  0  0  0  0  0  0  0  0
   -7.9669   -0.5882    7.4669 C   0  0  0  0  0  0  0  0  0  0  0  0
   -8.1362   -1.9398    7.1939 C   0  0  0  0  0  0  0  0  0  0  0  0
   -7.0688   -2.7373    6.8345 C   0  0  0  0  0  0  0  0  0  0  0  0
   -7.3847   -4.3812    6.6319 Cl  0  0  0  0  0  0  0  0  0  0  0  0
   -5.7825   -2.2374    6.7461 C   0  0  0  0  0  0  0  0  0  0  0  0
   -5.5557   -0.9004    7.0696 C   0  0  0  0  0  0  0  0  0  0  0  0
   -4.1427   -0.3902    7.0730 C   0  0  0  0  0  0  0  0  0  0  0  0
   -3.5079   -0.6277    5.8903 F   0  0  0  0  0  0  0  0  0  0  0  0
   -4.0396    0.9497    7.2871 F   0  0  0  0  0  0  0  0  0  0  0  0
   -3.3749   -0.9818    8.0285 F   0  0  0  0  0  0  0  0  0  0  0  0
   -6.6542   -0.0868    7.4205 C   0  0  0  0  0  0  0  0  0  0  0  0
  -10.2872    0.0177    6.9879 C   0  0  0  0  0  0  0  0  0  0  0  0
  -11.5472    0.4634    7.7541 C   0  0  0  0  0  0  0  0  0  0  0  0
  -13.3249    0.9358   10.8965 C   0  0  0  0  0  0  0  0  0  0  0  0
  -14.3743    0.2051   11.2829 N   0  0  0  0  0  0  0  0  0  0  0  0
  1  2  1  0
  2  3  1  0
  3  4  2  0
  4  5  1  0
  5  6  1  6
  5  7  1  0
  7  8  1  0
  8  9  1  0
  9 10  1  0
 10 11  1  0
 11 12  2  0
 12 13  1  0
 13 14  1  0
 13 15  2  0
 15 16  1  0
 16 17  1  0
 17 18  1  0
 17 19  1  0
 17 20  1  0
 16 21  2  0
 10 22  1  0
 22 23  1  0
  4 24  1  0
 24 25  2  0
 25  2  1  0
 23  7  1  0
 21 11  1  0
M  END
>  <ref_mols>  (1502) 
B0426a

>  <gnina_score>  (1502) 
5.436

>  <smina_score_min>  (1502) 
-5.747

>  <ref_pdb>  (1502) 
B0426a

>  <inspiration_score>  (1502) 
None

>  <inchikey>  (1502) 
CTNYCYNNCQYIGI-HNNXBMFYSA-N

>  <tags>  (1502) 
BulkDock Fragalysis export,openbind_d68ev3c_c2_elabs_scored,openbind_d68ev3c_c2_elabs_scored_4.5plus,openbind_d68ev3c_c2_elabs,openbind_d68ev3c_c2_elabs_scored_5plus,syndirella_product,openbind_d68ev3c_c2_elabs_scored_top80percent,syndirella_placed

>  <smiles>  (1502) 
Cn1cc([C@H](O)N2CCN(c3cc(Cl)cc(C(F)(F)F)c3)CC2)cn1

>  <subsites>  (1502) 
None

>  <rmsd(smina/fragmenstein)>  (1502) 
1.524

>  <alias>  (1502) 
None

>  <energy_score>  (1502) 
-34.730748

>  <HIPPO Pose ID>  (1502) 
131507

>  <distance_score>  (1502) 
0.580675

>  <HIPPO Compound ID>  (1502) 
157550

>  <gnina_score_min>  (1502) 
5.449

>  <name>  (1502) 
P131507

>  <exports>  (1502) 
['/opt/xchem-fragalysis-2/maxwin/BulkDock/OUTPUTS/openbind_d68ev3c_c2_elabs_1LOTQJ3.sdf', '/opt/xchem-fragalysis-2/maxwin/BulkDock/OUTPUTS/openbind_d68ev3c_c2_elabs_1LSYI5W.sdf']

$$$$
P131509
     RDKit          3D

 25 27  0  0  0  0  0  0  0  0999 V2000
  -16.6744    0.0815    8.5817 C   0  0  0  0  0  0  0  0  0  0  0  0
  -15.4725    0.3469    9.3318 N   0  0  0  0  0  0  0  0  0  0  0  0
  -14.3329    0.9321    8.8611 C   0  0  0  0  0  0  0  0  0  0  0  0
  -13.4450    0.9604    9.9192 C   0  0  0  0  0  0  0  0  0  0  0  0
  -12.0380    1.4271   10.0277 C   0  0  0  0  0  0  0  0  0  0  0  0
  -11.2873    1.4065    8.7647 N   0  0  0  0  0  0  0  0  0  0  0  0
   -9.8912    1.8545    9.0527 C   0  0  0  0  0  0  0  0  0  0  0  0
   -8.9367    1.8240    7.8322 C   0  0  0  0  0  0  0  0  0  0  0  0
   -9.0069    0.5288    7.1364 N   0  0  0  0  0  0  0  0  0  0  0  0
   -7.9663   -0.3794    7.1308 C   0  0  0  0  0  0  0  0  0  0  0  0
   -8.2057   -1.7513    7.0589 C   0  0  0  0  0  0  0  0  0  0  0  0
   -7.1758   -2.6660    6.9058 C   0  0  0  0  0  0  0  0  0  0  0  0
   -7.5943   -4.3117    6.8569 Cl  0  0  0  0  0  0  0  0  0  0  0  0
   -5.8534   -2.2604    6.8550 C   0  0  0  0  0  0  0  0  0  0  0  0
   -5.5557   -0.9064    7.0044 C   0  0  0  0  0  0  0  0  0  0  0  0
   -4.1181   -0.4692    7.0170 C   0  0  0  0  0  0  0  0  0  0  0  0
   -3.3801   -1.1160    7.9606 F   0  0  0  0  0  0  0  0  0  0  0  0
   -3.4966   -0.7127    5.8294 F   0  0  0  0  0  0  0  0  0  0  0  0
   -3.9473    0.8596    7.2606 F   0  0  0  0  0  0  0  0  0  0  0  0
   -6.6165    0.0167    7.1235 C   0  0  0  0  0  0  0  0  0  0  0  0
  -10.3976    0.1119    6.8617 C   0  0  0  0  0  0  0  0  0  0  0  0
  -11.2005    0.0461    8.1729 C   0  0  0  0  0  0  0  0  0  0  0  0
  -14.1984    0.4350   10.9882 C   0  0  0  0  0  0  0  0  0  0  0  0
  -13.7262    0.3203   12.2362 F   0  0  0  0  0  0  0  0  0  0  0  0
  -15.4277    0.0558   10.6449 N   0  0  0  0  0  0  0  0  0  0  0  0
  1  2  1  0
  2  3  1  0
  3  4  2  0
  4  5  1  0
  5  6  1  0
  6  7  1  0
  7  8  1  0
  8  9  1  0
  9 10  1  0
 10 11  2  0
 11 12  1  0
 12 13  1  0
 12 14  2  0
 14 15  1  0
 15 16  1  0
 16 17  1  0
 16 18  1  0
 16 19  1  0
 15 20  2  0
  9 21  1  0
 21 22  1  0
  4 23  1  0
 23 24  1  0
 23 25  2  0
 25  2  1  0
 22  6  1  0
 20 10  1  0
M  END
>  <ref_mols>  (1503) 
B0426a

>  <gnina_score>  (1503) 
5.708

>  <smina_score_min>  (1503) 
-5.721

>  <ref_pdb>  (1503) 
B0426a

>  <inspiration_score>  (1503) 
None

>  <inchikey>  (1503) 
QROHHIYELGBBHS-UHFFFAOYSA-N

>  <tags>  (1503) 
BulkDock Fragalysis export,openbind_d68ev3c_c2_elabs_scored,openbind_d68ev3c_c2_elabs_scored_4.5plus,openbind_d68ev3c_c2_elabs,openbind_d68ev3c_c2_elabs_scored_5plus,syndirella_product,openbind_d68ev3c_c2_elabs_scored_top80percent,syndirella_placed

>  <smiles>  (1503) 
Cn1cc(CN2CCN(c3cc(Cl)cc(C(F)(F)F)c3)CC2)c(F)n1

>  <subsites>  (1503) 
None

>  <rmsd(smina/fragmenstein)>  (1503) 
0.85

>  <alias>  (1503) 
None

>  <energy_score>  (1503) 
-36.318818

>  <HIPPO Pose ID>  (1503) 
131509

>  <distance_score>  (1503) 
0.683543

>  <HIPPO Compound ID>  (1503) 
157551

>  <gnina_score_min>  (1503) 
5.684

>  <name>  (1503) 
P131509

>  <exports>  (1503) 
['/opt/xchem-fragalysis-2/maxwin/BulkDock/OUTPUTS/openbind_d68ev3c_c2_elabs_1LOTQJ3.sdf', '/opt/xchem-fragalysis-2/maxwin/BulkDock/OUTPUTS/openbind_d68ev3c_c2_elabs_1LSYI5W.sdf']

$$$$
P131510
     RDKit          3D

 25 27  0  0  0  0  0  0  0  0999 V2000
  -16.7369   -0.0948    8.8328 C   0  0  0  0  0  0  0  0  0  0  0  0
  -15.4971    0.3265    9.4353 N   0  0  0  0  0  0  0  0  0  0  0  0
  -14.5058    1.0286    8.8141 C   0  0  0  0  0  0  0  0  0  0  0  0
  -13.5505    1.2852    9.7782 C   0  0  0  0  0  0  0  0  0  0  0  0
  -12.2488    1.9955    9.6518 C   0  0  0  0  0  0  0  0  0  0  0  0
  -11.3513    1.2755    8.7381 N   0  0  0  0  0  0  0  0  0  0  0  0
  -11.0383   -0.0783    9.2592 C   0  0  0  0  0  0  0  0  0  0  0  0
  -10.0898   -0.8403    8.3312 C   0  0  0  0  0  0  0  0  0  0  0  0
   -8.8285   -0.1088    8.1279 N   0  0  0  0  0  0  0  0  0  0  0  0
   -7.8534   -0.8106    7.4060 C   0  0  0  0  0  0  0  0  0  0  0  0
   -8.1352   -1.9443    6.6314 C   0  0  0  0  0  0  0  0  0  0  0  0
   -7.1447   -2.5800    5.8948 C   0  0  0  0  0  0  0  0  0  0  0  0
   -5.8418   -2.1017    5.9336 C   0  0  0  0  0  0  0  0  0  0  0  0
   -4.7394   -2.8279    4.8436 Cl  0  0  0  0  0  0  0  0  0  0  0  0
   -5.4968   -1.0365    6.7668 C   0  0  0  0  0  0  0  0  0  0  0  0
   -4.0813   -0.5801    6.9392 C   0  0  0  0  0  0  0  0  0  0  0  0
   -3.3898   -0.5157    5.7709 F   0  0  0  0  0  0  0  0  0  0  0  0
   -3.9808    0.6733    7.4737 F   0  0  0  0  0  0  0  0  0  0  0  0
   -3.3605   -1.3844    7.7665 F   0  0  0  0  0  0  0  0  0  0  0  0
   -6.5190   -0.3976    7.4878 C   0  0  0  0  0  0  0  0  0  0  0  0
   -9.0456    1.2842    7.6854 C   0  0  0  0  0  0  0  0  0  0  0  0
  -10.0680    2.0068    8.6006 C   0  0  0  0  0  0  0  0  0  0  0  0
  -14.0817    0.6847   10.9381 C   0  0  0  0  0  0  0  0  0  0  0  0
  -13.4609    0.6824   12.1249 F   0  0  0  0  0  0  0  0  0  0  0  0
  -15.2652    0.1028   10.7426 N   0  0  0  0  0  0  0  0  0  0  0  0
  1  2  1  0
  2  3  1  0
  3  4  2  0
  4  5  1  0
  5  6  1  0
  6  7  1  0
  7  8  1  0
  8  9  1  0
  9 10  1  0
 10 11  2  0
 11 12  1  0
 12 13  2  0
 13 14  1  0
 13 15  1  0
 15 16  1  0
 16 17  1  0
 16 18  1  0
 16 19  1  0
 15 20  2  0
  9 21  1  0
 21 22  1  0
  4 23  1  0
 23 24  1  0
 23 25  2  0
 25  2  1  0
 22  6  1  0
 20 10  1  0
M  END
>  <ref_mols>  (1504) 
B0426a

>  <gnina_score>  (1504) 
5.519

>  <smina_score_min>  (1504) 
-5.222

>  <ref_pdb>  (1504) 
B0426a

>  <inspiration_score>  (1504) 
None

>  <inchikey>  (1504) 
LETICCPUECSGTP-UHFFFAOYSA-N

>  <tags>  (1504) 
BulkDock Fragalysis export,openbind_d68ev3c_c2_elabs_scored,openbind_d68ev3c_c2_elabs_scored_4.5plus,openbind_d68ev3c_c2_elabs,openbind_d68ev3c_c2_elabs_scored_5plus,syndirella_product,openbind_d68ev3c_c2_elabs_scored_top80percent,syndirella_placed

>  <smiles>  (1504) 
Cn1cc(CN2CCN(c3ccc(Cl)c(C(F)(F)F)c3)CC2)c(F)n1

>  <subsites>  (1504) 
None

>  <rmsd(smina/fragmenstein)>  (1504) 
0.111

>  <alias>  (1504) 
None

>  <energy_score>  (1504) 
-44.89078

>  <HIPPO Pose ID>  (1504) 
131510

>  <distance_score>  (1504) 
0.539367

>  <HIPPO Compound ID>  (1504) 
157552

>  <gnina_score_min>  (1504) 
5.557

>  <name>  (1504) 
P131510

>  <exports>  (1504) 
['/opt/xchem-fragalysis-2/maxwin/BulkDock/OUTPUTS/openbind_d68ev3c_c2_elabs_1LOTQJ3.sdf', '/opt/xchem-fragalysis-2/maxwin/BulkDock/OUTPUTS/openbind_d68ev3c_c2_elabs_1LSYI5W.sdf']

$$$$
P131511
     RDKit          3D

 25 27  0  0  0  0  0  0  0  0999 V2000
  -16.7900   -0.1824    9.4916 C   0  0  0  0  0  0  0  0  0  0  0  0
  -15.4356    0.2480    9.7230 N   0  0  0  0  0  0  0  0  0  0  0  0
  -14.6787    0.9633    8.8480 C   0  0  0  0  0  0  0  0  0  0  0  0
  -13.5764    1.4049    9.5576 C   0  0  0  0  0  0  0  0  0  0  0  0
  -12.5535    2.3679    9.0737 C   0  0  0  0  0  0  0  0  0  0  0  0
  -11.3443    1.7942    8.4975 N   0  0  0  0  0  0  0  0  0  0  0  0
  -11.5209    0.5644    7.7055 C   0  0  0  0  0  0  0  0  0  0  0  0
  -10.2227    0.1730    6.9671 C   0  0  0  0  0  0  0  0  0  0  0  0
   -9.0818    0.1084    7.9006 N   0  0  0  0  0  0  0  0  0  0  0  0
   -7.9686   -0.6027    7.4900 C   0  0  0  0  0  0  0  0  0  0  0  0
   -8.1489   -1.9379    7.1574 C   0  0  0  0  0  0  0  0  0  0  0  0
   -7.0754   -2.7297    6.8060 C   0  0  0  0  0  0  0  0  0  0  0  0
   -7.3784   -4.3746    6.5990 Cl  0  0  0  0  0  0  0  0  0  0  0  0
   -5.7866   -2.2288    6.7430 C   0  0  0  0  0  0  0  0  0  0  0  0
   -5.5597   -0.8986    7.0947 C   0  0  0  0  0  0  0  0  0  0  0  0
   -4.1470   -0.3884    7.1088 C   0  0  0  0  0  0  0  0  0  0  0  0
   -4.0447    0.9512    7.3239 F   0  0  0  0  0  0  0  0  0  0  0  0
   -3.3855   -0.9814    8.0684 F   0  0  0  0  0  0  0  0  0  0  0  0
   -3.5039   -0.6250    5.9300 F   0  0  0  0  0  0  0  0  0  0  0  0
   -6.6577   -0.0972    7.4685 C   0  0  0  0  0  0  0  0  0  0  0  0
   -8.9282    1.2697    8.7710 C   0  0  0  0  0  0  0  0  0  0  0  0
  -10.2605    1.6025    9.4739 C   0  0  0  0  0  0  0  0  0  0  0  0
  -13.7501    0.8271   10.8368 C   0  0  0  0  0  0  0  0  0  0  0  0
  -12.7597    1.0276   12.1950 Cl  0  0  0  0  0  0  0  0  0  0  0  0
  -14.8783    0.1173   10.9369 N   0  0  0  0  0  0  0  0  0  0  0  0
  1  2  1  0
  2  3  1  0
  3  4  2  0
  4  5  1  0
  5  6  1  0
  6  7  1  0
  7  8  1  0
  8  9  1  0
  9 10  1  0
 10 11  2  0
 11 12  1  0
 12 13  1  0
 12 14  2  0
 14 15  1  0
 15 16  1  0
 16 17  1  0
 16 18  1  0
 16 19  1  0
 15 20  2  0
  9 21  1  0
 21 22  1  0
  4 23  1  0
 23 24  1  0
 23 25  2  0
 25  2  1  0
 22  6  1  0
 20 10  1  0
M  END
>  <ref_mols>  (1505) 
B0426a

>  <gnina_score>  (1505) 
5.848

>  <smina_score_min>  (1505) 
-5.796

>  <ref_pdb>  (1505) 
B0426a

>  <inspiration_score>  (1505) 
None

>  <inchikey>  (1505) 
ZACFSVANRLJOIQ-UHFFFAOYSA-N

>  <tags>  (1505) 
BulkDock Fragalysis export,openbind_d68ev3c_c2_elabs_scored,openbind_d68ev3c_c2_elabs_scored_4.5plus,openbind_d68ev3c_c2_elabs,openbind_d68ev3c_c2_elabs_scored_5plus,syndirella_product,openbind_d68ev3c_c2_elabs_scored_top80percent,syndirella_placed

>  <smiles>  (1505) 
Cn1cc(CN2CCN(c3cc(Cl)cc(C(F)(F)F)c3)CC2)c(Cl)n1

>  <subsites>  (1505) 
None

>  <rmsd(smina/fragmenstein)>  (1505) 
0.66

>  <alias>  (1505) 
None

>  <energy_score>  (1505) 
-38.488445

>  <HIPPO Pose ID>  (1505) 
131511

>  <distance_score>  (1505) 
0.552279

>  <HIPPO Compound ID>  (1505) 
157553

>  <gnina_score_min>  (1505) 
5.912

>  <name>  (1505) 
P131511

>  <exports>  (1505) 
['/opt/xchem-fragalysis-2/maxwin/BulkDock/OUTPUTS/openbind_d68ev3c_c2_elabs_1LOTQJ3.sdf', '/opt/xchem-fragalysis-2/maxwin/BulkDock/OUTPUTS/openbind_d68ev3c_c2_elabs_1LSYI5W.sdf']

$$$$
P131512
     RDKit          3D

 25 27  0  0  0  0  0  0  0  0999 V2000
  -16.7084   -0.0995    8.8991 C   0  0  0  0  0  0  0  0  0  0  0  0
  -15.4651    0.3456    9.4763 N   0  0  0  0  0  0  0  0  0  0  0  0
  -14.4720    1.0038    8.8155 C   0  0  0  0  0  0  0  0  0  0  0  0
  -13.5273    1.3388    9.7671 C   0  0  0  0  0  0  0  0  0  0  0  0
  -12.2355    2.0574    9.5741 C   0  0  0  0  0  0  0  0  0  0  0  0
  -11.3418    1.2914    8.6956 N   0  0  0  0  0  0  0  0  0  0  0  0
  -11.0127   -0.0312    9.2832 C   0  0  0  0  0  0  0  0  0  0  0  0
  -10.0705   -0.8332    8.3808 C   0  0  0  0  0  0  0  0  0  0  0  0
   -8.8165   -0.1024    8.1307 N   0  0  0  0  0  0  0  0  0  0  0  0
   -7.8469   -0.8218    7.4182 C   0  0  0  0  0  0  0  0  0  0  0  0
   -8.1352   -1.9595    6.6537 C   0  0  0  0  0  0  0  0  0  0  0  0
   -7.1484   -2.5964    5.9127 C   0  0  0  0  0  0  0  0  0  0  0  0
   -5.8452   -2.1157    5.9388 C   0  0  0  0  0  0  0  0  0  0  0  0
   -4.7512   -2.8370    4.8365 Cl  0  0  0  0  0  0  0  0  0  0  0  0
   -5.4941   -1.0488    6.7671 C   0  0  0  0  0  0  0  0  0  0  0  0
   -4.0780   -0.5904    6.9304 C   0  0  0  0  0  0  0  0  0  0  0  0
   -3.3519   -1.3925    7.7553 F   0  0  0  0  0  0  0  0  0  0  0  0
   -3.9759    0.6640    7.4625 F   0  0  0  0  0  0  0  0  0  0  0  0
   -3.3926   -0.5268    5.7584 F   0  0  0  0  0  0  0  0  0  0  0  0
   -6.5119   -0.4083    7.4915 C   0  0  0  0  0  0  0  0  0  0  0  0
   -9.0508    1.2640    7.6185 C   0  0  0  0  0  0  0  0  0  0  0  0
  -10.0666    2.0249    8.5068 C   0  0  0  0  0  0  0  0  0  0  0  0
  -14.0647    0.8213   10.9696 C   0  0  0  0  0  0  0  0  0  0  0  0
  -13.3716    0.9168   12.5146 Cl  0  0  0  0  0  0  0  0  0  0  0  0
  -15.2403    0.2120   10.7958 N   0  0  0  0  0  0  0  0  0  0  0  0
  1  2  1  0
  2  3  1  0
  3  4  2  0
  4  5  1  0
  5  6  1  0
  6  7  1  0
  7  8  1  0
  8  9  1  0
  9 10  1  0
 10 11  2  0
 11 12  1  0
 12 13  2  0
 13 14  1  0
 13 15  1  0
 15 16  1  0
 16 17  1  0
 16 18  1  0
 16 19  1  0
 15 20  2  0
  9 21  1  0
 21 22  1  0
  4 23  1  0
 23 24  1  0
 23 25  2  0
 25  2  1  0
 22  6  1  0
 20 10  1  0
M  END
>  <ref_mols>  (1506) 
B0426a

>  <gnina_score>  (1506) 
5.731

>  <smina_score_min>  (1506) 
-5.311

>  <ref_pdb>  (1506) 
B0426a

>  <inspiration_score>  (1506) 
None

>  <inchikey>  (1506) 
WNSPXNLLOKKZKG-UHFFFAOYSA-N

>  <tags>  (1506) 
BulkDock Fragalysis export,openbind_d68ev3c_c2_elabs_scored,openbind_d68ev3c_c2_elabs_scored_4.5plus,openbind_d68ev3c_c2_elabs,openbind_d68ev3c_c2_elabs_scored_5plus,syndirella_product,openbind_d68ev3c_c2_elabs_scored_top80percent,syndirella_placed

>  <smiles>  (1506) 
Cn1cc(CN2CCN(c3ccc(Cl)c(C(F)(F)F)c3)CC2)c(Cl)n1

>  <subsites>  (1506) 
None

>  <rmsd(smina/fragmenstein)>  (1506) 
0.142

>  <alias>  (1506) 
None

>  <energy_score>  (1506) 
-41.504192

>  <HIPPO Pose ID>  (1506) 
131512

>  <distance_score>  (1506) 
0.552654

>  <HIPPO Compound ID>  (1506) 
157554

>  <gnina_score_min>  (1506) 
5.779

>  <name>  (1506) 
P131512

>  <exports>  (1506) 
['/opt/xchem-fragalysis-2/maxwin/BulkDock/OUTPUTS/openbind_d68ev3c_c2_elabs_1LOTQJ3.sdf', '/opt/xchem-fragalysis-2/maxwin/BulkDock/OUTPUTS/openbind_d68ev3c_c2_elabs_1LSYI5W.sdf']

$$$$
P131513
     RDKit          3D

 25 27  0  0  0  0  0  0  0  0999 V2000
  -16.7502   -0.0872    9.0538 C   0  0  0  0  0  0  0  0  0  0  0  0
  -15.4690    0.3221    9.5702 N   0  0  0  0  0  0  0  0  0  0  0  0
  -14.5122    1.0038    8.8799 C   0  0  0  0  0  0  0  0  0  0  0  0
  -13.5184    1.3103    9.7907 C   0  0  0  0  0  0  0  0  0  0  0  0
  -12.2369    2.0559    9.5885 C   0  0  2  0  0  0  0  0  0  0  0  0
  -12.5223    3.3141    9.0016 O   0  0  0  0  0  0  0  0  0  0  0  0
  -11.3389    1.3322    8.6894 N   0  0  0  0  0  0  0  0  0  0  0  0
  -11.0779   -0.0452    9.1819 C   0  0  0  0  0  0  0  0  0  0  0  0
  -10.1149   -0.8088    8.2687 C   0  0  0  0  0  0  0  0  0  0  0  0
   -8.8292   -0.1088    8.1237 N   0  0  0  0  0  0  0  0  0  0  0  0
   -7.8494   -0.8168    7.4125 C   0  0  0  0  0  0  0  0  0  0  0  0
   -8.1288   -1.9549    6.6427 C   0  0  0  0  0  0  0  0  0  0  0  0
   -7.1384   -2.5909    5.9059 C   0  0  0  0  0  0  0  0  0  0  0  0
   -5.8367   -2.1099    5.9403 C   0  0  0  0  0  0  0  0  0  0  0  0
   -4.7370   -2.8310    4.8445 Cl  0  0  0  0  0  0  0  0  0  0  0  0
   -5.4917   -1.0453    6.7737 C   0  0  0  0  0  0  0  0  0  0  0  0
   -4.0764   -0.5864    6.9432 C   0  0  0  0  0  0  0  0  0  0  0  0
   -3.9774    0.6668    7.4783 F   0  0  0  0  0  0  0  0  0  0  0  0
   -3.3876   -0.5199    5.7736 F   0  0  0  0  0  0  0  0  0  0  0  0
   -3.3529   -1.3900    7.7687 F   0  0  0  0  0  0  0  0  0  0  0  0
   -6.5136   -0.4075    7.4965 C   0  0  0  0  0  0  0  0  0  0  0  0
   -8.9924    1.3020    7.7200 C   0  0  0  0  0  0  0  0  0  0  0  0
  -10.0216    2.0230    8.6252 C   0  0  0  0  0  0  0  0  0  0  0  0
  -13.9826    0.7372   10.9998 C   0  0  0  0  0  0  0  0  0  0  0  0
  -15.1600    0.1209   10.8651 N   0  0  0  0  0  0  0  0  0  0  0  0
  1  2  1  0
  2  3  1  0
  3  4  2  0
  4  5  1  0
  5  6  1  6
  5  7  1  0
  7  8  1  0
  8  9  1  0
  9 10  1  0
 10 11  1  0
 11 12  2  0
 12 13  1  0
 13 14  2  0
 14 15  1  0
 14 16  1  0
 16 17  1  0
 17 18  1  0
 17 19  1  0
 17 20  1  0
 16 21  2  0
 10 22  1  0
 22 23  1  0
  4 24  1  0
 24 25  2  0
 25  2  1  0
 23  7  1  0
 21 11  1  0
M  END
>  <ref_mols>  (1507) 
B0426a

>  <gnina_score>  (1507) 
5.321

>  <smina_score_min>  (1507) 
-5.717

>  <ref_pdb>  (1507) 
B0426a

>  <inspiration_score>  (1507) 
None

>  <inchikey>  (1507) 
ZUJSNDFVHHENET-HNNXBMFYSA-N

>  <tags>  (1507) 
BulkDock Fragalysis export,openbind_d68ev3c_c2_elabs_scored,openbind_d68ev3c_c2_elabs_scored_4.5plus,openbind_d68ev3c_c2_elabs,openbind_d68ev3c_c2_elabs_scored_5plus,syndirella_product,openbind_d68ev3c_c2_elabs_scored_top80percent,syndirella_placed

>  <smiles>  (1507) 
Cn1cc([C@H](O)N2CCN(c3ccc(Cl)c(C(F)(F)F)c3)CC2)cn1

>  <subsites>  (1507) 
None

>  <rmsd(smina/fragmenstein)>  (1507) 
0.761

>  <alias>  (1507) 
None

>  <energy_score>  (1507) 
-49.297984

>  <HIPPO Pose ID>  (1507) 
131513

>  <distance_score>  (1507) 
0.511227

>  <HIPPO Compound ID>  (1507) 
157555

>  <gnina_score_min>  (1507) 
5.384

>  <name>  (1507) 
P131513

>  <exports>  (1507) 
['/opt/xchem-fragalysis-2/maxwin/BulkDock/OUTPUTS/openbind_d68ev3c_c2_elabs_1LOTQJ3.sdf', '/opt/xchem-fragalysis-2/maxwin/BulkDock/OUTPUTS/openbind_d68ev3c_c2_elabs_1LSYI5W.sdf']

$$$$
P131515
     RDKit          3D

 25 27  0  0  0  0  0  0  0  0999 V2000
  -16.7053   -0.1427    8.8145 C   0  0  0  0  0  0  0  0  0  0  0  0
  -15.4962    0.3659    9.4105 N   0  0  0  0  0  0  0  0  0  0  0  0
  -14.5016    1.0199    8.7509 C   0  0  0  0  0  0  0  0  0  0  0  0
  -13.6168    1.4678    9.7152 C   0  0  0  0  0  0  0  0  0  0  0  0
  -12.3564    2.2393    9.4963 C   0  0  0  0  0  0  0  0  0  0  0  0
  -11.4197    1.4785    8.6571 N   0  0  0  0  0  0  0  0  0  0  0  0
  -11.0589    0.1931    9.2976 C   0  0  0  0  0  0  0  0  0  0  0  0
  -10.0694   -0.6026    8.4491 C   0  0  0  0  0  0  0  0  0  0  0  0
   -8.8316    0.1676    8.1879 N   0  0  0  0  0  0  0  0  0  0  0  0
   -7.7828   -0.5555    7.6078 C   0  0  0  0  0  0  0  0  0  0  0  0
   -7.9589   -1.8602    7.1495 C   0  0  0  0  0  0  0  0  0  0  0  0
   -6.8883   -2.6182    6.7159 C   0  0  0  0  0  0  0  0  0  0  0  0
   -7.1722   -4.2396    6.3573 Cl  0  0  0  0  0  0  0  0  0  0  0  0
   -5.6075   -2.1115    6.6790 C   0  0  0  0  0  0  0  0  0  0  0  0
   -5.3893   -0.8084    7.1171 C   0  0  0  0  0  0  0  0  0  0  0  0
   -3.9810   -0.3060    7.1449 C   0  0  0  0  0  0  0  0  0  0  0  0
   -3.2326   -0.8950    8.1151 F   0  0  0  0  0  0  0  0  0  0  0  0
   -3.3391   -0.5665    5.9721 F   0  0  0  0  0  0  0  0  0  0  0  0
   -3.8744    1.0342    7.3409 F   0  0  0  0  0  0  0  0  0  0  0  0
   -6.4784   -0.0393    7.5695 C   0  0  0  0  0  0  0  0  0  0  0  0
   -9.1007    1.5025    7.6251 C   0  0  0  0  0  0  0  0  0  0  0  0
  -10.1682    2.2516    8.4640 C   0  0  0  0  0  0  0  0  0  0  0  0
  -14.1902    1.0094   10.9283 C   0  0  0  0  0  0  0  0  0  0  0  0
  -13.4465    1.3492   12.8433 I   0  0  0  0  0  0  0  0  0  0  0  0
  -15.3228    0.3247   10.7428 N   0  0  0  0  0  0  0  0  0  0  0  0
  1  2  1  0
  2  3  1  0
  3  4  2  0
  4  5  1  0
  5  6  1  0
  6  7  1  0
  7  8  1  0
  8  9  1  0
  9 10  1  0
 10 11  2  0
 11 12  1  0
 12 13  1  0
 12 14  2  0
 14 15  1  0
 15 16  1  0
 16 17  1  0
 16 18  1  0
 16 19  1  0
 15 20  2  0
  9 21  1  0
 21 22  1  0
  4 23  1  0
 23 24  1  0
 23 25  2  0
 25  2  1  0
 22  6  1  0
 20 10  1  0
M  END
>  <ref_mols>  (1508) 
B0426a

>  <gnina_score>  (1508) 
6.005

>  <smina_score_min>  (1508) 
-5.94

>  <ref_pdb>  (1508) 
B0426a

>  <inspiration_score>  (1508) 
None

>  <inchikey>  (1508) 
XWNXGSWVBVTGHV-UHFFFAOYSA-N

>  <tags>  (1508) 
BulkDock Fragalysis export,openbind_d68ev3c_c2_elabs_scored,openbind_d68ev3c_c2_elabs_scored_4.5plus,openbind_d68ev3c_c2_elabs,openbind_d68ev3c_c2_elabs_scored_5plus,syndirella_product,openbind_d68ev3c_c2_elabs_scored_top80percent,syndirella_placed

>  <smiles>  (1508) 
Cn1cc(CN2CCN(c3cc(Cl)cc(C(F)(F)F)c3)CC2)c(I)n1

>  <subsites>  (1508) 
None

>  <rmsd(smina/fragmenstein)>  (1508) 
0.921

>  <alias>  (1508) 
None

>  <energy_score>  (1508) 
-45.7292

>  <HIPPO Pose ID>  (1508) 
131515

>  <distance_score>  (1508) 
0.640937

>  <HIPPO Compound ID>  (1508) 
157556

>  <gnina_score_min>  (1508) 
5.816

>  <name>  (1508) 
P131515

>  <exports>  (1508) 
['/opt/xchem-fragalysis-2/maxwin/BulkDock/OUTPUTS/openbind_d68ev3c_c2_elabs_1LOTQJ3.sdf', '/opt/xchem-fragalysis-2/maxwin/BulkDock/OUTPUTS/openbind_d68ev3c_c2_elabs_1LSYI5W.sdf']

$$$$
P131516
     RDKit          3D

 25 27  0  0  0  0  0  0  0  0999 V2000
  -13.3629    0.9214   12.3886 C   0  0  0  0  0  0  0  0  0  0  0  0
  -13.9995    0.8395   11.0490 C   0  0  0  0  0  0  0  0  0  0  0  0
  -15.1772    0.2186   10.8994 N   0  0  0  0  0  0  0  0  0  0  0  0
  -15.4495    0.3569    9.5898 N   0  0  0  0  0  0  0  0  0  0  0  0
  -16.7160   -0.0786    9.0597 C   0  0  0  0  0  0  0  0  0  0  0  0
  -14.4797    1.0107    8.8952 C   0  0  0  0  0  0  0  0  0  0  0  0
  -13.5077    1.3520    9.8132 C   0  0  0  0  0  0  0  0  0  0  0  0
  -12.2240    2.0771    9.5748 C   0  0  0  0  0  0  0  0  0  0  0  0
  -11.3378    1.3038    8.6952 N   0  0  0  0  0  0  0  0  0  0  0  0
  -10.0611    2.0316    8.5016 C   0  0  0  0  0  0  0  0  0  0  0  0
   -9.0500    1.2658    7.6132 C   0  0  0  0  0  0  0  0  0  0  0  0
   -8.8172   -0.0995    8.1306 N   0  0  0  0  0  0  0  0  0  0  0  0
   -7.8484   -0.8210    7.4192 C   0  0  0  0  0  0  0  0  0  0  0  0
   -8.1375   -1.9584    6.6548 C   0  0  0  0  0  0  0  0  0  0  0  0
   -7.1510   -2.5958    5.9136 C   0  0  0  0  0  0  0  0  0  0  0  0
   -5.8474   -2.1159    5.9396 C   0  0  0  0  0  0  0  0  0  0  0  0
   -4.7536   -2.8375    4.8371 Cl  0  0  0  0  0  0  0  0  0  0  0  0
   -5.4955   -1.0496    6.7682 C   0  0  0  0  0  0  0  0  0  0  0  0
   -4.0793   -0.5918    6.9316 C   0  0  0  0  0  0  0  0  0  0  0  0
   -3.3540   -1.3944    7.7571 F   0  0  0  0  0  0  0  0  0  0  0  0
   -3.9764    0.6623    7.4643 F   0  0  0  0  0  0  0  0  0  0  0  0
   -3.3929   -0.5286    5.7602 F   0  0  0  0  0  0  0  0  0  0  0  0
   -6.5129   -0.4087    7.4928 C   0  0  0  0  0  0  0  0  0  0  0  0
  -10.0754   -0.8260    8.3769 C   0  0  0  0  0  0  0  0  0  0  0  0
  -11.0176   -0.0218    9.2779 C   0  0  0  0  0  0  0  0  0  0  0  0
  1  2  1  0
  2  3  2  0
  3  4  1  0
  4  5  1  0
  4  6  1  0
  6  7  2  0
  7  8  1  0
  8  9  1  0
  9 10  1  0
 10 11  1  0
 11 12  1  0
 12 13  1  0
 13 14  2  0
 14 15  1  0
 15 16  2  0
 16 17  1  0
 16 18  1  0
 18 19  1  0
 19 20  1  0
 19 21  1  0
 19 22  1  0
 18 23  2  0
 12 24  1  0
 24 25  1  0
  7  2  1  0
 25  9  1  0
 23 13  1  0
M  END
>  <ref_mols>  (1509) 
B0426a

>  <gnina_score>  (1509) 
5.506

>  <smina_score_min>  (1509) 
-5.318

>  <ref_pdb>  (1509) 
B0426a

>  <inspiration_score>  (1509) 
None

>  <inchikey>  (1509) 
YGXXDLNNSQHVJW-UHFFFAOYSA-N

>  <tags>  (1509) 
BulkDock Fragalysis export,openbind_d68ev3c_c2_elabs_scored,openbind_d68ev3c_c2_elabs_scored_4.5plus,openbind_d68ev3c_c2_elabs,openbind_d68ev3c_c2_elabs_scored_5plus,syndirella_product,openbind_d68ev3c_c2_elabs_scored_top80percent,syndirella_placed

>  <smiles>  (1509) 
Cc1nn(C)cc1CN1CCN(c2ccc(Cl)c(C(F)(F)F)c2)CC1

>  <subsites>  (1509) 
None

>  <rmsd(smina/fragmenstein)>  (1509) 
0.122

>  <alias>  (1509) 
None

>  <energy_score>  (1509) 
-44.101849

>  <HIPPO Pose ID>  (1509) 
131516

>  <distance_score>  (1509) 
0.553196

>  <HIPPO Compound ID>  (1509) 
157557

>  <gnina_score_min>  (1509) 
5.549

>  <name>  (1509) 
P131516

>  <exports>  (1509) 
['/opt/xchem-fragalysis-2/maxwin/BulkDock/OUTPUTS/openbind_d68ev3c_c2_elabs_1LOTQJ3.sdf', '/opt/xchem-fragalysis-2/maxwin/BulkDock/OUTPUTS/openbind_d68ev3c_c2_elabs_1LSYI5W.sdf']

$$$$
P131517
     RDKit          3D

 25 27  0  0  0  0  0  0  0  0999 V2000
  -16.7164   -0.0550    8.8629 C   0  0  0  0  0  0  0  0  0  0  0  0
  -15.4427    0.2843    9.4389 N   0  0  0  0  0  0  0  0  0  0  0  0
  -15.1589   -0.0283   10.7222 N   0  0  0  0  0  0  0  0  0  0  0  0
  -13.9338    0.4815   10.8892 C   0  0  0  0  0  0  0  0  0  0  0  0
  -13.4314    1.1283    9.7309 C   0  0  0  0  0  0  0  0  0  0  0  0
  -12.1149    1.8031    9.5978 C   0  0  0  0  0  0  0  0  0  0  0  0
  -11.2490    1.2030    8.5696 N   0  0  0  0  0  0  0  0  0  0  0  0
  -11.1019   -0.2673    8.7230 C   0  0  0  0  0  0  0  0  0  0  0  0
  -10.1159   -0.8710    7.7001 C   0  0  0  0  0  0  0  0  0  0  0  0
   -8.7845   -0.2481    7.8449 N   0  0  0  0  0  0  0  0  0  0  0  0
   -7.7198   -0.8483    7.1614 C   0  0  0  0  0  0  0  0  0  0  0  0
   -7.8840   -1.7363    6.0891 C   0  0  0  0  0  0  0  0  0  0  0  0
   -6.7793   -2.2597    5.4176 C   0  0  0  0  0  0  0  0  0  0  0  0
   -6.9904   -3.1679    3.9726 Cl  0  0  0  0  0  0  0  0  0  0  0  0
   -5.4901   -1.9579    5.8304 C   0  0  0  0  0  0  0  0  0  0  0  0
   -5.2931   -1.0759    6.8952 C   0  0  0  0  0  0  0  0  0  0  0  0
   -3.9061   -0.6691    7.2881 C   0  0  0  0  0  0  0  0  0  0  0  0
   -3.0194   -0.8649    6.2758 F   0  0  0  0  0  0  0  0  0  0  0  0
   -3.8086    0.6516    7.6060 F   0  0  0  0  0  0  0  0  0  0  0  0
   -3.4207   -1.3562    8.3506 F   0  0  0  0  0  0  0  0  0  0  0  0
   -6.4084   -0.5458    7.5574 C   0  0  0  0  0  0  0  0  0  0  0  0
   -8.8558    1.2227    7.6993 C   0  0  0  0  0  0  0  0  0  0  0  0
   -9.8986    1.8154    8.6749 C   0  0  0  0  0  0  0  0  0  0  0  0
  -14.4551    0.9913    8.8258 C   0  0  0  0  0  0  0  0  0  0  0  0
  -14.4851    1.4697    7.5745 F   0  0  0  0  0  0  0  0  0  0  0  0
  1  2  1  0
  2  3  1  0
  3  4  2  0
  4  5  1  0
  5  6  1  0
  6  7  1  0
  7  8  1  0
  8  9  1  0
  9 10  1  0
 10 11  1  0
 11 12  2  0
 12 13  1  0
 13 14  1  0
 13 15  2  0
 15 16  1  0
 16 17  1  0
 17 18  1  0
 17 19  1  0
 17 20  1  0
 16 21  2  0
 10 22  1  0
 22 23  1  0
  5 24  2  0
 24 25  1  0
 24  2  1  0
 23  7  1  0
 21 11  1  0
M  END
>  <ref_mols>  (1510) 
B0426a

>  <gnina_score>  (1510) 
5.619

>  <smina_score_min>  (1510) 
-5.284

>  <ref_pdb>  (1510) 
B0426a

>  <inspiration_score>  (1510) 
None

>  <inchikey>  (1510) 
LQCOLQSQYOSITP-UHFFFAOYSA-N

>  <tags>  (1510) 
BulkDock Fragalysis export,openbind_d68ev3c_c2_elabs_scored,openbind_d68ev3c_c2_elabs_scored_4.5plus,openbind_d68ev3c_c2_elabs,openbind_d68ev3c_c2_elabs_scored_5plus,syndirella_product,openbind_d68ev3c_c2_elabs_scored_top80percent,syndirella_placed

>  <smiles>  (1510) 
Cn1ncc(CN2CCN(c3cc(Cl)cc(C(F)(F)F)c3)CC2)c1F

>  <subsites>  (1510) 
None

>  <rmsd(smina/fragmenstein)>  (1510) 
0.514

>  <alias>  (1510) 
None

>  <energy_score>  (1510) 
-49.668615

>  <HIPPO Pose ID>  (1510) 
131517

>  <distance_score>  (1510) 
0.521599

>  <HIPPO Compound ID>  (1510) 
157558

>  <gnina_score_min>  (1510) 
5.577

>  <name>  (1510) 
P131517

>  <exports>  (1510) 
['/opt/xchem-fragalysis-2/maxwin/BulkDock/OUTPUTS/openbind_d68ev3c_c2_elabs_1LOTQJ3.sdf', '/opt/xchem-fragalysis-2/maxwin/BulkDock/OUTPUTS/openbind_d68ev3c_c2_elabs_1LSYI5W.sdf']

$$$$
P131518
     RDKit          3D

 25 27  0  0  0  0  0  0  0  0999 V2000
  -16.7851   -0.0566    9.0166 C   0  0  0  0  0  0  0  0  0  0  0  0
  -15.5107    0.3462    9.5479 N   0  0  0  0  0  0  0  0  0  0  0  0
  -15.1779    0.0780   10.8295 N   0  0  0  0  0  0  0  0  0  0  0  0
  -13.9828    0.6659   10.9577 C   0  0  0  0  0  0  0  0  0  0  0  0
  -13.5453    1.3102    9.7712 C   0  0  0  0  0  0  0  0  0  0  0  0
  -12.2681    2.0425    9.5610 C   0  0  0  0  0  0  0  0  0  0  0  0
  -11.3574    1.2808    8.6989 N   0  0  0  0  0  0  0  0  0  0  0  0
  -10.0855    2.0203    8.5165 C   0  0  0  0  0  0  0  0  0  0  0  0
   -9.0623    1.2685    7.6275 C   0  0  0  0  0  0  0  0  0  0  0  0
   -8.8248   -0.1005    8.1328 N   0  0  0  0  0  0  0  0  0  0  0  0
   -7.8525   -0.8148    7.4173 C   0  0  0  0  0  0  0  0  0  0  0  0
   -8.1377   -1.9512    6.6490 C   0  0  0  0  0  0  0  0  0  0  0  0
   -7.1488   -2.5875    5.9103 C   0  0  0  0  0  0  0  0  0  0  0  0
   -5.8459   -2.1072    5.9416 C   0  0  0  0  0  0  0  0  0  0  0  0
   -4.7473   -2.8307    4.8454 Cl  0  0  0  0  0  0  0  0  0  0  0  0
   -5.4980   -1.0402    6.7713 C   0  0  0  0  0  0  0  0  0  0  0  0
   -4.0822   -0.5820    6.9377 C   0  0  0  0  0  0  0  0  0  0  0  0
   -3.3577   -1.3851    7.7632 F   0  0  0  0  0  0  0  0  0  0  0  0
   -3.9810    0.6717    7.4715 F   0  0  0  0  0  0  0  0  0  0  0  0
   -3.3945   -0.5173    5.7672 F   0  0  0  0  0  0  0  0  0  0  0  0
   -6.5180   -0.4003    7.4938 C   0  0  0  0  0  0  0  0  0  0  0  0
  -10.0790   -0.8357    8.3683 C   0  0  0  0  0  0  0  0  0  0  0  0
  -11.0298   -0.0456    9.2721 C   0  0  0  0  0  0  0  0  0  0  0  0
  -14.5761    1.0849    8.8922 C   0  0  0  0  0  0  0  0  0  0  0  0
  -14.6576    1.5234    7.6285 F   0  0  0  0  0  0  0  0  0  0  0  0
  1  2  1  0
  2  3  1  0
  3  4  2  0
  4  5  1  0
  5  6  1  0
  6  7  1  0
  7  8  1  0
  8  9  1  0
  9 10  1  0
 10 11  1  0
 11 12  2  0
 12 13  1  0
 13 14  2  0
 14 15  1  0
 14 16  1  0
 16 17  1  0
 17 18  1  0
 17 19  1  0
 17 20  1  0
 16 21  2  0
 10 22  1  0
 22 23  1  0
  5 24  2  0
 24 25  1  0
 24  2  1  0
 23  7  1  0
 21 11  1  0
M  END
>  <ref_mols>  (1511) 
B0426a

>  <gnina_score>  (1511) 
5.492

>  <smina_score_min>  (1511) 
-5.833

>  <ref_pdb>  (1511) 
B0426a

>  <inspiration_score>  (1511) 
None

>  <inchikey>  (1511) 
HOCWVTIXGCWHFM-UHFFFAOYSA-N

>  <tags>  (1511) 
BulkDock Fragalysis export,openbind_d68ev3c_c2_elabs_scored,openbind_d68ev3c_c2_elabs_scored_4.5plus,openbind_d68ev3c_c2_elabs,openbind_d68ev3c_c2_elabs_scored_5plus,syndirella_product,openbind_d68ev3c_c2_elabs_scored_top80percent,syndirella_placed

>  <smiles>  (1511) 
Cn1ncc(CN2CCN(c3ccc(Cl)c(C(F)(F)F)c3)CC2)c1F

>  <subsites>  (1511) 
None

>  <rmsd(smina/fragmenstein)>  (1511) 
0.773

>  <alias>  (1511) 
None

>  <energy_score>  (1511) 
-38.150948

>  <HIPPO Pose ID>  (1511) 
131518

>  <distance_score>  (1511) 
0.539473

>  <HIPPO Compound ID>  (1511) 
157559

>  <gnina_score_min>  (1511) 
5.635

>  <name>  (1511) 
P131518

>  <exports>  (1511) 
['/opt/xchem-fragalysis-2/maxwin/BulkDock/OUTPUTS/openbind_d68ev3c_c2_elabs_1LOTQJ3.sdf', '/opt/xchem-fragalysis-2/maxwin/BulkDock/OUTPUTS/openbind_d68ev3c_c2_elabs_1LSYI5W.sdf']

$$$$
P131519
     RDKit          3D

 25 27  0  0  0  0  0  0  0  0999 V2000
  -16.9113    0.0669    9.1772 C   0  0  0  0  0  0  0  0  0  0  0  0
  -15.5550    0.4204    9.5298 N   0  0  0  0  0  0  0  0  0  0  0  0
  -15.0507   -0.0505   10.6991 N   0  0  0  0  0  0  0  0  0  0  0  0
  -13.8192    0.4475   10.7016 C   0  0  0  0  0  0  0  0  0  0  0  0
  -13.5340    1.2411    9.5657 C   0  0  0  0  0  0  0  0  0  0  0  0
  -12.2441    1.9646    9.3445 C   0  0  0  0  0  0  0  0  0  0  0  0
  -11.2705    1.2884    8.4622 N   0  0  0  0  0  0  0  0  0  0  0  0
  -11.2130   -0.1788    8.6178 C   0  0  0  0  0  0  0  0  0  0  0  0
  -10.1821   -0.8075    7.6529 C   0  0  0  0  0  0  0  0  0  0  0  0
   -8.8238   -0.2424    7.8715 N   0  0  0  0  0  0  0  0  0  0  0  0
   -7.7583   -0.8489    7.1896 C   0  0  0  0  0  0  0  0  0  0  0  0
   -7.9242   -1.7344    6.1149 C   0  0  0  0  0  0  0  0  0  0  0  0
   -6.8212   -2.2532    5.4366 C   0  0  0  0  0  0  0  0  0  0  0  0
   -7.0331   -3.1537    3.9861 Cl  0  0  0  0  0  0  0  0  0  0  0  0
   -5.5300   -1.9516    5.8444 C   0  0  0  0  0  0  0  0  0  0  0  0
   -5.3285   -1.0755    6.9129 C   0  0  0  0  0  0  0  0  0  0  0  0
   -3.9395   -0.6663    7.2954 C   0  0  0  0  0  0  0  0  0  0  0  0
   -3.4367   -1.3618    8.3455 F   0  0  0  0  0  0  0  0  0  0  0  0
   -3.8375    0.6517    7.6235 F   0  0  0  0  0  0  0  0  0  0  0  0
   -3.0593   -0.8510    6.2725 F   0  0  0  0  0  0  0  0  0  0  0  0
   -6.4430   -0.5532    7.5843 C   0  0  0  0  0  0  0  0  0  0  0  0
   -8.8462    1.2379    7.7677 C   0  0  0  0  0  0  0  0  0  0  0  0
   -9.9249    1.8476    8.6899 C   0  0  0  0  0  0  0  0  0  0  0  0
  -14.7079    1.2597    8.8070 C   0  0  0  0  0  0  0  0  0  0  0  0
  -15.0956    1.7959    7.7812 O   0  0  0  0  0  0  0  0  0  0  0  0
  1  2  1  0
  2  3  1  0
  3  4  2  0
  4  5  1  0
  5  6  1  0
  6  7  1  0
  7  8  1  0
  8  9  1  0
  9 10  1  0
 10 11  1  0
 11 12  2  0
 12 13  1  0
 13 14  1  0
 13 15  2  0
 15 16  1  0
 16 17  1  0
 17 18  1  0
 17 19  1  0
 17 20  1  0
 16 21  2  0
 10 22  1  0
 22 23  1  0
  5 24  2  0
 24 25  1  0
 24  2  1  0
 23  7  1  0
 21 11  1  0
M  CHG  1  25  -1
M  END
>  <ref_mols>  (1512) 
B0426a

>  <gnina_score>  (1512) 
5.631

>  <smina_score_min>  (1512) 
-5.302

>  <ref_pdb>  (1512) 
B0426a

>  <inspiration_score>  (1512) 
None

>  <inchikey>  (1512) 
NOTRERZKPRJMGF-UHFFFAOYSA-M

>  <tags>  (1512) 
BulkDock Fragalysis export,openbind_d68ev3c_c2_elabs_scored,openbind_d68ev3c_c2_elabs_scored_4.5plus,openbind_d68ev3c_c2_elabs,openbind_d68ev3c_c2_elabs_scored_5plus,syndirella_product,openbind_d68ev3c_c2_elabs_scored_top80percent,syndirella_placed

>  <smiles>  (1512) 
Cn1ncc(CN2CCN(c3cc(Cl)cc(C(F)(F)F)c3)CC2)c1[O-]

>  <subsites>  (1512) 
None

>  <rmsd(smina/fragmenstein)>  (1512) 
0.461

>  <alias>  (1512) 
None

>  <energy_score>  (1512) 
-57.401099

>  <HIPPO Pose ID>  (1512) 
131519

>  <distance_score>  (1512) 
0.509185

>  <HIPPO Compound ID>  (1512) 
157560

>  <gnina_score_min>  (1512) 
5.634

>  <name>  (1512) 
P131519

>  <exports>  (1512) 
['/opt/xchem-fragalysis-2/maxwin/BulkDock/OUTPUTS/openbind_d68ev3c_c2_elabs_1LOTQJ3.sdf', '/opt/xchem-fragalysis-2/maxwin/BulkDock/OUTPUTS/openbind_d68ev3c_c2_elabs_1LSYI5W.sdf']

$$$$
P131520
     RDKit          3D

 25 27  0  0  0  0  0  0  0  0999 V2000
  -16.8376   -0.0133   10.0713 C   0  0  0  0  0  0  0  0  0  0  0  0
  -15.4600    0.4177   10.0230 N   0  0  0  0  0  0  0  0  0  0  0  0
  -14.6611    0.1461   11.0835 N   0  0  0  0  0  0  0  0  0  0  0  0
  -13.5222    0.7504   10.7545 C   0  0  0  0  0  0  0  0  0  0  0  0
  -13.5829    1.3999    9.5022 C   0  0  0  0  0  0  0  0  0  0  0  0
  -12.5181    2.2139    8.8412 C   0  0  0  0  0  0  0  0  0  0  0  0
  -11.3169    1.4865    8.4057 N   0  0  0  0  0  0  0  0  0  0  0  0
  -11.6162    0.1749    7.8088 C   0  0  0  0  0  0  0  0  0  0  0  0
  -10.3674   -0.4503    7.1589 C   0  0  0  0  0  0  0  0  0  0  0  0
   -9.1682   -0.4681    8.0560 N   0  0  0  0  0  0  0  0  0  0  0  0
   -8.0415   -1.0770    7.4791 C   0  0  0  0  0  0  0  0  0  0  0  0
   -8.1784   -2.2879    6.7862 C   0  0  0  0  0  0  0  0  0  0  0  0
   -7.1271   -2.8379    6.0620 C   0  0  0  0  0  0  0  0  0  0  0  0
   -5.8882   -2.2117    6.0566 C   0  0  0  0  0  0  0  0  0  0  0  0
   -4.7278   -2.8102    4.9467 Cl  0  0  0  0  0  0  0  0  0  0  0  0
   -5.6499   -1.1026    6.8663 C   0  0  0  0  0  0  0  0  0  0  0  0
   -4.2732   -0.5239    7.0270 C   0  0  0  0  0  0  0  0  0  0  0  0
   -3.5881   -0.3828    5.8577 F   0  0  0  0  0  0  0  0  0  0  0  0
   -3.4759   -1.2793    7.8345 F   0  0  0  0  0  0  0  0  0  0  0  0
   -4.2663    0.7237    7.5825 F   0  0  0  0  0  0  0  0  0  0  0  0
   -6.7414   -0.5472    7.5672 C   0  0  0  0  0  0  0  0  0  0  0  0
   -8.9834    0.7994    8.7965 C   0  0  0  0  0  0  0  0  0  0  0  0
  -10.2929    1.3126    9.4345 C   0  0  0  0  0  0  0  0  0  0  0  0
  -14.8813    1.1908    9.0226 C   0  0  0  0  0  0  0  0  0  0  0  0
  -15.5288    1.5253    8.0427 O   0  0  0  0  0  0  0  0  0  0  0  0
  1  2  1  0
  2  3  1  0
  3  4  2  0
  4  5  1  0
  5  6  1  0
  6  7  1  0
  7  8  1  0
  8  9  1  0
  9 10  1  0
 10 11  1  0
 11 12  2  0
 12 13  1  0
 13 14  2  0
 14 15  1  0
 14 16  1  0
 16 17  1  0
 17 18  1  0
 17 19  1  0
 17 20  1  0
 16 21  2  0
 10 22  1  0
 22 23  1  0
  5 24  2  0
 24 25  1  0
 24  2  1  0
 23  7  1  0
 21 11  1  0
M  CHG  1  25  -1
M  END
>  <ref_mols>  (1513) 
B0426a

>  <gnina_score>  (1513) 
5.521

>  <smina_score_min>  (1513) 
-6.055

>  <ref_pdb>  (1513) 
B0426a

>  <inspiration_score>  (1513) 
None

>  <inchikey>  (1513) 
ZBCSBODCRXQWAP-UHFFFAOYSA-M

>  <tags>  (1513) 
BulkDock Fragalysis export,openbind_d68ev3c_c2_elabs_scored,openbind_d68ev3c_c2_elabs_scored_4.5plus,openbind_d68ev3c_c2_elabs,openbind_d68ev3c_c2_elabs_scored_5plus,syndirella_product,openbind_d68ev3c_c2_elabs_scored_top80percent,syndirella_placed

>  <smiles>  (1513) 
Cn1ncc(CN2CCN(c3ccc(Cl)c(C(F)(F)F)c3)CC2)c1[O-]

>  <subsites>  (1513) 
None

>  <rmsd(smina/fragmenstein)>  (1513) 
0.442

>  <alias>  (1513) 
None

>  <energy_score>  (1513) 
-64.637237

>  <HIPPO Pose ID>  (1513) 
131520

>  <distance_score>  (1513) 
0.479657

>  <HIPPO Compound ID>  (1513) 
157561

>  <gnina_score_min>  (1513) 
5.601

>  <name>  (1513) 
P131520

>  <exports>  (1513) 
['/opt/xchem-fragalysis-2/maxwin/BulkDock/OUTPUTS/openbind_d68ev3c_c2_elabs_1LOTQJ3.sdf', '/opt/xchem-fragalysis-2/maxwin/BulkDock/OUTPUTS/openbind_d68ev3c_c2_elabs_1LSYI5W.sdf']

$$$$
P131521
     RDKit          3D

 25 27  0  0  0  0  0  0  0  0999 V2000
  -12.6817    1.0121   12.0430 C   0  0  0  0  0  0  0  0  0  0  0  0
  -13.6265    0.8715   10.9093 C   0  0  0  0  0  0  0  0  0  0  0  0
  -14.7441    0.1500   11.0776 N   0  0  0  0  0  0  0  0  0  0  0  0
  -15.3883    0.2756    9.9090 N   0  0  0  0  0  0  0  0  0  0  0  0
  -16.7496   -0.1710    9.7798 C   0  0  0  0  0  0  0  0  0  0  0  0
  -14.7002    0.9869    8.9796 C   0  0  0  0  0  0  0  0  0  0  0  0
  -13.5537    1.4383    9.6049 C   0  0  0  0  0  0  0  0  0  0  0  0
  -12.5665    2.3918    9.0266 C   0  0  0  0  0  0  0  0  0  0  0  0
  -11.3645    1.8053    8.4468 N   0  0  0  0  0  0  0  0  0  0  0  0
  -10.2386    1.7083    9.3862 C   0  0  0  0  0  0  0  0  0  0  0  0
   -8.9298    1.3512    8.6513 C   0  0  0  0  0  0  0  0  0  0  0  0
   -9.0894    0.1201    7.8825 N   0  0  0  0  0  0  0  0  0  0  0  0
   -7.9775   -0.5998    7.4801 C   0  0  0  0  0  0  0  0  0  0  0  0
   -8.1534   -1.9416    7.1707 C   0  0  0  0  0  0  0  0  0  0  0  0
   -7.0818   -2.7354    6.8164 C   0  0  0  0  0  0  0  0  0  0  0  0
   -7.3882   -4.3810    6.6173 Cl  0  0  0  0  0  0  0  0  0  0  0  0
   -5.7939   -2.2345    6.7418 C   0  0  0  0  0  0  0  0  0  0  0  0
   -5.5670   -0.9013    7.0808 C   0  0  0  0  0  0  0  0  0  0  0  0
   -4.1542   -0.3909    7.0914 C   0  0  0  0  0  0  0  0  0  0  0  0
   -3.3912   -0.9830    8.0507 F   0  0  0  0  0  0  0  0  0  0  0  0
   -3.5123   -0.6282    5.9122 F   0  0  0  0  0  0  0  0  0  0  0  0
   -4.0513    0.9488    7.3064 F   0  0  0  0  0  0  0  0  0  0  0  0
   -6.6655   -0.0956    7.4461 C   0  0  0  0  0  0  0  0  0  0  0  0
  -10.2704    0.0999    6.9926 C   0  0  0  0  0  0  0  0  0  0  0  0
  -11.5467    0.5180    7.7535 C   0  0  0  0  0  0  0  0  0  0  0  0
  1  2  1  0
  2  3  2  0
  3  4  1  0
  4  5  1  0
  4  6  1  0
  6  7  2  0
  7  8  1  0
  8  9  1  0
  9 10  1  0
 10 11  1  0
 11 12  1  0
 12 13  1  0
 13 14  2  0
 14 15  1  0
 15 16  1  0
 15 17  2  0
 17 18  1  0
 18 19  1  0
 19 20  1  0
 19 21  1  0
 19 22  1  0
 18 23  2  0
 12 24  1  0
 24 25  1  0
  7  2  1  0
 25  9  1  0
 23 13  1  0
M  END
>  <ref_mols>  (1514) 
B0426a

>  <gnina_score>  (1514) 
5.693

>  <smina_score_min>  (1514) 
-5.768

>  <ref_pdb>  (1514) 
B0426a

>  <inspiration_score>  (1514) 
None

>  <inchikey>  (1514) 
QRQSSKWQRHOJJN-UHFFFAOYSA-N

>  <tags>  (1514) 
BulkDock Fragalysis export,openbind_d68ev3c_c2_elabs_scored,openbind_d68ev3c_c2_elabs_scored_4.5plus,openbind_d68ev3c_c2_elabs,openbind_d68ev3c_c2_elabs_scored_5plus,syndirella_product,openbind_d68ev3c_c2_elabs_scored_top80percent,syndirella_placed

>  <smiles>  (1514) 
Cc1nn(C)cc1CN1CCN(c2cc(Cl)cc(C(F)(F)F)c2)CC1

>  <subsites>  (1514) 
None

>  <rmsd(smina/fragmenstein)>  (1514) 
0.472

>  <alias>  (1514) 
None

>  <energy_score>  (1514) 
-36.561567

>  <HIPPO Pose ID>  (1514) 
131521

>  <distance_score>  (1514) 
0.550907

>  <HIPPO Compound ID>  (1514) 
157562

>  <gnina_score_min>  (1514) 
5.726

>  <name>  (1514) 
P131521

>  <exports>  (1514) 
['/opt/xchem-fragalysis-2/maxwin/BulkDock/OUTPUTS/openbind_d68ev3c_c2_elabs_1LOTQJ3.sdf', '/opt/xchem-fragalysis-2/maxwin/BulkDock/OUTPUTS/openbind_d68ev3c_c2_elabs_1LSYI5W.sdf']

$$$$
P131522
     RDKit          3D

 25 27  0  0  0  0  0  0  0  0999 V2000
  -16.6769   -0.0768    8.7988 C   0  0  0  0  0  0  0  0  0  0  0  0
  -15.4247    0.2834    9.4140 N   0  0  0  0  0  0  0  0  0  0  0  0
  -14.3944    0.9390    8.8076 C   0  0  0  0  0  0  0  0  0  0  0  0
  -13.4267    1.1206    9.7743 C   0  0  0  0  0  0  0  0  0  0  0  0
  -12.0879    1.7665    9.6767 C   0  0  0  0  0  0  0  0  0  0  0  0
  -11.2459    1.1957    8.6100 N   0  0  0  0  0  0  0  0  0  0  0  0
   -9.8881    1.7919    8.7191 C   0  0  0  0  0  0  0  0  0  0  0  0
   -8.8584    1.2114    7.7219 C   0  0  0  0  0  0  0  0  0  0  0  0
   -8.8006   -0.2637    7.8304 N   0  0  0  0  0  0  0  0  0  0  0  0
   -7.7424   -0.8676    7.1448 C   0  0  0  0  0  0  0  0  0  0  0  0
   -7.9189   -1.7695    6.0849 C   0  0  0  0  0  0  0  0  0  0  0  0
   -6.8255   -2.3114    5.3993 C   0  0  0  0  0  0  0  0  0  0  0  0
   -7.0287   -3.0892    4.2120 C   0  0  0  0  0  0  0  0  0  0  0  0
   -7.1718   -3.6815    3.2221 N   0  0  0  0  0  0  0  0  0  0  0  0
   -5.5291   -2.0004    5.8036 C   0  0  0  0  0  0  0  0  0  0  0  0
   -5.3192   -1.1056    6.8587 C   0  0  0  0  0  0  0  0  0  0  0  0
   -3.9275   -0.6953    7.2419 C   0  0  0  0  0  0  0  0  0  0  0  0
   -3.8315    0.6206    7.5779 F   0  0  0  0  0  0  0  0  0  0  0  0
   -3.0552   -0.8731    6.2138 F   0  0  0  0  0  0  0  0  0  0  0  0
   -3.4257   -1.3970    8.2872 F   0  0  0  0  0  0  0  0  0  0  0  0
   -6.4271   -0.5656    7.5249 C   0  0  0  0  0  0  0  0  0  0  0  0
  -10.1397   -0.8708    7.6902 C   0  0  0  0  0  0  0  0  0  0  0  0
  -11.1084   -0.2793    8.7347 C   0  0  0  0  0  0  0  0  0  0  0  0
  -13.9979    0.5477   10.9357 C   0  0  0  0  0  0  0  0  0  0  0  0
  -15.2135    0.0395   10.7216 N   0  0  0  0  0  0  0  0  0  0  0  0
  1  2  1  0
  2  3  1  0
  3  4  2  0
  4  5  1  0
  5  6  1  0
  6  7  1  0
  7  8  1  0
  8  9  1  0
  9 10  1  0
 10 11  2  0
 11 12  1  0
 12 13  1  0
 13 14  3  0
 12 15  2  0
 15 16  1  0
 16 17  1  0
 17 18  1  0
 17 19  1  0
 17 20  1  0
 16 21  2  0
  9 22  1  0
 22 23  1  0
  4 24  1  0
 24 25  2  0
 25  2  1  0
 23  6  1  0
 21 10  1  0
M  END
>  <ref_mols>  (1515) 
B0426a

>  <gnina_score>  (1515) 
5.525

>  <smina_score_min>  (1515) 
-5.331

>  <ref_pdb>  (1515) 
B0426a

>  <inspiration_score>  (1515) 
None

>  <inchikey>  (1515) 
UDGKPRSTOMZHAP-UHFFFAOYSA-N

>  <tags>  (1515) 
BulkDock Fragalysis export,openbind_d68ev3c_c2_elabs_scored,openbind_d68ev3c_c2_elabs_scored_4.5plus,openbind_d68ev3c_c2_elabs,openbind_d68ev3c_c2_elabs_scored_5plus,syndirella_product,openbind_d68ev3c_c2_elabs_scored_top80percent,syndirella_placed

>  <smiles>  (1515) 
Cn1cc(CN2CCN(c3cc(C#N)cc(C(F)(F)F)c3)CC2)cn1

>  <subsites>  (1515) 
None

>  <rmsd(smina/fragmenstein)>  (1515) 
0.467

>  <alias>  (1515) 
None

>  <energy_score>  (1515) 
-39.859926

>  <HIPPO Pose ID>  (1515) 
131522

>  <distance_score>  (1515) 
0.521849

>  <HIPPO Compound ID>  (1515) 
157564

>  <gnina_score_min>  (1515) 
5.532

>  <name>  (1515) 
P131522

>  <exports>  (1515) 
['/opt/xchem-fragalysis-2/maxwin/BulkDock/OUTPUTS/openbind_d68ev3c_c2_elabs_1LOTQJ3.sdf', '/opt/xchem-fragalysis-2/maxwin/BulkDock/OUTPUTS/openbind_d68ev3c_c2_elabs_1LSYI5W.sdf']

$$$$
P131523
     RDKit          3D

 26 28  0  0  0  0  0  0  0  0999 V2000
  -12.5155    2.0328    9.2663 C   0  0  0  0  0  0  0  0  0  0  0  0
  -11.3762    1.4781    8.5428 N   0  0  0  0  0  0  0  0  0  0  0  0
  -11.5949    0.0431    8.2639 C   0  0  0  0  0  0  0  0  0  0  0  0
  -10.4111   -0.5867    7.5026 C   0  0  0  0  0  0  0  0  0  0  0  0
   -9.1259   -0.4127    8.2382 N   0  0  0  0  0  0  0  0  0  0  0  0
   -8.0387   -1.1146    7.6869 C   0  0  0  0  0  0  0  0  0  0  0  0
   -8.2111   -2.4106    7.1891 C   0  0  0  0  0  0  0  0  0  0  0  0
   -7.2314   -3.0251    6.4212 C   0  0  0  0  0  0  0  0  0  0  0  0
   -6.0273   -2.3694    6.1568 C   0  0  0  0  0  0  0  0  0  0  0  0
   -5.3773   -2.7106    4.9414 N   0  0  0  0  0  0  0  0  0  0  0  0
   -6.1886   -2.1716    3.8183 C   0  0  0  0  0  0  0  0  0  0  0  0
   -6.5752   -3.1327    2.7567 C   0  0  0  0  0  0  0  0  0  0  0  0
   -5.9849   -4.3250    2.3868 C   0  0  0  0  0  0  0  0  0  0  0  0
   -6.6128   -4.7155    1.2432 N   0  0  0  0  0  0  0  0  0  0  0  0
   -6.2101   -5.7729    0.3522 C   0  0  0  0  0  0  0  0  0  0  0  0
   -7.6996   -3.9808    0.9521 N   0  0  0  0  0  0  0  0  0  0  0  0
   -7.6365   -2.9909    1.8419 C   0  0  0  0  0  0  0  0  0  0  0  0
   -8.4936   -1.9622    1.8518 F   0  0  0  0  0  0  0  0  0  0  0  0
   -5.7057   -1.2183    6.8839 C   0  0  0  0  0  0  0  0  0  0  0  0
   -4.3161   -0.6421    6.9107 C   0  0  0  0  0  0  0  0  0  0  0  0
   -4.2820    0.7019    7.1475 F   0  0  0  0  0  0  0  0  0  0  0  0
   -3.6308   -0.8134    5.7391 F   0  0  0  0  0  0  0  0  0  0  0  0
   -3.5304   -1.1999    7.8747 F   0  0  0  0  0  0  0  0  0  0  0  0
   -6.7307   -0.5998    7.6298 C   0  0  0  0  0  0  0  0  0  0  0  0
   -8.9078    0.9951    8.6325 C   0  0  0  0  0  0  0  0  0  0  0  0
  -10.1393    1.6004    9.3418 C   0  0  0  0  0  0  0  0  0  0  0  0
  1  2  1  0
  2  3  1  0
  3  4  1  0
  4  5  1  0
  5  6  1  0
  6  7  2  0
  7  8  1  0
  8  9  2  0
  9 10  1  0
 10 11  1  0
 11 12  1  0
 12 13  2  0
 13 14  1  0
 14 15  1  0
 14 16  1  0
 16 17  2  0
 17 18  1  0
  9 19  1  0
 19 20  1  0
 20 21  1  0
 20 22  1  0
 20 23  1  0
 19 24  2  0
  5 25  1  0
 25 26  1  0
 26  2  1  0
 24  6  1  0
 17 12  1  0
M  END
>  <ref_mols>  (1516) 
B0426a

>  <gnina_score>  (1516) 
5.321

>  <smina_score_min>  (1516) 
-5.906

>  <ref_pdb>  (1516) 
B0426a

>  <inspiration_score>  (1516) 
None

>  <inchikey>  (1516) 
OCVBMKLTVOSNOC-UHFFFAOYSA-N

>  <tags>  (1516) 
BulkDock Fragalysis export,openbind_d68ev3c_c2_elabs_scored,openbind_d68ev3c_c2_elabs_scored_4.5plus,openbind_d68ev3c_c2_elabs,openbind_d68ev3c_c2_elabs_scored_5plus,syndirella_product,openbind_d68ev3c_c2_elabs_scored_top80percent,syndirella_placed

>  <smiles>  (1516) 
CN1CCN(c2ccc(NCc3cn(C)nc3F)c(C(F)(F)F)c2)CC1

>  <subsites>  (1516) 
None

>  <rmsd(smina/fragmenstein)>  (1516) 
0.759

>  <alias>  (1516) 
None

>  <energy_score>  (1516) 
-32.740299

>  <HIPPO Pose ID>  (1516) 
131523

>  <distance_score>  (1516) 
0.575111

>  <HIPPO Compound ID>  (1516) 
157565

>  <gnina_score_min>  (1516) 
5.417

>  <name>  (1516) 
P131523

>  <exports>  (1516) 
['/opt/xchem-fragalysis-2/maxwin/BulkDock/OUTPUTS/openbind_d68ev3c_c2_elabs_1LOTQJ3.sdf', '/opt/xchem-fragalysis-2/maxwin/BulkDock/OUTPUTS/openbind_d68ev3c_c2_elabs_1LSYI5W.sdf']

$$$$
P131525
     RDKit          3D

 26 28  0  0  0  0  0  0  0  0999 V2000
  -12.4750    2.0463    9.2809 C   0  0  0  0  0  0  0  0  0  0  0  0
  -11.3509    1.4828    8.5400 N   0  0  0  0  0  0  0  0  0  0  0  0
  -11.5736    0.0436    8.2883 C   0  0  0  0  0  0  0  0  0  0  0  0
  -10.4077   -0.5922    7.5056 C   0  0  0  0  0  0  0  0  0  0  0  0
   -9.1041   -0.4069    8.2052 N   0  0  0  0  0  0  0  0  0  0  0  0
   -8.0295   -1.1200    7.6469 C   0  0  0  0  0  0  0  0  0  0  0  0
   -8.2149   -2.4151    7.1545 C   0  0  0  0  0  0  0  0  0  0  0  0
   -7.2422   -3.0442    6.3888 C   0  0  0  0  0  0  0  0  0  0  0  0
   -6.0286   -2.4092    6.1168 C   0  0  0  0  0  0  0  0  0  0  0  0
   -5.3629   -2.8056    4.9343 N   0  0  0  0  0  0  0  0  0  0  0  0
   -6.1161   -2.3556    3.7621 C   0  0  1  0  0  0  0  0  0  0  0  0
   -5.3210   -1.3210    3.2020 O   0  0  0  0  0  0  0  0  0  0  0  0
   -6.4759   -3.3781    2.7323 C   0  0  0  0  0  0  0  0  0  0  0  0
   -5.9041   -4.6510    2.5110 C   0  0  0  0  0  0  0  0  0  0  0  0
   -6.5276   -5.3476    1.5523 N   0  0  0  0  0  0  0  0  0  0  0  0
   -7.4230   -4.4682    1.0656 N   0  0  0  0  0  0  0  0  0  0  0  0
   -8.2490   -4.8393   -0.0578 C   0  0  0  0  0  0  0  0  0  0  0  0
   -7.4667   -3.3005    1.7677 C   0  0  0  0  0  0  0  0  0  0  0  0
   -5.6960   -1.2579    6.8392 C   0  0  0  0  0  0  0  0  0  0  0  0
   -4.2993   -0.6959    6.8833 C   0  0  0  0  0  0  0  0  0  0  0  0
   -3.5247   -1.2678    7.8467 F   0  0  0  0  0  0  0  0  0  0  0  0
   -3.6137   -0.8542    5.7133 F   0  0  0  0  0  0  0  0  0  0  0  0
   -4.2606    0.6460    7.1344 F   0  0  0  0  0  0  0  0  0  0  0  0
   -6.7161   -0.6219    7.5817 C   0  0  0  0  0  0  0  0  0  0  0  0
   -8.8793    1.0053    8.5813 C   0  0  0  0  0  0  0  0  0  0  0  0
  -10.0968    1.6176    9.3100 C   0  0  0  0  0  0  0  0  0  0  0  0
  1  2  1  0
  2  3  1  0
  3  4  1  0
  4  5  1  0
  5  6  1  0
  6  7  2  0
  7  8  1  0
  8  9  2  0
  9 10  1  0
 10 11  1  0
 11 12  1  6
 11 13  1  0
 13 14  1  0
 14 15  2  0
 15 16  1  0
 16 17  1  0
 16 18  1  0
  9 19  1  0
 19 20  1  0
 20 21  1  0
 20 22  1  0
 20 23  1  0
 19 24  2  0
  5 25  1  0
 25 26  1  0
 26  2  1  0
 24  6  1  0
 18 13  2  0
M  END
>  <ref_mols>  (1517) 
B0426a

>  <gnina_score>  (1517) 
5.314

>  <smina_score_min>  (1517) 
-5.94

>  <ref_pdb>  (1517) 
B0426a

>  <inspiration_score>  (1517) 
None

>  <inchikey>  (1517) 
SEORNGBONNBHFC-INIZCTEOSA-N

>  <tags>  (1517) 
BulkDock Fragalysis export,openbind_d68ev3c_c2_elabs_scored,openbind_d68ev3c_c2_elabs_scored_4.5plus,openbind_d68ev3c_c2_elabs,openbind_d68ev3c_c2_elabs_scored_5plus,syndirella_product,openbind_d68ev3c_c2_elabs_scored_top80percent,syndirella_placed

>  <smiles>  (1517) 
CN1CCN(c2ccc(N[C@@H](O)c3cnn(C)c3)c(C(F)(F)F)c2)CC1

>  <subsites>  (1517) 
None

>  <rmsd(smina/fragmenstein)>  (1517) 
0.521

>  <alias>  (1517) 
None

>  <energy_score>  (1517) 
-39.492938

>  <HIPPO Pose ID>  (1517) 
131525

>  <distance_score>  (1517) 
0.452827

>  <HIPPO Compound ID>  (1517) 
157566

>  <gnina_score_min>  (1517) 
5.377

>  <name>  (1517) 
P131525

>  <exports>  (1517) 
['/opt/xchem-fragalysis-2/maxwin/BulkDock/OUTPUTS/openbind_d68ev3c_c2_elabs_1LOTQJ3.sdf', '/opt/xchem-fragalysis-2/maxwin/BulkDock/OUTPUTS/openbind_d68ev3c_c2_elabs_1LSYI5W.sdf']

$$$$
P131526
     RDKit          3D

 26 28  0  0  0  0  0  0  0  0999 V2000
  -16.6975   -0.0915    8.8773 C   0  0  0  0  0  0  0  0  0  0  0  0
  -15.4198    0.2581    9.4447 N   0  0  0  0  0  0  0  0  0  0  0  0
  -14.4126    0.9162    8.8031 C   0  0  0  0  0  0  0  0  0  0  0  0
  -13.4217    1.1235    9.7440 C   0  0  0  0  0  0  0  0  0  0  0  0
  -12.1006    1.8086    9.6187 C   0  0  2  0  0  0  0  0  0  0  0  0
  -12.3179    3.1663    9.2751 O   0  0  0  0  0  0  0  0  0  0  0  0
  -11.2438    1.2245    8.5826 N   0  0  0  0  0  0  0  0  0  0  0  0
  -11.1279   -0.2539    8.7078 C   0  0  0  0  0  0  0  0  0  0  0  0
  -10.1488   -0.8553    7.6773 C   0  0  0  0  0  0  0  0  0  0  0  0
   -8.8031   -0.2716    7.8426 N   0  0  0  0  0  0  0  0  0  0  0  0
   -7.7446   -0.8792    7.1580 C   0  0  0  0  0  0  0  0  0  0  0  0
   -7.9223   -1.7788    6.0961 C   0  0  0  0  0  0  0  0  0  0  0  0
   -6.8299   -2.3174    5.4058 C   0  0  0  0  0  0  0  0  0  0  0  0
   -7.0355   -3.0900    4.2155 C   0  0  0  0  0  0  0  0  0  0  0  0
   -7.1818   -3.6775    3.2233 N   0  0  0  0  0  0  0  0  0  0  0  0
   -5.5326   -2.0063    5.8071 C   0  0  0  0  0  0  0  0  0  0  0  0
   -5.3209   -1.1159    6.8652 C   0  0  0  0  0  0  0  0  0  0  0  0
   -3.9285   -0.7021    7.2437 C   0  0  0  0  0  0  0  0  0  0  0  0
   -3.0600   -0.8737    6.2114 F   0  0  0  0  0  0  0  0  0  0  0  0
   -3.4202   -1.4053    8.2848 F   0  0  0  0  0  0  0  0  0  0  0  0
   -3.8359    0.6131    7.5832 F   0  0  0  0  0  0  0  0  0  0  0  0
   -6.4278   -0.5811    7.5376 C   0  0  0  0  0  0  0  0  0  0  0  0
   -8.8333    1.2053    7.7560 C   0  0  0  0  0  0  0  0  0  0  0  0
   -9.8717    1.7885    8.7401 C   0  0  0  0  0  0  0  0  0  0  0  0
  -13.9519    0.5457   10.9227 C   0  0  0  0  0  0  0  0  0  0  0  0
  -15.1598    0.0068   10.7416 N   0  0  0  0  0  0  0  0  0  0  0  0
  1  2  1  0
  2  3  1  0
  3  4  2  0
  4  5  1  0
  5  6  1  6
  5  7  1  0
  7  8  1  0
  8  9  1  0
  9 10  1  0
 10 11  1  0
 11 12  2  0
 12 13  1  0
 13 14  1  0
 14 15  3  0
 13 16  2  0
 16 17  1  0
 17 18  1  0
 18 19  1  0
 18 20  1  0
 18 21  1  0
 17 22  2  0
 10 23  1  0
 23 24  1  0
  4 25  1  0
 25 26  2  0
 26  2  1  0
 24  7  1  0
 22 11  1  0
M  END
>  <ref_mols>  (1518) 
B0426a

>  <gnina_score>  (1518) 
5.429

>  <smina_score_min>  (1518) 
-5.426

>  <ref_pdb>  (1518) 
B0426a

>  <inspiration_score>  (1518) 
None

>  <inchikey>  (1518) 
MLWJMJXRKTWFOZ-INIZCTEOSA-N

>  <tags>  (1518) 
BulkDock Fragalysis export,openbind_d68ev3c_c2_elabs_scored,openbind_d68ev3c_c2_elabs_scored_4.5plus,openbind_d68ev3c_c2_elabs,openbind_d68ev3c_c2_elabs_scored_5plus,syndirella_product,openbind_d68ev3c_c2_elabs_scored_top80percent,syndirella_placed

>  <smiles>  (1518) 
Cn1cc([C@H](O)N2CCN(c3cc(C#N)cc(C(F)(F)F)c3)CC2)cn1

>  <subsites>  (1518) 
None

>  <rmsd(smina/fragmenstein)>  (1518) 
0.534

>  <alias>  (1518) 
None

>  <energy_score>  (1518) 
-41.780477

>  <HIPPO Pose ID>  (1518) 
131526

>  <distance_score>  (1518) 
0.500689

>  <HIPPO Compound ID>  (1518) 
157567

>  <gnina_score_min>  (1518) 
5.247

>  <name>  (1518) 
P131526

>  <exports>  (1518) 
['/opt/xchem-fragalysis-2/maxwin/BulkDock/OUTPUTS/openbind_d68ev3c_c2_elabs_1LOTQJ3.sdf', '/opt/xchem-fragalysis-2/maxwin/BulkDock/OUTPUTS/openbind_d68ev3c_c2_elabs_1LSYI5W.sdf']

$$$$
P131528
     RDKit          3D

 26 28  0  0  0  0  0  0  0  0999 V2000
  -15.1395    2.6260    6.8667 C   0  0  0  0  0  0  0  0  0  0  0  0
  -14.5567    1.2686    7.2283 C   0  0  0  0  0  0  0  0  0  0  0  0
  -14.5581    1.0411    8.7056 C   0  0  0  0  0  0  0  0  0  0  0  0
  -13.6407    1.4125    9.6772 C   0  0  0  0  0  0  0  0  0  0  0  0
  -12.3671    2.1813    9.5352 C   0  0  0  0  0  0  0  0  0  0  0  0
  -11.4076    1.4661    8.6870 N   0  0  0  0  0  0  0  0  0  0  0  0
  -10.1452    2.2300    8.5719 C   0  0  0  0  0  0  0  0  0  0  0  0
   -9.0726    1.5186    7.7069 C   0  0  0  0  0  0  0  0  0  0  0  0
   -8.8286    0.1496    8.1933 N   0  0  0  0  0  0  0  0  0  0  0  0
   -7.7727   -0.5577    7.6066 C   0  0  0  0  0  0  0  0  0  0  0  0
   -7.9400   -1.8573    7.1281 C   0  0  0  0  0  0  0  0  0  0  0  0
   -6.8640   -2.6075    6.6949 C   0  0  0  0  0  0  0  0  0  0  0  0
   -7.1360   -4.2249    6.3126 Cl  0  0  0  0  0  0  0  0  0  0  0  0
   -5.5853   -2.0974    6.6741 C   0  0  0  0  0  0  0  0  0  0  0  0
   -5.3754   -0.7989    7.1275 C   0  0  0  0  0  0  0  0  0  0  0  0
   -3.9694   -0.2936    7.1646 C   0  0  0  0  0  0  0  0  0  0  0  0
   -3.2255   -0.8809    8.1391 F   0  0  0  0  0  0  0  0  0  0  0  0
   -3.3207   -0.5554    5.9957 F   0  0  0  0  0  0  0  0  0  0  0  0
   -3.8658    1.0469    7.3588 F   0  0  0  0  0  0  0  0  0  0  0  0
   -6.4693   -0.0385    7.5832 C   0  0  0  0  0  0  0  0  0  0  0  0
  -10.0808   -0.6202    8.3858 C   0  0  0  0  0  0  0  0  0  0  0  0
  -11.0890    0.1357    9.2480 C   0  0  0  0  0  0  0  0  0  0  0  0
  -14.1629    0.8683   10.8742 C   0  0  0  0  0  0  0  0  0  0  0  0
  -15.3189    0.2293   10.6938 N   0  0  0  0  0  0  0  0  0  0  0  0
  -15.5419    0.3513    9.3686 N   0  0  0  0  0  0  0  0  0  0  0  0
  -16.7748   -0.1456    8.8076 C   0  0  0  0  0  0  0  0  0  0  0  0
  1  2  1  0
  2  3  1  0
  3  4  2  0
  4  5  1  0
  5  6  1  0
  6  7  1  0
  7  8  1  0
  8  9  1  0
  9 10  1  0
 10 11  2  0
 11 12  1  0
 12 13  1  0
 12 14  2  0
 14 15  1  0
 15 16  1  0
 16 17  1  0
 16 18  1  0
 16 19  1  0
 15 20  2  0
  9 21  1  0
 21 22  1  0
  4 23  1  0
 23 24  2  0
 24 25  1  0
 25 26  1  0
 25  3  1  0
 22  6  1  0
 20 10  1  0
M  END
>  <ref_mols>  (1519) 
B0426a

>  <gnina_score>  (1519) 
5.767

>  <smina_score_min>  (1519) 
-5.844

>  <ref_pdb>  (1519) 
B0426a

>  <inspiration_score>  (1519) 
None

>  <inchikey>  (1519) 
NSCGDCAUSLEHBZ-UHFFFAOYSA-N

>  <tags>  (1519) 
BulkDock Fragalysis export,openbind_d68ev3c_c2_elabs_scored,openbind_d68ev3c_c2_elabs_scored_4.5plus,openbind_d68ev3c_c2_elabs,openbind_d68ev3c_c2_elabs_scored_5plus,syndirella_product,openbind_d68ev3c_c2_elabs_scored_top80percent,syndirella_placed

>  <smiles>  (1519) 
CCc1c(CN2CCN(c3cc(Cl)cc(C(F)(F)F)c3)CC2)cnn1C

>  <subsites>  (1519) 
None

>  <rmsd(smina/fragmenstein)>  (1519) 
1.369

>  <alias>  (1519) 
None

>  <energy_score>  (1519) 
-34.870172

>  <HIPPO Pose ID>  (1519) 
131528

>  <distance_score>  (1519) 
0.612572

>  <HIPPO Compound ID>  (1519) 
157568

>  <gnina_score_min>  (1519) 
5.815

>  <name>  (1519) 
P131528

>  <exports>  (1519) 
['/opt/xchem-fragalysis-2/maxwin/BulkDock/OUTPUTS/openbind_d68ev3c_c2_elabs_1LOTQJ3.sdf', '/opt/xchem-fragalysis-2/maxwin/BulkDock/OUTPUTS/openbind_d68ev3c_c2_elabs_1LSYI5W.sdf']

$$$$
P131529
     RDKit          3D

 26 28  0  0  0  0  0  0  0  0999 V2000
  -14.9922    2.6123    6.9310 C   0  0  0  0  0  0  0  0  0  0  0  0
  -14.4672    1.2286    7.2811 C   0  0  0  0  0  0  0  0  0  0  0  0
  -14.4810    0.9891    8.7564 C   0  0  0  0  0  0  0  0  0  0  0  0
  -13.5515    1.3147    9.7333 C   0  0  0  0  0  0  0  0  0  0  0  0
  -12.2457    2.0296    9.6037 C   0  0  0  0  0  0  0  0  0  0  0  0
  -11.3249    1.3002    8.7260 N   0  0  0  0  0  0  0  0  0  0  0  0
  -11.0453   -0.0606    9.2406 C   0  0  0  0  0  0  0  0  0  0  0  0
  -10.0926   -0.8260    8.3190 C   0  0  0  0  0  0  0  0  0  0  0  0
   -8.8163   -0.1089    8.1390 N   0  0  0  0  0  0  0  0  0  0  0  0
   -7.8456   -0.8147    7.4139 C   0  0  0  0  0  0  0  0  0  0  0  0
   -8.1345   -1.9421    6.6328 C   0  0  0  0  0  0  0  0  0  0  0  0
   -7.1483   -2.5781    5.8908 C   0  0  0  0  0  0  0  0  0  0  0  0
   -5.8430   -2.1063    5.9296 C   0  0  0  0  0  0  0  0  0  0  0  0
   -4.7461   -2.8321    4.8333 Cl  0  0  0  0  0  0  0  0  0  0  0  0
   -5.4913   -1.0475    6.7682 C   0  0  0  0  0  0  0  0  0  0  0  0
   -4.0746   -0.5949    6.9387 C   0  0  0  0  0  0  0  0  0  0  0  0
   -3.3547   -1.4012    7.7652 F   0  0  0  0  0  0  0  0  0  0  0  0
   -3.3834   -0.5324    5.7699 F   0  0  0  0  0  0  0  0  0  0  0  0
   -3.9690    0.6583    7.4731 F   0  0  0  0  0  0  0  0  0  0  0  0
   -6.5087   -0.4097    7.4965 C   0  0  0  0  0  0  0  0  0  0  0  0
   -9.0145    1.2897    7.7029 C   0  0  0  0  0  0  0  0  0  0  0  0
  -10.0363    2.0179    8.6125 C   0  0  0  0  0  0  0  0  0  0  0  0
  -14.1022    0.7892   10.9254 C   0  0  0  0  0  0  0  0  0  0  0  0
  -15.2819    0.1978   10.7369 N   0  0  0  0  0  0  0  0  0  0  0  0
  -15.4934    0.3336    9.4113 N   0  0  0  0  0  0  0  0  0  0  0  0
  -16.7394   -0.1194    8.8419 C   0  0  0  0  0  0  0  0  0  0  0  0
  1  2  1  0
  2  3  1  0
  3  4  2  0
  4  5  1  0
  5  6  1  0
  6  7  1  0
  7  8  1  0
  8  9  1  0
  9 10  1  0
 10 11  2  0
 11 12  1  0
 12 13  2  0
 13 14  1  0
 13 15  1  0
 15 16  1  0
 16 17  1  0
 16 18  1  0
 16 19  1  0
 15 20  2  0
  9 21  1  0
 21 22  1  0
  4 23  1  0
 23 24  2  0
 24 25  1  0
 25 26  1  0
 25  3  1  0
 22  6  1  0
 20 10  1  0
M  END
>  <ref_mols>  (1520) 
B0426a

>  <gnina_score>  (1520) 
5.684

>  <smina_score_min>  (1520) 
-6.034

>  <ref_pdb>  (1520) 
B0426a

>  <inspiration_score>  (1520) 
None

>  <inchikey>  (1520) 
ZBRYZWKWXWFQBG-UHFFFAOYSA-N

>  <tags>  (1520) 
BulkDock Fragalysis export,openbind_d68ev3c_c2_elabs_scored,openbind_d68ev3c_c2_elabs_scored_4.5plus,openbind_d68ev3c_c2_elabs,openbind_d68ev3c_c2_elabs_scored_5plus,syndirella_product,openbind_d68ev3c_c2_elabs_scored_top80percent,syndirella_placed

>  <smiles>  (1520) 
CCc1c(CN2CCN(c3ccc(Cl)c(C(F)(F)F)c3)CC2)cnn1C

>  <subsites>  (1520) 
None

>  <rmsd(smina/fragmenstein)>  (1520) 
1.205

>  <alias>  (1520) 
None

>  <energy_score>  (1520) 
-59.942974

>  <HIPPO Pose ID>  (1520) 
131529

>  <distance_score>  (1520) 
0.538356

>  <HIPPO Compound ID>  (1520) 
157569

>  <gnina_score_min>  (1520) 
5.872

>  <name>  (1520) 
P131529

>  <exports>  (1520) 
['/opt/xchem-fragalysis-2/maxwin/BulkDock/OUTPUTS/openbind_d68ev3c_c2_elabs_1LOTQJ3.sdf', '/opt/xchem-fragalysis-2/maxwin/BulkDock/OUTPUTS/openbind_d68ev3c_c2_elabs_1LSYI5W.sdf']

$$$$
P131530
     RDKit          3D

 26 28  0  0  0  0  0  0  0  0999 V2000
  -16.7836   -0.0916    9.0428 C   0  0  0  0  0  0  0  0  0  0  0  0
  -15.4927    0.3276    9.5292 N   0  0  0  0  0  0  0  0  0  0  0  0
  -15.1931    0.1648   10.8356 N   0  0  0  0  0  0  0  0  0  0  0  0
  -14.0154    0.7793   10.9586 C   0  0  0  0  0  0  0  0  0  0  0  0
  -13.5323    1.3149    9.7368 C   0  0  0  0  0  0  0  0  0  0  0  0
  -12.2370    2.0481    9.5726 C   0  0  2  0  0  0  0  0  0  0  0  0
  -12.4845    3.3311    9.0236 O   0  0  0  0  0  0  0  0  0  0  0  0
  -11.3217    1.3275    8.6915 N   0  0  0  0  0  0  0  0  0  0  0  0
  -11.0668   -0.0487    9.1850 C   0  0  0  0  0  0  0  0  0  0  0  0
  -10.1065   -0.8116    8.2697 C   0  0  0  0  0  0  0  0  0  0  0  0
   -8.8185   -0.1142    8.1279 N   0  0  0  0  0  0  0  0  0  0  0  0
   -7.8412   -0.8218    7.4131 C   0  0  0  0  0  0  0  0  0  0  0  0
   -8.1240   -1.9571    6.6405 C   0  0  0  0  0  0  0  0  0  0  0  0
   -7.1359   -2.5929    5.9008 C   0  0  0  0  0  0  0  0  0  0  0  0
   -5.8334   -2.1140    5.9347 C   0  0  0  0  0  0  0  0  0  0  0  0
   -4.7371   -2.8347    4.8353 Cl  0  0  0  0  0  0  0  0  0  0  0  0
   -5.4853   -1.0519    6.7701 C   0  0  0  0  0  0  0  0  0  0  0  0
   -4.0697   -0.5945    6.9386 C   0  0  0  0  0  0  0  0  0  0  0  0
   -3.3817   -0.5296    5.7684 F   0  0  0  0  0  0  0  0  0  0  0  0
   -3.9684    0.6589    7.4729 F   0  0  0  0  0  0  0  0  0  0  0  0
   -3.3464   -1.3986    7.7638 F   0  0  0  0  0  0  0  0  0  0  0  0
   -6.5049   -0.4149    7.4964 C   0  0  0  0  0  0  0  0  0  0  0  0
   -8.9790    1.2988    7.7279 C   0  0  0  0  0  0  0  0  0  0  0  0
  -10.0085    2.0202    8.6321 C   0  0  0  0  0  0  0  0  0  0  0  0
  -14.5163    0.9761    8.8254 C   0  0  0  0  0  0  0  0  0  0  0  0
  -14.5227    1.3826    6.7759 I   0  0  0  0  0  0  0  0  0  0  0  0
  1  2  1  0
  2  3  1  0
  3  4  2  0
  4  5  1  0
  5  6  1  0
  6  7  1  6
  6  8  1  0
  8  9  1  0
  9 10  1  0
 10 11  1  0
 11 12  1  0
 12 13  2  0
 13 14  1  0
 14 15  2  0
 15 16  1  0
 15 17  1  0
 17 18  1  0
 18 19  1  0
 18 20  1  0
 18 21  1  0
 17 22  2  0
 11 23  1  0
 23 24  1  0
  5 25  2  0
 25 26  1  0
 25  2  1  0
 24  8  1  0
 22 12  1  0
M  END
>  <ref_mols>  (1521) 
B0426a

>  <gnina_score>  (1521) 
5.613

>  <smina_score_min>  (1521) 
-5.877

>  <ref_pdb>  (1521) 
B0426a

>  <inspiration_score>  (1521) 
None

>  <inchikey>  (1521) 
OTSZXQXRIFGAEU-HNNXBMFYSA-N

>  <tags>  (1521) 
BulkDock Fragalysis export,openbind_d68ev3c_c2_elabs_scored,openbind_d68ev3c_c2_elabs_scored_4.5plus,openbind_d68ev3c_c2_elabs,openbind_d68ev3c_c2_elabs_scored_5plus,syndirella_product,openbind_d68ev3c_c2_elabs_scored_top80percent,syndirella_placed

>  <smiles>  (1521) 
Cn1ncc([C@H](O)N2CCN(c3ccc(Cl)c(C(F)(F)F)c3)CC2)c1I

>  <subsites>  (1521) 
None

>  <rmsd(smina/fragmenstein)>  (1521) 
0.665

>  <alias>  (1521) 
None

>  <energy_score>  (1521) 
-56.505943

>  <HIPPO Pose ID>  (1521) 
131530

>  <distance_score>  (1521) 
0.511513

>  <HIPPO Compound ID>  (1521) 
157570

>  <gnina_score_min>  (1521) 
5.681

>  <name>  (1521) 
P131530

>  <exports>  (1521) 
['/opt/xchem-fragalysis-2/maxwin/BulkDock/OUTPUTS/openbind_d68ev3c_c2_elabs_1LOTQJ3.sdf', '/opt/xchem-fragalysis-2/maxwin/BulkDock/OUTPUTS/openbind_d68ev3c_c2_elabs_1LSYI5W.sdf']

$$$$
P131532
     RDKit          3D

 26 28  0  0  0  0  0  0  0  0999 V2000
  -16.8207   -0.1124    9.0318 C   0  0  0  0  0  0  0  0  0  0  0  0
  -15.5388    0.3484    9.5040 N   0  0  0  0  0  0  0  0  0  0  0  0
  -15.2239    0.2063   10.8094 N   0  0  0  0  0  0  0  0  0  0  0  0
  -14.0709    0.8683   10.9197 C   0  0  0  0  0  0  0  0  0  0  0  0
  -13.6188    1.4154    9.6906 C   0  0  0  0  0  0  0  0  0  0  0  0
  -12.3564    2.2012    9.5100 C   0  0  2  0  0  0  0  0  0  0  0  0
  -12.6548    3.4555    8.9213 O   0  0  0  0  0  0  0  0  0  0  0  0
  -11.4058    1.4931    8.6562 N   0  0  0  0  0  0  0  0  0  0  0  0
  -10.1230    2.2398    8.5803 C   0  0  0  0  0  0  0  0  0  0  0  0
   -9.0467    1.5321    7.7194 C   0  0  0  0  0  0  0  0  0  0  0  0
   -8.8286    0.1517    8.1821 N   0  0  0  0  0  0  0  0  0  0  0  0
   -7.7693   -0.5581    7.6045 C   0  0  0  0  0  0  0  0  0  0  0  0
   -7.9358   -1.8593    7.1304 C   0  0  0  0  0  0  0  0  0  0  0  0
   -6.8604   -2.6114    6.6984 C   0  0  0  0  0  0  0  0  0  0  0  0
   -7.1369   -4.2278    6.3163 Cl  0  0  0  0  0  0  0  0  0  0  0  0
   -5.5815   -2.1028    6.6769 C   0  0  0  0  0  0  0  0  0  0  0  0
   -5.3711   -0.8039    7.1288 C   0  0  0  0  0  0  0  0  0  0  0  0
   -3.9646   -0.2987    7.1650 C   0  0  0  0  0  0  0  0  0  0  0  0
   -3.2206   -0.8859    8.1391 F   0  0  0  0  0  0  0  0  0  0  0  0
   -3.3176   -0.5605    5.9954 F   0  0  0  0  0  0  0  0  0  0  0  0
   -3.8618    1.0417    7.3590 F   0  0  0  0  0  0  0  0  0  0  0  0
   -6.4649   -0.0415    7.5824 C   0  0  0  0  0  0  0  0  0  0  0  0
  -10.0873   -0.6060    8.3521 C   0  0  0  0  0  0  0  0  0  0  0  0
  -11.1010    0.1518    9.2059 C   0  0  0  0  0  0  0  0  0  0  0  0
  -14.5912    1.0250    8.7877 C   0  0  0  0  0  0  0  0  0  0  0  0
  -14.6212    1.4037    6.7330 I   0  0  0  0  0  0  0  0  0  0  0  0
  1  2  1  0
  2  3  1  0
  3  4  2  0
  4  5  1  0
  5  6  1  0
  6  7  1  6
  6  8  1  0
  8  9  1  0
  9 10  1  0
 10 11  1  0
 11 12  1  0
 12 13  2  0
 13 14  1  0
 14 15  1  0
 14 16  2  0
 16 17  1  0
 17 18  1  0
 18 19  1  0
 18 20  1  0
 18 21  1  0
 17 22  2  0
 11 23  1  0
 23 24  1  0
  5 25  2  0
 25 26  1  0
 25  2  1  0
 24  8  1  0
 22 12  1  0
M  END
>  <ref_mols>  (1522) 
B0426a

>  <gnina_score>  (1522) 
5.683

>  <smina_score_min>  (1522) 
-6.112

>  <ref_pdb>  (1522) 
B0426a

>  <inspiration_score>  (1522) 
None

>  <inchikey>  (1522) 
AJWLHEBJDWQGQV-HNNXBMFYSA-N

>  <tags>  (1522) 
BulkDock Fragalysis export,openbind_d68ev3c_c2_elabs_scored,openbind_d68ev3c_c2_elabs_scored_4.5plus,openbind_d68ev3c_c2_elabs,openbind_d68ev3c_c2_elabs_scored_5plus,syndirella_product,openbind_d68ev3c_c2_elabs_scored_top80percent,syndirella_placed

>  <smiles>  (1522) 
Cn1ncc([C@H](O)N2CCN(c3cc(Cl)cc(C(F)(F)F)c3)CC2)c1I

>  <subsites>  (1522) 
None

>  <rmsd(smina/fragmenstein)>  (1522) 
1.122

>  <alias>  (1522) 
None

>  <energy_score>  (1522) 
-43.72789

>  <HIPPO Pose ID>  (1522) 
131532

>  <distance_score>  (1522) 
0.59443

>  <HIPPO Compound ID>  (1522) 
157571

>  <gnina_score_min>  (1522) 
5.752

>  <name>  (1522) 
P131532

>  <exports>  (1522) 
['/opt/xchem-fragalysis-2/maxwin/BulkDock/OUTPUTS/openbind_d68ev3c_c2_elabs_1LOTQJ3.sdf', '/opt/xchem-fragalysis-2/maxwin/BulkDock/OUTPUTS/openbind_d68ev3c_c2_elabs_1LSYI5W.sdf']

$$$$
P131535
     RDKit          3D

 26 28  0  0  0  0  0  0  0  0999 V2000
  -15.3608    0.9495    7.8152 C   0  0  0  0  0  0  0  0  0  0  0  0
  -14.6955    0.8808    9.1423 C   0  0  0  0  0  0  0  0  0  0  0  0
  -13.4685    1.3592    9.5863 C   0  0  0  0  0  0  0  0  0  0  0  0
  -12.4687    2.1719    8.8285 C   0  0  1  0  0  0  0  0  0  0  0  0
  -12.1262    3.3544    9.5429 O   0  0  0  0  0  0  0  0  0  0  0  0
  -11.2821    1.4511    8.4040 N   0  0  0  0  0  0  0  0  0  0  0  0
  -11.5593    0.1286    7.8203 C   0  0  0  0  0  0  0  0  0  0  0  0
  -10.3124   -0.4833    7.1588 C   0  0  0  0  0  0  0  0  0  0  0  0
   -9.1254   -0.4955    8.0596 N   0  0  0  0  0  0  0  0  0  0  0  0
   -7.9992   -1.1100    7.4847 C   0  0  0  0  0  0  0  0  0  0  0  0
   -8.1377   -2.3278    6.8044 C   0  0  0  0  0  0  0  0  0  0  0  0
   -7.0920   -2.8740    6.0707 C   0  0  0  0  0  0  0  0  0  0  0  0
   -5.8580   -2.2387    6.0461 C   0  0  0  0  0  0  0  0  0  0  0  0
   -4.7153   -2.8261    4.9141 Cl  0  0  0  0  0  0  0  0  0  0  0  0
   -5.6155   -1.1277    6.8510 C   0  0  0  0  0  0  0  0  0  0  0  0
   -4.2406   -0.5410    6.9991 C   0  0  0  0  0  0  0  0  0  0  0  0
   -3.5686   -0.3995    5.8236 F   0  0  0  0  0  0  0  0  0  0  0  0
   -4.2404    0.7085    7.5505 F   0  0  0  0  0  0  0  0  0  0  0  0
   -3.4348   -1.2886    7.8038 F   0  0  0  0  0  0  0  0  0  0  0  0
   -6.7013   -0.5748    7.5603 C   0  0  0  0  0  0  0  0  0  0  0  0
   -8.9294    0.7839    8.7757 C   0  0  0  0  0  0  0  0  0  0  0  0
  -10.2325    1.3040    9.4184 C   0  0  0  0  0  0  0  0  0  0  0  0
  -13.4049    0.9442   10.9361 C   0  0  0  0  0  0  0  0  0  0  0  0
  -14.5054    0.3033   11.3311 N   0  0  0  0  0  0  0  0  0  0  0  0
  -15.2770    0.2907   10.2324 N   0  0  0  0  0  0  0  0  0  0  0  0
  -16.6308   -0.1890   10.3428 C   0  0  0  0  0  0  0  0  0  0  0  0
  1  2  1  0
  2  3  2  0
  3  4  1  0
  4  5  1  1
  4  6  1  0
  6  7  1  0
  7  8  1  0
  8  9  1  0
  9 10  1  0
 10 11  2  0
 11 12  1  0
 12 13  2  0
 13 14  1  0
 13 15  1  0
 15 16  1  0
 16 17  1  0
 16 18  1  0
 16 19  1  0
 15 20  2  0
  9 21  1  0
 21 22  1  0
  3 23  1  0
 23 24  2  0
 24 25  1  0
 25 26  1  0
 25  2  1  0
 22  6  1  0
 20 10  1  0
M  END
>  <ref_mols>  (1523) 
B0426a

>  <gnina_score>  (1523) 
5.532

>  <smina_score_min>  (1523) 
-6.248

>  <ref_pdb>  (1523) 
B0426a

>  <inspiration_score>  (1523) 
None

>  <inchikey>  (1523) 
UKPGHNDABRYBHA-MRXNPFEDSA-N

>  <tags>  (1523) 
BulkDock Fragalysis export,openbind_d68ev3c_c2_elabs_scored,openbind_d68ev3c_c2_elabs_scored_4.5plus,openbind_d68ev3c_c2_elabs,openbind_d68ev3c_c2_elabs_scored_5plus,syndirella_product,openbind_d68ev3c_c2_elabs_scored_top80percent,syndirella_placed

>  <smiles>  (1523) 
Cc1c([C@@H](O)N2CCN(c3ccc(Cl)c(C(F)(F)F)c3)CC2)cnn1C

>  <subsites>  (1523) 
None

>  <rmsd(smina/fragmenstein)>  (1523) 
0.465

>  <alias>  (1523) 
None

>  <energy_score>  (1523) 
-38.543726

>  <HIPPO Pose ID>  (1523) 
131535

>  <distance_score>  (1523) 
0.46912

>  <HIPPO Compound ID>  (1523) 
157572

>  <gnina_score_min>  (1523) 
5.634

>  <name>  (1523) 
P131535

>  <exports>  (1523) 
['/opt/xchem-fragalysis-2/maxwin/BulkDock/OUTPUTS/openbind_d68ev3c_c2_elabs_1LOTQJ3.sdf', '/opt/xchem-fragalysis-2/maxwin/BulkDock/OUTPUTS/openbind_d68ev3c_c2_elabs_1LSYI5W.sdf']

$$$$
P131536
     RDKit          3D

 26 28  0  0  0  0  0  0  0  0999 V2000
  -14.4244    1.1811    7.2646 C   0  0  0  0  0  0  0  0  0  0  0  0
  -14.4025    0.8838    8.7195 C   0  0  0  0  0  0  0  0  0  0  0  0
  -13.4419    1.1188    9.6941 C   0  0  0  0  0  0  0  0  0  0  0  0
  -12.1031    1.7830    9.6156 C   0  0  2  0  0  0  0  0  0  0  0  0
  -12.2857    3.1587    9.3229 O   0  0  0  0  0  0  0  0  0  0  0  0
  -11.2296    1.2160    8.5852 N   0  0  0  0  0  0  0  0  0  0  0  0
  -11.1246   -0.2655    8.6864 C   0  0  0  0  0  0  0  0  0  0  0  0
  -10.1327   -0.8569    7.6616 C   0  0  0  0  0  0  0  0  0  0  0  0
   -8.7871   -0.2765    7.8543 N   0  0  0  0  0  0  0  0  0  0  0  0
   -7.7221   -0.8726    7.1679 C   0  0  0  0  0  0  0  0  0  0  0  0
   -7.8871   -1.7533    6.0895 C   0  0  0  0  0  0  0  0  0  0  0  0
   -6.7833   -2.2696    5.4105 C   0  0  0  0  0  0  0  0  0  0  0  0
   -6.9969   -3.1674    3.9588 Cl  0  0  0  0  0  0  0  0  0  0  0  0
   -5.4931   -1.9680    5.8206 C   0  0  0  0  0  0  0  0  0  0  0  0
   -5.2942   -1.0959    6.8929 C   0  0  0  0  0  0  0  0  0  0  0  0
   -3.9075   -0.6847    7.2827 C   0  0  0  0  0  0  0  0  0  0  0  0
   -3.0246   -0.8690    6.2645 F   0  0  0  0  0  0  0  0  0  0  0  0
   -3.4129   -1.3766    8.3378 F   0  0  0  0  0  0  0  0  0  0  0  0
   -3.8144    0.6344    7.6087 F   0  0  0  0  0  0  0  0  0  0  0  0
   -6.4088   -0.5768    7.5650 C   0  0  0  0  0  0  0  0  0  0  0  0
   -8.8170    1.2010    7.7841 C   0  0  0  0  0  0  0  0  0  0  0  0
   -9.8604    1.7718    8.7687 C   0  0  0  0  0  0  0  0  0  0  0  0
  -14.0155    0.5892   10.8752 C   0  0  0  0  0  0  0  0  0  0  0  0
  -15.2226    0.0596   10.6790 N   0  0  0  0  0  0  0  0  0  0  0  0
  -15.4397    0.2567    9.3638 N   0  0  0  0  0  0  0  0  0  0  0  0
  -16.7076   -0.1205    8.7870 C   0  0  0  0  0  0  0  0  0  0  0  0
  1  2  1  0
  2  3  2  0
  3  4  1  0
  4  5  1  6
  4  6  1  0
  6  7  1  0
  7  8  1  0
  8  9  1  0
  9 10  1  0
 10 11  2  0
 11 12  1  0
 12 13  1  0
 12 14  2  0
 14 15  1  0
 15 16  1  0
 16 17  1  0
 16 18  1  0
 16 19  1  0
 15 20  2  0
  9 21  1  0
 21 22  1  0
  3 23  1  0
 23 24  2  0
 24 25  1  0
 25 26  1  0
 25  2  1  0
 22  6  1  0
 20 10  1  0
M  END
>  <ref_mols>  (1524) 
B0426a

>  <gnina_score>  (1524) 
5.61

>  <smina_score_min>  (1524) 
-5.339

>  <ref_pdb>  (1524) 
B0426a

>  <inspiration_score>  (1524) 
None

>  <inchikey>  (1524) 
KZDOAIQRLCPACT-INIZCTEOSA-N

>  <tags>  (1524) 
BulkDock Fragalysis export,openbind_d68ev3c_c2_elabs_scored,openbind_d68ev3c_c2_elabs_scored_4.5plus,openbind_d68ev3c_c2_elabs,openbind_d68ev3c_c2_elabs_scored_5plus,syndirella_product,openbind_d68ev3c_c2_elabs_scored_top80percent,syndirella_placed

>  <smiles>  (1524) 
Cc1c([C@H](O)N2CCN(c3cc(Cl)cc(C(F)(F)F)c3)CC2)cnn1C

>  <subsites>  (1524) 
None

>  <rmsd(smina/fragmenstein)>  (1524) 
0.472

>  <alias>  (1524) 
None

>  <energy_score>  (1524) 
-48.556168

>  <HIPPO Pose ID>  (1524) 
131536

>  <distance_score>  (1524) 
0.514011

>  <HIPPO Compound ID>  (1524) 
157573

>  <gnina_score_min>  (1524) 
5.526

>  <name>  (1524) 
P131536

>  <exports>  (1524) 
['/opt/xchem-fragalysis-2/maxwin/BulkDock/OUTPUTS/openbind_d68ev3c_c2_elabs_1LOTQJ3.sdf', '/opt/xchem-fragalysis-2/maxwin/BulkDock/OUTPUTS/openbind_d68ev3c_c2_elabs_1LSYI5W.sdf']

$$$$
P131538
     RDKit          3D

 26 28  0  0  0  0  0  0  0  0999 V2000
  -16.6754   -0.0894    8.6774 C   0  0  0  0  0  0  0  0  0  0  0  0
  -15.4421    0.2741    9.3294 N   0  0  0  0  0  0  0  0  0  0  0  0
  -14.3958    0.9345    8.7526 C   0  0  0  0  0  0  0  0  0  0  0  0
  -13.4478    1.0975    9.7439 C   0  0  0  0  0  0  0  0  0  0  0  0
  -12.1019    1.7262    9.6919 C   0  0  0  0  0  0  0  0  0  0  0  0
  -11.2542    1.1782    8.6159 N   0  0  0  0  0  0  0  0  0  0  0  0
  -11.1151   -0.2988    8.7209 C   0  0  0  0  0  0  0  0  0  0  0  0
  -10.1427   -0.8763    7.6732 C   0  0  0  0  0  0  0  0  0  0  0  0
   -8.8046   -0.2718    7.8267 N   0  0  0  0  0  0  0  0  0  0  0  0
   -7.7429   -0.8696    7.1414 C   0  0  0  0  0  0  0  0  0  0  0  0
   -7.9153   -1.7712    6.0803 C   0  0  0  0  0  0  0  0  0  0  0  0
   -6.8202   -2.3116    5.3964 C   0  0  0  0  0  0  0  0  0  0  0  0
   -7.0209   -3.0908    4.2095 C   0  0  0  0  0  0  0  0  0  0  0  0
   -7.1635   -3.6844    3.2204 N   0  0  0  0  0  0  0  0  0  0  0  0
   -5.5251   -1.9987    5.8028 C   0  0  0  0  0  0  0  0  0  0  0  0
   -5.3187   -1.1041    6.8588 C   0  0  0  0  0  0  0  0  0  0  0  0
   -3.9280   -0.6928    7.2448 C   0  0  0  0  0  0  0  0  0  0  0  0
   -3.4283   -1.3932    8.2918 F   0  0  0  0  0  0  0  0  0  0  0  0
   -3.8335    0.6235    7.5796 F   0  0  0  0  0  0  0  0  0  0  0  0
   -3.0534   -0.8714    6.2189 F   0  0  0  0  0  0  0  0  0  0  0  0
   -6.4286   -0.5661    7.5237 C   0  0  0  0  0  0  0  0  0  0  0  0
   -8.8600    1.2053    7.7438 C   0  0  0  0  0  0  0  0  0  0  0  0
   -9.8958    1.7710    8.7442 C   0  0  0  0  0  0  0  0  0  0  0  0
  -14.0524    0.5158   10.8770 C   0  0  0  0  0  0  0  0  0  0  0  0
  -13.4698    0.4578   12.0817 F   0  0  0  0  0  0  0  0  0  0  0  0
  -15.2653    0.0185   10.6393 N   0  0  0  0  0  0  0  0  0  0  0  0
  1  2  1  0
  2  3  1  0
  3  4  2  0
  4  5  1  0
  5  6  1  0
  6  7  1  0
  7  8  1  0
  8  9  1  0
  9 10  1  0
 10 11  2  0
 11 12  1  0
 12 13  1  0
 13 14  3  0
 12 15  2  0
 15 16  1  0
 16 17  1  0
 17 18  1  0
 17 19  1  0
 17 20  1  0
 16 21  2  0
  9 22  1  0
 22 23  1  0
  4 24  1  0
 24 25  1  0
 24 26  2  0
 26  2  1  0
 23  6  1  0
 21 10  1  0
M  END
>  <ref_mols>  (1525) 
B0426a

>  <gnina_score>  (1525) 
5.655

>  <smina_score_min>  (1525) 
-5.783

>  <ref_pdb>  (1525) 
B0426a

>  <inspiration_score>  (1525) 
None

>  <inchikey>  (1525) 
YXZSTXOGJUDSLY-UHFFFAOYSA-N

>  <tags>  (1525) 
BulkDock Fragalysis export,openbind_d68ev3c_c2_elabs_scored,openbind_d68ev3c_c2_elabs_scored_4.5plus,openbind_d68ev3c_c2_elabs,openbind_d68ev3c_c2_elabs_scored_5plus,syndirella_product,openbind_d68ev3c_c2_elabs_scored_top80percent,syndirella_placed

>  <smiles>  (1525) 
Cn1cc(CN2CCN(c3cc(C#N)cc(C(F)(F)F)c3)CC2)c(F)n1

>  <subsites>  (1525) 
None

>  <rmsd(smina/fragmenstein)>  (1525) 
0.598

>  <alias>  (1525) 
None

>  <energy_score>  (1525) 
-46.098261

>  <HIPPO Pose ID>  (1525) 
131538

>  <distance_score>  (1525) 
0.52497

>  <HIPPO Compound ID>  (1525) 
157574

>  <gnina_score_min>  (1525) 
5.701

>  <name>  (1525) 
P131538

>  <exports>  (1525) 
['/opt/xchem-fragalysis-2/maxwin/BulkDock/OUTPUTS/openbind_d68ev3c_c2_elabs_1LOTQJ3.sdf', '/opt/xchem-fragalysis-2/maxwin/BulkDock/OUTPUTS/openbind_d68ev3c_c2_elabs_1LSYI5W.sdf']

$$$$
P131539
     RDKit          3D

 26 28  0  0  0  0  0  0  0  0999 V2000
  -16.4135   -0.5151    7.1471 C   0  0  0  0  0  0  0  0  0  0  0  0
  -16.6041   -0.0587    8.5858 C   0  0  0  0  0  0  0  0  0  0  0  0
  -15.4071    0.4067    9.2547 N   0  0  0  0  0  0  0  0  0  0  0  0
  -14.3722    1.0903    8.6978 C   0  0  0  0  0  0  0  0  0  0  0  0
  -13.5039    1.3960    9.7248 C   0  0  0  0  0  0  0  0  0  0  0  0
  -12.1819    2.0808    9.6305 C   0  0  0  0  0  0  0  0  0  0  0  0
  -11.2853    1.3404    8.7344 N   0  0  0  0  0  0  0  0  0  0  0  0
   -9.9862    2.0381    8.6175 C   0  0  0  0  0  0  0  0  0  0  0  0
   -8.9804    1.2956    7.7039 C   0  0  0  0  0  0  0  0  0  0  0  0
   -8.7973   -0.1041    8.1427 N   0  0  0  0  0  0  0  0  0  0  0  0
   -7.8324   -0.8192    7.4199 C   0  0  0  0  0  0  0  0  0  0  0  0
   -8.1284   -1.9486    6.6452 C   0  0  0  0  0  0  0  0  0  0  0  0
   -7.1475   -2.5876    5.8983 C   0  0  0  0  0  0  0  0  0  0  0  0
   -5.8412   -2.1172    5.9272 C   0  0  0  0  0  0  0  0  0  0  0  0
   -4.7535   -2.8416    4.8206 Cl  0  0  0  0  0  0  0  0  0  0  0  0
   -5.4819   -1.0594    6.7635 C   0  0  0  0  0  0  0  0  0  0  0  0
   -4.0640   -0.6089    6.9279 C   0  0  0  0  0  0  0  0  0  0  0  0
   -3.3430   -1.4133    7.7554 F   0  0  0  0  0  0  0  0  0  0  0  0
   -3.9544    0.6459    7.4580 F   0  0  0  0  0  0  0  0  0  0  0  0
   -3.3760   -0.5513    5.7571 F   0  0  0  0  0  0  0  0  0  0  0  0
   -6.4938   -0.4190    7.4964 C   0  0  0  0  0  0  0  0  0  0  0  0
  -10.0813   -0.8070    8.3260 C   0  0  0  0  0  0  0  0  0  0  0  0
  -11.0228   -0.0272    9.2475 C   0  0  0  0  0  0  0  0  0  0  0  0
  -14.1422    0.8812   10.8870 C   0  0  0  0  0  0  0  0  0  0  0  0
  -13.6589    0.9359   12.2898 C   0  0  0  0  0  0  0  0  0  0  0  0
  -15.3105    0.2939   10.5958 N   0  0  0  0  0  0  0  0  0  0  0  0
  1  2  1  0
  2  3  1  0
  3  4  1  0
  4  5  2  0
  5  6  1  0
  6  7  1  0
  7  8  1  0
  8  9  1  0
  9 10  1  0
 10 11  1  0
 11 12  2  0
 12 13  1  0
 13 14  2  0
 14 15  1  0
 14 16  1  0
 16 17  1  0
 17 18  1  0
 17 19  1  0
 17 20  1  0
 16 21  2  0
 10 22  1  0
 22 23  1  0
  5 24  1  0
 24 25  1  0
 24 26  2  0
 26  3  1  0
 23  7  1  0
 21 11  1  0
M  END
>  <ref_mols>  (1526) 
B0426a

>  <gnina_score>  (1526) 
5.761

>  <smina_score_min>  (1526) 
-5.861

>  <ref_pdb>  (1526) 
B0426a

>  <inspiration_score>  (1526) 
None

>  <inchikey>  (1526) 
MRCUBJOCDVMVOR-UHFFFAOYSA-N

>  <tags>  (1526) 
BulkDock Fragalysis export,openbind_d68ev3c_c2_elabs_scored,openbind_d68ev3c_c2_elabs_scored_4.5plus,openbind_d68ev3c_c2_elabs,openbind_d68ev3c_c2_elabs_scored_5plus,syndirella_product,openbind_d68ev3c_c2_elabs_scored_top80percent,syndirella_placed

>  <smiles>  (1526) 
CCn1cc(CN2CCN(c3ccc(Cl)c(C(F)(F)F)c3)CC2)c(C)n1

>  <subsites>  (1526) 
None

>  <rmsd(smina/fragmenstein)>  (1526) 
0.596

>  <alias>  (1526) 
None

>  <energy_score>  (1526) 
-41.721526

>  <HIPPO Pose ID>  (1526) 
131539

>  <distance_score>  (1526) 
0.569967

>  <HIPPO Compound ID>  (1526) 
157575

>  <gnina_score_min>  (1526) 
5.88

>  <name>  (1526) 
P131539

>  <exports>  (1526) 
['/opt/xchem-fragalysis-2/maxwin/BulkDock/OUTPUTS/openbind_d68ev3c_c2_elabs_1LOTQJ3.sdf', '/opt/xchem-fragalysis-2/maxwin/BulkDock/OUTPUTS/openbind_d68ev3c_c2_elabs_1LSYI5W.sdf']

$$$$
P131540
     RDKit          3D

 26 28  0  0  0  0  0  0  0  0999 V2000
  -16.8022   -0.1116    8.9866 C   0  0  0  0  0  0  0  0  0  0  0  0
  -15.5317    0.3472    9.4883 N   0  0  0  0  0  0  0  0  0  0  0  0
  -15.2250    0.1850   10.7936 N   0  0  0  0  0  0  0  0  0  0  0  0
  -14.0708    0.8449   10.9193 C   0  0  0  0  0  0  0  0  0  0  0  0
  -13.6149    1.4125    9.7013 C   0  0  0  0  0  0  0  0  0  0  0  0
  -12.3564    2.1996    9.5176 C   0  0  2  0  0  0  0  0  0  0  0  0
  -12.6603    3.4505    8.9244 O   0  0  0  0  0  0  0  0  0  0  0  0
  -11.4088    1.4917    8.6597 N   0  0  0  0  0  0  0  0  0  0  0  0
  -10.1259    2.2387    8.5817 C   0  0  0  0  0  0  0  0  0  0  0  0
   -9.0499    1.5320    7.7191 C   0  0  0  0  0  0  0  0  0  0  0  0
   -8.8305    0.1517    8.1813 N   0  0  0  0  0  0  0  0  0  0  0  0
   -7.7707   -0.5573    7.6036 C   0  0  0  0  0  0  0  0  0  0  0  0
   -7.9364   -1.8586    7.1290 C   0  0  0  0  0  0  0  0  0  0  0  0
   -6.8605   -2.6103    6.6976 C   0  0  0  0  0  0  0  0  0  0  0  0
   -7.1360   -4.2267    6.3151 Cl  0  0  0  0  0  0  0  0  0  0  0  0
   -5.5818   -2.1013    6.6771 C   0  0  0  0  0  0  0  0  0  0  0  0
   -5.3721   -0.8023    7.1292 C   0  0  0  0  0  0  0  0  0  0  0  0
   -3.9657   -0.2969    7.1661 C   0  0  0  0  0  0  0  0  0  0  0  0
   -3.8631    1.0435    7.3602 F   0  0  0  0  0  0  0  0  0  0  0  0
   -3.3181   -0.5586    5.9968 F   0  0  0  0  0  0  0  0  0  0  0  0
   -3.2221   -0.8841    8.1404 F   0  0  0  0  0  0  0  0  0  0  0  0
   -6.4664   -0.0403    7.5823 C   0  0  0  0  0  0  0  0  0  0  0  0
  -10.0888   -0.6068    8.3505 C   0  0  0  0  0  0  0  0  0  0  0  0
  -11.1025    0.1494    9.2059 C   0  0  0  0  0  0  0  0  0  0  0  0
  -14.5855    1.0417    8.7924 C   0  0  0  0  0  0  0  0  0  0  0  0
  -14.6105    1.4399    6.9299 Br  0  0  0  0  0  0  0  0  0  0  0  0
  1  2  1  0
  2  3  1  0
  3  4  2  0
  4  5  1  0
  5  6  1  0
  6  7  1  6
  6  8  1  0
  8  9  1  0
  9 10  1  0
 10 11  1  0
 11 12  1  0
 12 13  2  0
 13 14  1  0
 14 15  1  0
 14 16  2  0
 16 17  1  0
 17 18  1  0
 18 19  1  0
 18 20  1  0
 18 21  1  0
 17 22  2  0
 11 23  1  0
 23 24  1  0
  5 25  2  0
 25 26  1  0
 25  2  1  0
 24  8  1  0
 22 12  1  0
M  END
>  <ref_mols>  (1527) 
B0426a

>  <gnina_score>  (1527) 
5.645

>  <smina_score_min>  (1527) 
-6.097

>  <ref_pdb>  (1527) 
B0426a

>  <inspiration_score>  (1527) 
None

>  <inchikey>  (1527) 
ZJJOCRYKZHLFSX-HNNXBMFYSA-N

>  <tags>  (1527) 
BulkDock Fragalysis export,openbind_d68ev3c_c2_elabs_scored,openbind_d68ev3c_c2_elabs_scored_4.5plus,openbind_d68ev3c_c2_elabs,openbind_d68ev3c_c2_elabs_scored_5plus,syndirella_product,openbind_d68ev3c_c2_elabs_scored_top80percent,syndirella_placed

>  <smiles>  (1527) 
Cn1ncc([C@H](O)N2CCN(c3cc(Cl)cc(C(F)(F)F)c3)CC2)c1Br

>  <subsites>  (1527) 
None

>  <rmsd(smina/fragmenstein)>  (1527) 
1.233

>  <alias>  (1527) 
None

>  <energy_score>  (1527) 
-45.172181

>  <HIPPO Pose ID>  (1527) 
131540

>  <distance_score>  (1527) 
0.594266

>  <HIPPO Compound ID>  (1527) 
157576

>  <gnina_score_min>  (1527) 
5.659

>  <name>  (1527) 
P131540

>  <exports>  (1527) 
['/opt/xchem-fragalysis-2/maxwin/BulkDock/OUTPUTS/openbind_d68ev3c_c2_elabs_1LOTQJ3.sdf', '/opt/xchem-fragalysis-2/maxwin/BulkDock/OUTPUTS/openbind_d68ev3c_c2_elabs_1LSYI5W.sdf']

$$$$
P131542
     RDKit          3D

 26 28  0  0  0  0  0  0  0  0999 V2000
  -16.3704   -0.5418    7.0520 C   0  0  0  0  0  0  0  0  0  0  0  0
  -16.5704   -0.0678    8.4836 C   0  0  0  0  0  0  0  0  0  0  0  0
  -15.3668    0.3371    9.1801 N   0  0  0  0  0  0  0  0  0  0  0  0
  -14.2718    0.9415    8.6452 C   0  0  0  0  0  0  0  0  0  0  0  0
  -13.4101    1.1938    9.6919 C   0  0  0  0  0  0  0  0  0  0  0  0
  -12.0461    1.7940    9.6557 C   0  0  0  0  0  0  0  0  0  0  0  0
  -11.1957    1.2157    8.6002 N   0  0  0  0  0  0  0  0  0  0  0  0
   -9.8382    1.8037    8.7190 C   0  0  0  0  0  0  0  0  0  0  0  0
   -8.8126    1.2150    7.7253 C   0  0  0  0  0  0  0  0  0  0  0  0
   -8.7558   -0.2581    7.8491 N   0  0  0  0  0  0  0  0  0  0  0  0
   -7.6976   -0.8613    7.1616 C   0  0  0  0  0  0  0  0  0  0  0  0
   -7.8684   -1.7461    6.0880 C   0  0  0  0  0  0  0  0  0  0  0  0
   -6.7669   -2.2698    5.4117 C   0  0  0  0  0  0  0  0  0  0  0  0
   -6.9825   -3.1737    3.9643 Cl  0  0  0  0  0  0  0  0  0  0  0  0
   -5.4755   -1.9714    5.8212 C   0  0  0  0  0  0  0  0  0  0  0  0
   -5.2733   -1.0936    6.8884 C   0  0  0  0  0  0  0  0  0  0  0  0
   -3.8866   -0.6868    7.2791 C   0  0  0  0  0  0  0  0  0  0  0  0
   -3.0034   -0.8785    6.2631 F   0  0  0  0  0  0  0  0  0  0  0  0
   -3.7884    0.6332    7.6004 F   0  0  0  0  0  0  0  0  0  0  0  0
   -3.3962   -1.3764    8.3378 F   0  0  0  0  0  0  0  0  0  0  0  0
   -6.3846   -0.5649    7.5559 C   0  0  0  0  0  0  0  0  0  0  0  0
  -10.0953   -0.8669    7.7038 C   0  0  0  0  0  0  0  0  0  0  0  0
  -11.0697   -0.2619    8.7362 C   0  0  0  0  0  0  0  0  0  0  0  0
  -14.1258    0.7613   10.8428 C   0  0  0  0  0  0  0  0  0  0  0  0
  -13.6955    0.8414   12.2616 C   0  0  0  0  0  0  0  0  0  0  0  0
  -15.3223    0.2504   10.5258 N   0  0  0  0  0  0  0  0  0  0  0  0
  1  2  1  0
  2  3  1  0
  3  4  1  0
  4  5  2  0
  5  6  1  0
  6  7  1  0
  7  8  1  0
  8  9  1  0
  9 10  1  0
 10 11  1  0
 11 12  2  0
 12 13  1  0
 13 14  1  0
 13 15  2  0
 15 16  1  0
 16 17  1  0
 17 18  1  0
 17 19  1  0
 17 20  1  0
 16 21  2  0
 10 22  1  0
 22 23  1  0
  5 24  1  0
 24 25  1  0
 24 26  2  0
 26  3  1  0
 23  7  1  0
 21 11  1  0
M  END
>  <ref_mols>  (1528) 
B0426a

>  <gnina_score>  (1528) 
5.817

>  <smina_score_min>  (1528) 
-5.408

>  <ref_pdb>  (1528) 
B0426a

>  <inspiration_score>  (1528) 
None

>  <inchikey>  (1528) 
KESQHPKJJYRUFY-UHFFFAOYSA-N

>  <tags>  (1528) 
BulkDock Fragalysis export,openbind_d68ev3c_c2_elabs_scored,openbind_d68ev3c_c2_elabs_scored_4.5plus,openbind_d68ev3c_c2_elabs,openbind_d68ev3c_c2_elabs_scored_5plus,syndirella_product,openbind_d68ev3c_c2_elabs_scored_top80percent,syndirella_placed

>  <smiles>  (1528) 
CCn1cc(CN2CCN(c3cc(Cl)cc(C(F)(F)F)c3)CC2)c(C)n1

>  <subsites>  (1528) 
None

>  <rmsd(smina/fragmenstein)>  (1528) 
0.49

>  <alias>  (1528) 
None

>  <energy_score>  (1528) 
-40.639709

>  <HIPPO Pose ID>  (1528) 
131542

>  <distance_score>  (1528) 
0.566871

>  <HIPPO Compound ID>  (1528) 
157577

>  <gnina_score_min>  (1528) 
5.771

>  <name>  (1528) 
P131542

>  <exports>  (1528) 
['/opt/xchem-fragalysis-2/maxwin/BulkDock/OUTPUTS/openbind_d68ev3c_c2_elabs_1LOTQJ3.sdf', '/opt/xchem-fragalysis-2/maxwin/BulkDock/OUTPUTS/openbind_d68ev3c_c2_elabs_1LSYI5W.sdf']

$$$$
P131543
     RDKit          3D

 26 28  0  0  0  0  0  0  0  0999 V2000
  -16.7123   -0.0588    8.8041 C   0  0  0  0  0  0  0  0  0  0  0  0
  -15.4445    0.3038    9.3857 N   0  0  0  0  0  0  0  0  0  0  0  0
  -15.1945    0.0216   10.6832 N   0  0  0  0  0  0  0  0  0  0  0  0
  -13.9736    0.5262   10.8736 C   0  0  0  0  0  0  0  0  0  0  0  0
  -13.4344    1.1404    9.7152 C   0  0  0  0  0  0  0  0  0  0  0  0
  -12.1001    1.7957    9.6245 C   0  0  0  0  0  0  0  0  0  0  0  0
  -11.2251    1.1985    8.6033 N   0  0  0  0  0  0  0  0  0  0  0  0
  -11.0979   -0.2733    8.7426 C   0  0  0  0  0  0  0  0  0  0  0  0
  -10.1264   -0.8719    7.7051 C   0  0  0  0  0  0  0  0  0  0  0  0
   -8.7848   -0.2694    7.8479 N   0  0  0  0  0  0  0  0  0  0  0  0
   -7.7304   -0.8745    7.1569 C   0  0  0  0  0  0  0  0  0  0  0  0
   -7.9122   -1.7731    6.0950 C   0  0  0  0  0  0  0  0  0  0  0  0
   -6.8221   -2.3137    5.4034 C   0  0  0  0  0  0  0  0  0  0  0  0
   -7.0304   -3.0879    4.2146 C   0  0  0  0  0  0  0  0  0  0  0  0
   -7.1763   -3.6774    3.2234 N   0  0  0  0  0  0  0  0  0  0  0  0
   -5.5239   -2.0044    5.8034 C   0  0  0  0  0  0  0  0  0  0  0  0
   -5.3093   -1.1130    6.8606 C   0  0  0  0  0  0  0  0  0  0  0  0
   -3.9167   -0.7026    7.2391 C   0  0  0  0  0  0  0  0  0  0  0  0
   -3.8196    0.6129    7.5764 F   0  0  0  0  0  0  0  0  0  0  0  0
   -3.0488   -0.8787    6.2072 F   0  0  0  0  0  0  0  0  0  0  0  0
   -3.4104   -1.4057    8.2813 F   0  0  0  0  0  0  0  0  0  0  0  0
   -6.4137   -0.5751    7.5332 C   0  0  0  0  0  0  0  0  0  0  0  0
   -8.8371    1.2068    7.7376 C   0  0  0  0  0  0  0  0  0  0  0  0
   -9.8713    1.7938    8.7258 C   0  0  0  0  0  0  0  0  0  0  0  0
  -14.4312    0.9861    8.7759 C   0  0  0  0  0  0  0  0  0  0  0  0
  -14.3940    1.6038    6.9756 Br  0  0  0  0  0  0  0  0  0  0  0  0
  1  2  1  0
  2  3  1  0
  3  4  2  0
  4  5  1  0
  5  6  1  0
  6  7  1  0
  7  8  1  0
  8  9  1  0
  9 10  1  0
 10 11  1  0
 11 12  2  0
 12 13  1  0
 13 14  1  0
 14 15  3  0
 13 16  2  0
 16 17  1  0
 17 18  1  0
 18 19  1  0
 18 20  1  0
 18 21  1  0
 17 22  2  0
 10 23  1  0
 23 24  1  0
  5 25  2  0
 25 26  1  0
 25  2  1  0
 24  7  1  0
 22 11  1  0
M  END
>  <ref_mols>  (1529) 
B0426a

>  <gnina_score>  (1529) 
5.676

>  <smina_score_min>  (1529) 
-5.41

>  <ref_pdb>  (1529) 
B0426a

>  <inspiration_score>  (1529) 
None

>  <inchikey>  (1529) 
YBBUMRLQSIEBNB-UHFFFAOYSA-N

>  <tags>  (1529) 
BulkDock Fragalysis export,openbind_d68ev3c_c2_elabs_scored,openbind_d68ev3c_c2_elabs_scored_4.5plus,openbind_d68ev3c_c2_elabs,openbind_d68ev3c_c2_elabs_scored_5plus,syndirella_product,openbind_d68ev3c_c2_elabs_scored_top80percent,syndirella_placed

>  <smiles>  (1529) 
Cn1ncc(CN2CCN(c3cc(C#N)cc(C(F)(F)F)c3)CC2)c1Br

>  <subsites>  (1529) 
None

>  <rmsd(smina/fragmenstein)>  (1529) 
0.537

>  <alias>  (1529) 
None

>  <energy_score>  (1529) 
-41.283601

>  <HIPPO Pose ID>  (1529) 
131543

>  <distance_score>  (1529) 
0.516225

>  <HIPPO Compound ID>  (1529) 
157579

>  <gnina_score_min>  (1529) 
5.579

>  <name>  (1529) 
P131543

>  <exports>  (1529) 
['/opt/xchem-fragalysis-2/maxwin/BulkDock/OUTPUTS/openbind_d68ev3c_c2_elabs_1LOTQJ3.sdf', '/opt/xchem-fragalysis-2/maxwin/BulkDock/OUTPUTS/openbind_d68ev3c_c2_elabs_1LSYI5W.sdf']

$$$$
P131544
     RDKit          3D

 26 28  0  0  0  0  0  0  0  0999 V2000
  -16.7325   -0.1117    8.9979 C   0  0  0  0  0  0  0  0  0  0  0  0
  -15.4625    0.3210    9.5238 N   0  0  0  0  0  0  0  0  0  0  0  0
  -14.4881    0.9629    8.8213 C   0  0  0  0  0  0  0  0  0  0  0  0
  -13.5261    1.3464    9.7420 C   0  0  0  0  0  0  0  0  0  0  0  0
  -12.2584    2.1019    9.4958 C   0  0  2  0  0  0  0  0  0  0  0  0
  -12.5704    3.2997    8.8014 O   0  0  0  0  0  0  0  0  0  0  0  0
  -11.3426    1.3316    8.6533 N   0  0  0  0  0  0  0  0  0  0  0  0
  -10.0387    2.0413    8.5397 C   0  0  0  0  0  0  0  0  0  0  0  0
   -9.0083    1.2836    7.6682 C   0  0  0  0  0  0  0  0  0  0  0  0
   -8.8165   -0.0994    8.1504 N   0  0  0  0  0  0  0  0  0  0  0  0
   -7.8445   -0.8230    7.4430 C   0  0  0  0  0  0  0  0  0  0  0  0
   -8.1307   -1.9680    6.6878 C   0  0  0  0  0  0  0  0  0  0  0  0
   -7.1460   -2.6040    5.9422 C   0  0  0  0  0  0  0  0  0  0  0  0
   -5.8450   -2.1174    5.9565 C   0  0  0  0  0  0  0  0  0  0  0  0
   -4.7557   -2.8342    4.8463 Cl  0  0  0  0  0  0  0  0  0  0  0  0
   -5.4930   -1.0481    6.7808 C   0  0  0  0  0  0  0  0  0  0  0  0
   -4.0770   -0.5860    6.9357 C   0  0  0  0  0  0  0  0  0  0  0  0
   -3.3979   -0.5210    5.7601 F   0  0  0  0  0  0  0  0  0  0  0  0
   -3.9751    0.6685    7.4673 F   0  0  0  0  0  0  0  0  0  0  0  0
   -3.3448   -1.3864    7.7569 F   0  0  0  0  0  0  0  0  0  0  0  0
   -6.5090   -0.4085    7.5093 C   0  0  0  0  0  0  0  0  0  0  0  0
  -10.0879   -0.8096    8.3627 C   0  0  0  0  0  0  0  0  0  0  0  0
  -11.0493   -0.0015    9.2407 C   0  0  0  0  0  0  0  0  0  0  0  0
  -14.0314    0.8484   10.9664 C   0  0  0  0  0  0  0  0  0  0  0  0
  -13.1931    1.0510   12.6411 Br  0  0  0  0  0  0  0  0  0  0  0  0
  -15.1920    0.2012   10.8350 N   0  0  0  0  0  0  0  0  0  0  0  0
  1  2  1  0
  2  3  1  0
  3  4  2  0
  4  5  1  0
  5  6  1  6
  5  7  1  0
  7  8  1  0
  8  9  1  0
  9 10  1  0
 10 11  1  0
 11 12  2  0
 12 13  1  0
 13 14  2  0
 14 15  1  0
 14 16  1  0
 16 17  1  0
 17 18  1  0
 17 19  1  0
 17 20  1  0
 16 21  2  0
 10 22  1  0
 22 23  1  0
  4 24  1  0
 24 25  1  0
 24 26  2  0
 26  2  1  0
 23  7  1  0
 21 11  1  0
M  END
>  <ref_mols>  (1530) 
B0426a

>  <gnina_score>  (1530) 
5.642

>  <smina_score_min>  (1530) 
-5.468

>  <ref_pdb>  (1530) 
B0426a

>  <inspiration_score>  (1530) 
None

>  <inchikey>  (1530) 
YUYPATUZWWGQFY-HNNXBMFYSA-N

>  <tags>  (1530) 
BulkDock Fragalysis export,openbind_d68ev3c_c2_elabs_scored,openbind_d68ev3c_c2_elabs_scored_4.5plus,openbind_d68ev3c_c2_elabs,openbind_d68ev3c_c2_elabs_scored_5plus,syndirella_product,openbind_d68ev3c_c2_elabs_scored_top80percent,syndirella_placed

>  <smiles>  (1530) 
Cn1cc([C@H](O)N2CCN(c3ccc(Cl)c(C(F)(F)F)c3)CC2)c(Br)n1

>  <subsites>  (1530) 
None

>  <rmsd(smina/fragmenstein)>  (1530) 
0.148

>  <alias>  (1530) 
None

>  <energy_score>  (1530) 
-52.853971

>  <HIPPO Pose ID>  (1530) 
131544

>  <distance_score>  (1530) 
0.529009

>  <HIPPO Compound ID>  (1530) 
157580

>  <gnina_score_min>  (1530) 
5.718

>  <name>  (1530) 
P131544

>  <exports>  (1530) 
['/opt/xchem-fragalysis-2/maxwin/BulkDock/OUTPUTS/openbind_d68ev3c_c2_elabs_1LOTQJ3.sdf', '/opt/xchem-fragalysis-2/maxwin/BulkDock/OUTPUTS/openbind_d68ev3c_c2_elabs_1LSYI5W.sdf']

$$$$
P131546
     RDKit          3D

 26 28  0  0  0  0  0  0  0  0999 V2000
  -16.7767   -0.1234    8.9854 C   0  0  0  0  0  0  0  0  0  0  0  0
  -15.5142    0.3433    9.4997 N   0  0  0  0  0  0  0  0  0  0  0  0
  -14.5753    1.0336    8.7947 C   0  0  0  0  0  0  0  0  0  0  0  0
  -13.6134    1.4356    9.7072 C   0  0  0  0  0  0  0  0  0  0  0  0
  -12.3777    2.2415    9.4537 C   0  0  2  0  0  0  0  0  0  0  0  0
  -12.7348    3.4142    8.7384 O   0  0  0  0  0  0  0  0  0  0  0  0
  -11.4254    1.4981    8.6272 N   0  0  0  0  0  0  0  0  0  0  0  0
  -11.0975    0.1867    9.2366 C   0  0  0  0  0  0  0  0  0  0  0  0
  -10.0853   -0.5967    8.4025 C   0  0  0  0  0  0  0  0  0  0  0  0
   -8.8340    0.1633    8.1928 N   0  0  0  0  0  0  0  0  0  0  0  0
   -7.7799   -0.5564    7.6160 C   0  0  0  0  0  0  0  0  0  0  0  0
   -7.9523   -1.8612    7.1548 C   0  0  0  0  0  0  0  0  0  0  0  0
   -6.8812   -2.6168    6.7173 C   0  0  0  0  0  0  0  0  0  0  0  0
   -7.1645   -4.2360    6.3486 Cl  0  0  0  0  0  0  0  0  0  0  0  0
   -5.6014   -2.1093    6.6814 C   0  0  0  0  0  0  0  0  0  0  0  0
   -5.3850   -0.8080    7.1246 C   0  0  0  0  0  0  0  0  0  0  0  0
   -3.9771   -0.3042    7.1521 C   0  0  0  0  0  0  0  0  0  0  0  0
   -3.8722    1.0361    7.3479 F   0  0  0  0  0  0  0  0  0  0  0  0
   -3.2280   -0.8925    8.1219 F   0  0  0  0  0  0  0  0  0  0  0  0
   -3.3357   -0.5641    5.9789 F   0  0  0  0  0  0  0  0  0  0  0  0
   -6.4749   -0.0411    7.5805 C   0  0  0  0  0  0  0  0  0  0  0  0
   -9.0647    1.5249    7.6840 C   0  0  0  0  0  0  0  0  0  0  0  0
  -10.1457    2.2534    8.5216 C   0  0  0  0  0  0  0  0  0  0  0  0
  -14.0779    0.8919   10.9292 C   0  0  0  0  0  0  0  0  0  0  0  0
  -13.2139    1.0814   12.5925 Br  0  0  0  0  0  0  0  0  0  0  0  0
  -15.2176    0.2075   10.8038 N   0  0  0  0  0  0  0  0  0  0  0  0
  1  2  1  0
  2  3  1  0
  3  4  2  0
  4  5  1  0
  5  6  1  6
  5  7  1  0
  7  8  1  0
  8  9  1  0
  9 10  1  0
 10 11  1  0
 11 12  2  0
 12 13  1  0
 13 14  1  0
 13 15  2  0
 15 16  1  0
 16 17  1  0
 17 18  1  0
 17 19  1  0
 17 20  1  0
 16 21  2  0
 10 22  1  0
 22 23  1  0
  4 24  1  0
 24 25  1  0
 24 26  2  0
 26  2  1  0
 23  7  1  0
 21 11  1  0
M  END
>  <ref_mols>  (1531) 
B0426a

>  <gnina_score>  (1531) 
5.844

>  <smina_score_min>  (1531) 
-5.928

>  <ref_pdb>  (1531) 
B0426a

>  <inspiration_score>  (1531) 
None

>  <inchikey>  (1531) 
LRMHYFYXGGQROX-HNNXBMFYSA-N

>  <tags>  (1531) 
BulkDock Fragalysis export,openbind_d68ev3c_c2_elabs_scored,openbind_d68ev3c_c2_elabs_scored_4.5plus,openbind_d68ev3c_c2_elabs,openbind_d68ev3c_c2_elabs_scored_5plus,syndirella_product,openbind_d68ev3c_c2_elabs_scored_top80percent,syndirella_placed

>  <smiles>  (1531) 
Cn1cc([C@H](O)N2CCN(c3cc(Cl)cc(C(F)(F)F)c3)CC2)c(Br)n1

>  <subsites>  (1531) 
None

>  <rmsd(smina/fragmenstein)>  (1531) 
0.958

>  <alias>  (1531) 
None

>  <energy_score>  (1531) 
-32.934749

>  <HIPPO Pose ID>  (1531) 
131546

>  <distance_score>  (1531) 
0.606169

>  <HIPPO Compound ID>  (1531) 
157581

>  <gnina_score_min>  (1531) 
5.624

>  <name>  (1531) 
P131546

>  <exports>  (1531) 
['/opt/xchem-fragalysis-2/maxwin/BulkDock/OUTPUTS/openbind_d68ev3c_c2_elabs_1LOTQJ3.sdf', '/opt/xchem-fragalysis-2/maxwin/BulkDock/OUTPUTS/openbind_d68ev3c_c2_elabs_1LSYI5W.sdf']

$$$$
P131548
     RDKit          3D

 26 28  0  0  0  0  0  0  0  0999 V2000
  -12.6465    1.7818    9.8149 C   0  0  0  0  0  0  0  0  0  0  0  0
  -11.5261    1.3689    8.9845 N   0  0  0  0  0  0  0  0  0  0  0  0
  -10.3200    2.1661    9.2848 C   0  0  0  0  0  0  0  0  0  0  0  0
   -9.1850    1.8062    8.3137 C   0  0  0  0  0  0  0  0  0  0  0  0
   -8.8435    0.3623    8.3716 N   0  0  0  0  0  0  0  0  0  0  0  0
   -7.9488    0.0561    7.3198 C   0  0  0  0  0  0  0  0  0  0  0  0
   -8.3643    0.1111    5.9904 C   0  0  0  0  0  0  0  0  0  0  0  0
   -7.5137   -0.2495    4.9714 C   0  0  0  0  0  0  0  0  0  0  0  0
   -6.2414   -0.7514    5.2617 C   0  0  0  0  0  0  0  0  0  0  0  0
   -5.6915   -1.6558    4.2964 N   0  0  0  0  0  0  0  0  0  0  0  0
   -6.6382   -2.8100    4.1960 C   0  0  2  0  0  0  0  0  0  0  0  0
   -6.5074   -3.7545    5.6848 Cl  0  0  0  0  0  0  0  0  0  0  0  0
   -6.5422   -3.6345    2.9590 C   0  0  0  0  0  0  0  0  0  0  0  0
   -7.4239   -3.5546    1.8503 C   0  0  0  0  0  0  0  0  0  0  0  0
   -7.1043   -4.4008    0.8726 N   0  0  0  0  0  0  0  0  0  0  0  0
   -5.9552   -4.9537    1.2992 N   0  0  0  0  0  0  0  0  0  0  0  0
   -5.1764   -5.7745    0.4043 C   0  0  0  0  0  0  0  0  0  0  0  0
   -5.6454   -4.6123    2.5829 C   0  0  0  0  0  0  0  0  0  0  0  0
   -5.7235   -0.6193    6.5599 C   0  0  0  0  0  0  0  0  0  0  0  0
   -4.2565   -0.7434    6.8795 C   0  0  0  0  0  0  0  0  0  0  0  0
   -3.4499   -1.0335    5.8209 F   0  0  0  0  0  0  0  0  0  0  0  0
   -3.7642    0.4422    7.3634 F   0  0  0  0  0  0  0  0  0  0  0  0
   -3.9613   -1.6588    7.8416 F   0  0  0  0  0  0  0  0  0  0  0  0
   -6.6109   -0.2441    7.5905 C   0  0  0  0  0  0  0  0  0  0  0  0
  -10.0429   -0.5307    8.3026 C   0  0  0  0  0  0  0  0  0  0  0  0
  -11.1900   -0.0547    9.2158 C   0  0  0  0  0  0  0  0  0  0  0  0
  1  2  1  0
  2  3  1  0
  3  4  1  0
  4  5  1  0
  5  6  1  0
  6  7  2  0
  7  8  1  0
  8  9  2  0
  9 10  1  0
 10 11  1  0
 11 12  1  1
 11 13  1  0
 13 14  1  0
 14 15  2  0
 15 16  1  0
 16 17  1  0
 16 18  1  0
  9 19  1  0
 19 20  1  0
 20 21  1  0
 20 22  1  0
 20 23  1  0
 19 24  2  0
  5 25  1  0
 25 26  1  0
 26  2  1  0
 24  6  1  0
 18 13  2  0
M  END
>  <ref_mols>  (1532) 
B0426a

>  <gnina_score>  (1532) 
5.538

>  <smina_score_min>  (1532) 
-5.014

>  <ref_pdb>  (1532) 
B0426a

>  <inspiration_score>  (1532) 
None

>  <inchikey>  (1532) 
PMTBTECMDVOVGS-INIZCTEOSA-N

>  <tags>  (1532) 
BulkDock Fragalysis export,openbind_d68ev3c_c2_elabs_scored,openbind_d68ev3c_c2_elabs_scored_4.5plus,openbind_d68ev3c_c2_elabs,openbind_d68ev3c_c2_elabs_scored_5plus,syndirella_product,openbind_d68ev3c_c2_elabs_scored_top80percent,syndirella_placed

>  <smiles>  (1532) 
CN1CCN(c2ccc(N[C@H](Cl)c3cnn(C)c3)c(C(F)(F)F)c2)CC1

>  <subsites>  (1532) 
None

>  <rmsd(smina/fragmenstein)>  (1532) 
0.696

>  <alias>  (1532) 
None

>  <energy_score>  (1532) 
-30.950214

>  <HIPPO Pose ID>  (1532) 
131548

>  <distance_score>  (1532) 
1.341566

>  <HIPPO Compound ID>  (1532) 
157582

>  <gnina_score_min>  (1532) 
5.501

>  <name>  (1532) 
P131548

>  <exports>  (1532) 
['/opt/xchem-fragalysis-2/maxwin/BulkDock/OUTPUTS/openbind_d68ev3c_c2_elabs_1LOTQJ3.sdf', '/opt/xchem-fragalysis-2/maxwin/BulkDock/OUTPUTS/openbind_d68ev3c_c2_elabs_1LSYI5W.sdf']

$$$$
P131549
     RDKit          3D

 26 28  0  0  0  0  0  0  0  0999 V2000
  -16.7025   -0.1031    8.8879 C   0  0  0  0  0  0  0  0  0  0  0  0
  -15.4238    0.2422    9.4558 N   0  0  0  0  0  0  0  0  0  0  0  0
  -14.4097    0.8830    8.8098 C   0  0  0  0  0  0  0  0  0  0  0  0
  -13.4269    1.1149    9.7548 C   0  0  0  0  0  0  0  0  0  0  0  0
  -12.1056    1.7997    9.6326 C   0  0  2  0  0  0  0  0  0  0  0  0
  -12.4470    3.5082    9.2033 Cl  0  0  0  0  0  0  0  0  0  0  0  0
  -11.2305    1.2381    8.5883 N   0  0  0  0  0  0  0  0  0  0  0  0
  -11.1425   -0.2458    8.6718 C   0  0  0  0  0  0  0  0  0  0  0  0
  -10.1586   -0.8427    7.6427 C   0  0  0  0  0  0  0  0  0  0  0  0
   -8.8057   -0.2854    7.8401 N   0  0  0  0  0  0  0  0  0  0  0  0
   -7.7458   -0.8929    7.1566 C   0  0  0  0  0  0  0  0  0  0  0  0
   -7.9218   -1.7887    6.0913 C   0  0  0  0  0  0  0  0  0  0  0  0
   -6.8284   -2.3246    5.4001 C   0  0  0  0  0  0  0  0  0  0  0  0
   -7.0329   -3.0948    4.2081 C   0  0  0  0  0  0  0  0  0  0  0  0
   -7.1784   -3.6823    3.2158 N   0  0  0  0  0  0  0  0  0  0  0  0
   -5.5314   -2.0136    5.8025 C   0  0  0  0  0  0  0  0  0  0  0  0
   -5.3209   -1.1276    6.8643 C   0  0  0  0  0  0  0  0  0  0  0  0
   -3.9295   -0.7105    7.2429 C   0  0  0  0  0  0  0  0  0  0  0  0
   -3.0611   -0.8754    6.2095 F   0  0  0  0  0  0  0  0  0  0  0  0
   -3.8414    0.6040    7.5870 F   0  0  0  0  0  0  0  0  0  0  0  0
   -3.4181   -1.4150    8.2815 F   0  0  0  0  0  0  0  0  0  0  0  0
   -6.4287   -0.5985    7.5397 C   0  0  0  0  0  0  0  0  0  0  0  0
   -8.8160    1.1931    7.7790 C   0  0  0  0  0  0  0  0  0  0  0  0
   -9.8495    1.7694    8.7718 C   0  0  0  0  0  0  0  0  0  0  0  0
  -13.9632    0.5512   10.9379 C   0  0  0  0  0  0  0  0  0  0  0  0
  -15.1706    0.0114   10.7581 N   0  0  0  0  0  0  0  0  0  0  0  0
  1  2  1  0
  2  3  1  0
  3  4  2  0
  4  5  1  0
  5  6  1  6
  5  7  1  0
  7  8  1  0
  8  9  1  0
  9 10  1  0
 10 11  1  0
 11 12  2  0
 12 13  1  0
 13 14  1  0
 14 15  3  0
 13 16  2  0
 16 17  1  0
 17 18  1  0
 18 19  1  0
 18 20  1  0
 18 21  1  0
 17 22  2  0
 10 23  1  0
 23 24  1  0
  4 25  1  0
 25 26  2  0
 26  2  1  0
 24  7  1  0
 22 11  1  0
M  END
>  <ref_mols>  (1533) 
B0426a

>  <gnina_score>  (1533) 
5.719

>  <smina_score_min>  (1533) 
-5.425

>  <ref_pdb>  (1533) 
B0426a

>  <inspiration_score>  (1533) 
None

>  <inchikey>  (1533) 
DUKCRPKXKRIXPJ-MRXNPFEDSA-N

>  <tags>  (1533) 
BulkDock Fragalysis export,openbind_d68ev3c_c2_elabs_scored,openbind_d68ev3c_c2_elabs_scored_4.5plus,openbind_d68ev3c_c2_elabs,openbind_d68ev3c_c2_elabs_scored_5plus,syndirella_product,openbind_d68ev3c_c2_elabs_scored_top80percent,syndirella_placed

>  <smiles>  (1533) 
Cn1cc([C@H](Cl)N2CCN(c3cc(C#N)cc(C(F)(F)F)c3)CC2)cn1

>  <subsites>  (1533) 
None

>  <rmsd(smina/fragmenstein)>  (1533) 
0.522

>  <alias>  (1533) 
None

>  <energy_score>  (1533) 
-39.303077

>  <HIPPO Pose ID>  (1533) 
131549

>  <distance_score>  (1533) 
0.495788

>  <HIPPO Compound ID>  (1533) 
157583

>  <gnina_score_min>  (1533) 
5.589

>  <name>  (1533) 
P131549

>  <exports>  (1533) 
['/opt/xchem-fragalysis-2/maxwin/BulkDock/OUTPUTS/openbind_d68ev3c_c2_elabs_1LOTQJ3.sdf', '/opt/xchem-fragalysis-2/maxwin/BulkDock/OUTPUTS/openbind_d68ev3c_c2_elabs_1LSYI5W.sdf']

$$$$
P131552
     RDKit          3D

 26 28  0  0  0  0  0  0  0  0999 V2000
  -16.6772   -0.1319   10.2761 C   0  0  0  0  0  0  0  0  0  0  0  0
  -15.3071    0.2958   10.2158 N   0  0  0  0  0  0  0  0  0  0  0  0
  -14.5145    0.1988   11.2993 N   0  0  0  0  0  0  0  0  0  0  0  0
  -13.3967    0.8307   10.9190 C   0  0  0  0  0  0  0  0  0  0  0  0
  -13.4711    1.3400    9.5997 C   0  0  0  0  0  0  0  0  0  0  0  0
  -12.4918    2.1563    8.8380 C   0  0  1  0  0  0  0  0  0  0  0  0
  -12.1541    3.3411    9.5479 O   0  0  0  0  0  0  0  0  0  0  0  0
  -11.2990    1.4483    8.4092 N   0  0  0  0  0  0  0  0  0  0  0  0
  -10.2400    1.3082    9.4164 C   0  0  0  0  0  0  0  0  0  0  0  0
   -8.9344    0.7947    8.7715 C   0  0  0  0  0  0  0  0  0  0  0  0
   -9.1311   -0.4827    8.0518 N   0  0  0  0  0  0  0  0  0  0  0  0
   -8.0026   -1.0999    7.4832 C   0  0  0  0  0  0  0  0  0  0  0  0
   -8.1397   -2.3224    6.8109 C   0  0  0  0  0  0  0  0  0  0  0  0
   -7.0932   -2.8720    6.0805 C   0  0  0  0  0  0  0  0  0  0  0  0
   -5.8597   -2.2355    6.0527 C   0  0  0  0  0  0  0  0  0  0  0  0
   -4.7160   -2.8254    4.9231 Cl  0  0  0  0  0  0  0  0  0  0  0  0
   -5.6184   -1.1205    6.8522 C   0  0  0  0  0  0  0  0  0  0  0  0
   -4.2428   -0.5342    6.9993 C   0  0  0  0  0  0  0  0  0  0  0  0
   -4.2437    0.7161    7.5491 F   0  0  0  0  0  0  0  0  0  0  0  0
   -3.4380   -1.2803    7.8060 F   0  0  0  0  0  0  0  0  0  0  0  0
   -3.5708   -0.3942    5.8240 F   0  0  0  0  0  0  0  0  0  0  0  0
   -6.7052   -0.5633    7.5569 C   0  0  0  0  0  0  0  0  0  0  0  0
  -10.3057   -0.4567    7.1380 C   0  0  0  0  0  0  0  0  0  0  0  0
  -11.5606    0.1324    7.8060 C   0  0  0  0  0  0  0  0  0  0  0  0
  -14.7228    0.9522    9.1824 C   0  0  0  0  0  0  0  0  0  0  0  0
  -15.2861    1.2303    7.9987 F   0  0  0  0  0  0  0  0  0  0  0  0
  1  2  1  0
  2  3  1  0
  3  4  2  0
  4  5  1  0
  5  6  1  0
  6  7  1  1
  6  8  1  0
  8  9  1  0
  9 10  1  0
 10 11  1  0
 11 12  1  0
 12 13  2  0
 13 14  1  0
 14 15  2  0
 15 16  1  0
 15 17  1  0
 17 18  1  0
 18 19  1  0
 18 20  1  0
 18 21  1  0
 17 22  2  0
 11 23  1  0
 23 24  1  0
  5 25  2  0
 25 26  1  0
 25  2  1  0
 24  8  1  0
 22 12  1  0
M  END
>  <ref_mols>  (1534) 
B0426a

>  <gnina_score>  (1534) 
5.492

>  <smina_score_min>  (1534) 
-6.189

>  <ref_pdb>  (1534) 
B0426a

>  <inspiration_score>  (1534) 
None

>  <inchikey>  (1534) 
YXSGGALOGXPYTI-OAHLLOKOSA-N

>  <tags>  (1534) 
BulkDock Fragalysis export,openbind_d68ev3c_c2_elabs_scored,openbind_d68ev3c_c2_elabs_scored_4.5plus,openbind_d68ev3c_c2_elabs,openbind_d68ev3c_c2_elabs_scored_5plus,syndirella_product,openbind_d68ev3c_c2_elabs_scored_top80percent,syndirella_placed

>  <smiles>  (1534) 
Cn1ncc([C@@H](O)N2CCN(c3ccc(Cl)c(C(F)(F)F)c3)CC2)c1F

>  <subsites>  (1534) 
None

>  <rmsd(smina/fragmenstein)>  (1534) 
0.456

>  <alias>  (1534) 
None

>  <energy_score>  (1534) 
-33.003735

>  <HIPPO Pose ID>  (1534) 
131552

>  <distance_score>  (1534) 
0.462833

>  <HIPPO Compound ID>  (1534) 
157584

>  <gnina_score_min>  (1534) 
5.559

>  <name>  (1534) 
P131552

>  <exports>  (1534) 
['/opt/xchem-fragalysis-2/maxwin/BulkDock/OUTPUTS/openbind_d68ev3c_c2_elabs_1LOTQJ3.sdf', '/opt/xchem-fragalysis-2/maxwin/BulkDock/OUTPUTS/openbind_d68ev3c_c2_elabs_1LSYI5W.sdf']

$$$$
P131553
     RDKit          3D

 26 28  0  0  0  0  0  0  0  0999 V2000
  -16.7154   -0.0832    8.8917 C   0  0  0  0  0  0  0  0  0  0  0  0
  -15.4309    0.2527    9.4456 N   0  0  0  0  0  0  0  0  0  0  0  0
  -15.1335   -0.0380   10.7307 N   0  0  0  0  0  0  0  0  0  0  0  0
  -13.9184    0.4999   10.8854 C   0  0  0  0  0  0  0  0  0  0  0  0
  -13.4252    1.1218    9.7097 C   0  0  0  0  0  0  0  0  0  0  0  0
  -12.1219    1.8225    9.5606 C   0  0  2  0  0  0  0  0  0  0  0  0
  -12.3580    3.1667    9.1782 O   0  0  0  0  0  0  0  0  0  0  0  0
  -11.2469    1.2234    8.5511 N   0  0  0  0  0  0  0  0  0  0  0  0
   -9.8817    1.8022    8.7089 C   0  0  0  0  0  0  0  0  0  0  0  0
   -8.8316    1.2143    7.7405 C   0  0  0  0  0  0  0  0  0  0  0  0
   -8.7893   -0.2602    7.8518 N   0  0  0  0  0  0  0  0  0  0  0  0
   -7.7230   -0.8613    7.1696 C   0  0  0  0  0  0  0  0  0  0  0  0
   -7.8866   -1.7465    6.0946 C   0  0  0  0  0  0  0  0  0  0  0  0
   -6.7818   -2.2660    5.4195 C   0  0  0  0  0  0  0  0  0  0  0  0
   -6.9942   -3.1678    3.9707 Cl  0  0  0  0  0  0  0  0  0  0  0  0
   -5.4924   -1.9638    5.8308 C   0  0  0  0  0  0  0  0  0  0  0  0
   -5.2952   -1.0864    6.8992 C   0  0  0  0  0  0  0  0  0  0  0  0
   -3.9081   -0.6760    7.2894 C   0  0  0  0  0  0  0  0  0  0  0  0
   -3.0237   -0.8651    6.2738 F   0  0  0  0  0  0  0  0  0  0  0  0
   -3.4173   -1.3647    8.3483 F   0  0  0  0  0  0  0  0  0  0  0  0
   -3.8148    0.6440    7.6113 F   0  0  0  0  0  0  0  0  0  0  0  0
   -6.4106   -0.5624    7.5667 C   0  0  0  0  0  0  0  0  0  0  0  0
  -10.1277   -0.8575    7.6756 C   0  0  0  0  0  0  0  0  0  0  0  0
  -11.1226   -0.2522    8.6899 C   0  0  0  0  0  0  0  0  0  0  0  0
  -14.4471    0.9427    8.8084 C   0  0  0  0  0  0  0  0  0  0  0  0
  -14.4804    1.3850    7.5437 F   0  0  0  0  0  0  0  0  0  0  0  0
  1  2  1  0
  2  3  1  0
  3  4  2  0
  4  5  1  0
  5  6  1  0
  6  7  1  6
  6  8  1  0
  8  9  1  0
  9 10  1  0
 10 11  1  0
 11 12  1  0
 12 13  2  0
 13 14  1  0
 14 15  1  0
 14 16  2  0
 16 17  1  0
 17 18  1  0
 18 19  1  0
 18 20  1  0
 18 21  1  0
 17 22  2  0
 11 23  1  0
 23 24  1  0
  5 25  2  0
 25 26  1  0
 25  2  1  0
 24  8  1  0
 22 12  1  0
M  END
>  <ref_mols>  (1535) 
B0426a

>  <gnina_score>  (1535) 
5.567

>  <smina_score_min>  (1535) 
-5.357

>  <ref_pdb>  (1535) 
B0426a

>  <inspiration_score>  (1535) 
None

>  <inchikey>  (1535) 
CIXMDNSTDJPFIM-HNNXBMFYSA-N

>  <tags>  (1535) 
BulkDock Fragalysis export,openbind_d68ev3c_c2_elabs_scored,openbind_d68ev3c_c2_elabs_scored_4.5plus,openbind_d68ev3c_c2_elabs,openbind_d68ev3c_c2_elabs_scored_5plus,syndirella_product,openbind_d68ev3c_c2_elabs_scored_top80percent,syndirella_placed

>  <smiles>  (1535) 
Cn1ncc([C@H](O)N2CCN(c3cc(Cl)cc(C(F)(F)F)c3)CC2)c1F

>  <subsites>  (1535) 
None

>  <rmsd(smina/fragmenstein)>  (1535) 
0.469

>  <alias>  (1535) 
None

>  <energy_score>  (1535) 
-51.77773

>  <HIPPO Pose ID>  (1535) 
131553

>  <distance_score>  (1535) 
0.504312

>  <HIPPO Compound ID>  (1535) 
157585

>  <gnina_score_min>  (1535) 
5.484

>  <name>  (1535) 
P131553

>  <exports>  (1535) 
['/opt/xchem-fragalysis-2/maxwin/BulkDock/OUTPUTS/openbind_d68ev3c_c2_elabs_1LOTQJ3.sdf', '/opt/xchem-fragalysis-2/maxwin/BulkDock/OUTPUTS/openbind_d68ev3c_c2_elabs_1LSYI5W.sdf']

$$$$
P131555
     RDKit          3D

 26 28  0  0  0  0  0  0  0  0999 V2000
  -15.2314    3.3232    7.2742 C   0  0  0  0  0  0  0  0  0  0  0  0
  -14.7989    1.5765    7.1288 S   0  0  0  0  0  0  0  0  0  0  0  0
  -14.6193    1.1556    8.8063 C   0  0  0  0  0  0  0  0  0  0  0  0
  -13.6205    1.4377    9.7165 C   0  0  0  0  0  0  0  0  0  0  0  0
  -12.3469    2.1966    9.5477 C   0  0  0  0  0  0  0  0  0  0  0  0
  -11.4037    1.4748    8.6874 N   0  0  0  0  0  0  0  0  0  0  0  0
  -10.1383    2.2338    8.5597 C   0  0  0  0  0  0  0  0  0  0  0  0
   -9.0721    1.5185    7.6905 C   0  0  0  0  0  0  0  0  0  0  0  0
   -8.8288    0.1515    8.1815 N   0  0  0  0  0  0  0  0  0  0  0  0
   -7.7716   -0.5572    7.5996 C   0  0  0  0  0  0  0  0  0  0  0  0
   -7.9382   -1.8577    7.1238 C   0  0  0  0  0  0  0  0  0  0  0  0
   -6.8618   -2.6092    6.6940 C   0  0  0  0  0  0  0  0  0  0  0  0
   -7.1354   -4.2265    6.3142 Cl  0  0  0  0  0  0  0  0  0  0  0  0
   -5.5830   -2.0997    6.6743 C   0  0  0  0  0  0  0  0  0  0  0  0
   -5.3736   -0.8004    7.1259 C   0  0  0  0  0  0  0  0  0  0  0  0
   -3.9674   -0.2952    7.1642 C   0  0  0  0  0  0  0  0  0  0  0  0
   -3.3180   -0.5572    5.9960 F   0  0  0  0  0  0  0  0  0  0  0  0
   -3.2247   -0.8814    8.1399 F   0  0  0  0  0  0  0  0  0  0  0  0
   -3.8650    1.0456    7.3579 F   0  0  0  0  0  0  0  0  0  0  0  0
   -6.4681   -0.0386    7.5781 C   0  0  0  0  0  0  0  0  0  0  0  0
  -10.0805   -0.6164    8.3756 C   0  0  0  0  0  0  0  0  0  0  0  0
  -11.0855    0.1410    9.2402 C   0  0  0  0  0  0  0  0  0  0  0  0
  -14.0619    0.8071   10.9071 C   0  0  0  0  0  0  0  0  0  0  0  0
  -15.2341    0.1859   10.7688 N   0  0  0  0  0  0  0  0  0  0  0  0
  -15.5469    0.3949    9.4692 N   0  0  0  0  0  0  0  0  0  0  0  0
  -16.8071   -0.0940    8.9651 C   0  0  0  0  0  0  0  0  0  0  0  0
  1  2  1  0
  2  3  1  0
  3  4  2  0
  4  5  1  0
  5  6  1  0
  6  7  1  0
  7  8  1  0
  8  9  1  0
  9 10  1  0
 10 11  2  0
 11 12  1  0
 12 13  1  0
 12 14  2  0
 14 15  1  0
 15 16  1  0
 16 17  1  0
 16 18  1  0
 16 19  1  0
 15 20  2  0
  9 21  1  0
 21 22  1  0
  4 23  1  0
 23 24  2  0
 24 25  1  0
 25 26  1  0
 25  3  1  0
 22  6  1  0
 20 10  1  0
M  END
>  <ref_mols>  (1536) 
B0426a

>  <gnina_score>  (1536) 
5.77

>  <smina_score_min>  (1536) 
-5.865

>  <ref_pdb>  (1536) 
B0426a

>  <inspiration_score>  (1536) 
None

>  <inchikey>  (1536) 
BWNZKWYXWIZGQW-UHFFFAOYSA-N

>  <tags>  (1536) 
BulkDock Fragalysis export,openbind_d68ev3c_c2_elabs_scored,openbind_d68ev3c_c2_elabs_scored_4.5plus,openbind_d68ev3c_c2_elabs,openbind_d68ev3c_c2_elabs_scored_5plus,syndirella_product,openbind_d68ev3c_c2_elabs_scored_top80percent,syndirella_placed

>  <smiles>  (1536) 
CSc1c(CN2CCN(c3cc(Cl)cc(C(F)(F)F)c3)CC2)cnn1C

>  <subsites>  (1536) 
None

>  <rmsd(smina/fragmenstein)>  (1536) 
1.158

>  <alias>  (1536) 
None

>  <energy_score>  (1536) 
-54.614738

>  <HIPPO Pose ID>  (1536) 
131555

>  <distance_score>  (1536) 
0.610927

>  <HIPPO Compound ID>  (1536) 
157586

>  <gnina_score_min>  (1536) 
5.881

>  <name>  (1536) 
P131555

>  <exports>  (1536) 
['/opt/xchem-fragalysis-2/maxwin/BulkDock/OUTPUTS/openbind_d68ev3c_c2_elabs_1LOTQJ3.sdf', '/opt/xchem-fragalysis-2/maxwin/BulkDock/OUTPUTS/openbind_d68ev3c_c2_elabs_1LSYI5W.sdf']

$$$$
P131556
     RDKit          3D

 26 29  0  0  0  0  0  0  0  0999 V2000
   -3.3808   -0.5200    5.8579 F   0  0  0  0  0  0  0  0  0  0  0  0
   -4.1123   -0.6039    7.0009 C   0  0  0  0  0  0  0  0  0  0  0  0
   -3.4176   -1.4204    7.8384 F   0  0  0  0  0  0  0  0  0  0  0  0
   -4.0312    0.6416    7.5564 F   0  0  0  0  0  0  0  0  0  0  0  0
   -5.5214   -1.0575    6.7716 C   0  0  0  0  0  0  0  0  0  0  0  0
   -6.5706   -0.4380    7.4741 C   0  0  0  0  0  0  0  0  0  0  0  0
   -7.9078   -0.8207    7.3082 C   0  0  0  0  0  0  0  0  0  0  0  0
   -8.9207   -0.1527    8.0049 N   0  0  0  0  0  0  0  0  0  0  0  0
  -10.2609   -0.7648    7.9221 C   0  0  0  0  0  0  0  0  0  0  0  0
  -11.2186   -0.1411    8.9399 C   0  0  0  0  0  0  0  0  0  0  0  0
  -11.3721    1.3170    8.7193 N   0  0  0  0  0  0  0  0  0  0  0  0
  -12.2649    1.9268    9.7167 C   0  0  0  0  0  0  0  0  0  0  0  0
  -13.5861    1.2415    9.7807 C   0  0  0  0  0  0  0  0  0  0  0  0
  -14.1944    0.6462   10.9322 C   0  0  0  0  0  0  0  0  0  0  0  0
  -15.3865    0.0787   10.6785 N   0  0  0  0  0  0  0  0  0  0  0  0
  -15.5068    0.2878    9.3697 N   0  0  0  0  0  0  0  0  0  0  0  0
  -14.5060    0.9937    8.7951 C   0  0  0  0  0  0  0  0  0  0  0  0
  -14.7668    1.1955    7.3596 C   0  0  0  0  0  0  0  0  0  0  0  0
  -16.2817    0.8692    7.2660 C   0  0  0  0  0  0  0  0  0  0  0  0
  -16.6050   -0.0250    8.4791 C   0  0  0  0  0  0  0  0  0  0  0  0
  -10.0260    1.9349    8.8124 C   0  0  0  0  0  0  0  0  0  0  0  0
   -8.9805    1.3165    7.8477 C   0  0  0  0  0  0  0  0  0  0  0  0
   -8.1578   -1.9203    6.4732 C   0  0  0  0  0  0  0  0  0  0  0  0
   -7.1398   -2.5516    5.7733 C   0  0  0  0  0  0  0  0  0  0  0  0
   -5.8361   -2.0955    5.8943 C   0  0  0  0  0  0  0  0  0  0  0  0
   -4.6929   -2.8197    4.8491 Cl  0  0  0  0  0  0  0  0  0  0  0  0
  1  2  1  0
  2  3  1  0
  2  4  1  0
  2  5  1  0
  5  6  2  0
  6  7  1  0
  7  8  1  0
  8  9  1  0
  9 10  1  0
 10 11  1  0
 11 12  1  0
 12 13  1  0
 13 14  1  0
 14 15  2  0
 15 16  1  0
 16 17  1  0
 17 18  1  0
 18 19  1  0
 19 20  1  0
 11 21  1  0
 21 22  1  0
  7 23  2  0
 23 24  1  0
 24 25  2  0
 25 26  1  0
 25  5  1  0
 22  8  1  0
 17 13  2  0
 20 16  1  0
M  END
>  <ref_mols>  (1537) 
B0426a

>  <gnina_score>  (1537) 
5.727

>  <smina_score_min>  (1537) 
-6.413

>  <ref_pdb>  (1537) 
B0426a

>  <inspiration_score>  (1537) 
None

>  <inchikey>  (1537) 
HOPSGMBAQFYLES-UHFFFAOYSA-N

>  <tags>  (1537) 
BulkDock Fragalysis export,openbind_d68ev3c_c2_elabs_scored,openbind_d68ev3c_c2_elabs_scored_4.5plus,openbind_d68ev3c_c2_elabs,openbind_d68ev3c_c2_elabs_scored_5plus,syndirella_product,openbind_d68ev3c_c2_elabs_scored_top80percent,syndirella_placed

>  <smiles>  (1537) 
FC(F)(F)c1cc(N2CCN(Cc3cnn4c3CCC4)CC2)ccc1Cl

>  <subsites>  (1537) 
None

>  <rmsd(smina/fragmenstein)>  (1537) 
1.438

>  <alias>  (1537) 
None

>  <energy_score>  (1537) 
-52.587381

>  <HIPPO Pose ID>  (1537) 
131556

>  <distance_score>  (1537) 
0.496546

>  <HIPPO Compound ID>  (1537) 
157587

>  <gnina_score_min>  (1537) 
5.904

>  <name>  (1537) 
P131556

>  <exports>  (1537) 
['/opt/xchem-fragalysis-2/maxwin/BulkDock/OUTPUTS/openbind_d68ev3c_c2_elabs_1LOTQJ3.sdf', '/opt/xchem-fragalysis-2/maxwin/BulkDock/OUTPUTS/openbind_d68ev3c_c2_elabs_1LSYI5W.sdf']

$$$$
P131557
     RDKit          3D

 26 29  0  0  0  0  0  0  0  0999 V2000
   -3.8697    1.0549    7.3618 F   0  0  0  0  0  0  0  0  0  0  0  0
   -3.9726   -0.2854    7.1671 C   0  0  0  0  0  0  0  0  0  0  0  0
   -3.2287   -0.8731    8.1413 F   0  0  0  0  0  0  0  0  0  0  0  0
   -3.3236   -0.5467    5.9982 F   0  0  0  0  0  0  0  0  0  0  0  0
   -5.3784   -0.7916    7.1290 C   0  0  0  0  0  0  0  0  0  0  0  0
   -5.5858   -2.0899    6.6735 C   0  0  0  0  0  0  0  0  0  0  0  0
   -6.8635   -2.6019    6.6927 C   0  0  0  0  0  0  0  0  0  0  0  0
   -7.1321   -4.2187    6.3052 Cl  0  0  0  0  0  0  0  0  0  0  0  0
   -7.9406   -1.8540    7.1272 C   0  0  0  0  0  0  0  0  0  0  0  0
   -7.7760   -0.5547    7.6086 C   0  0  0  0  0  0  0  0  0  0  0  0
   -8.8332    0.1477    8.1987 N   0  0  0  0  0  0  0  0  0  0  0  0
  -10.0830   -0.6258    8.3894 C   0  0  0  0  0  0  0  0  0  0  0  0
  -11.0919    0.1218    9.2572 C   0  0  0  0  0  0  0  0  0  0  0  0
  -11.4174    1.4524    8.7005 N   0  0  0  0  0  0  0  0  0  0  0  0
  -12.3863    2.1543    9.5509 C   0  0  0  0  0  0  0  0  0  0  0  0
  -13.6561    1.3807    9.6510 C   0  0  0  0  0  0  0  0  0  0  0  0
  -14.2591    0.8302   10.8278 C   0  0  0  0  0  0  0  0  0  0  0  0
  -15.4067    0.1713   10.5859 N   0  0  0  0  0  0  0  0  0  0  0  0
  -15.4983    0.2754    9.2618 N   0  0  0  0  0  0  0  0  0  0  0  0
  -14.5201    0.9905    8.6611 C   0  0  0  0  0  0  0  0  0  0  0  0
  -14.7425    1.0677    7.2056 C   0  0  0  0  0  0  0  0  0  0  0  0
  -15.8593    0.0102    6.9955 C   0  0  0  0  0  0  0  0  0  0  0  0
  -16.5479   -0.1556    8.3625 C   0  0  0  0  0  0  0  0  0  0  0  0
  -10.1585    2.2230    8.5944 C   0  0  0  0  0  0  0  0  0  0  0  0
   -9.0803    1.5217    7.7263 C   0  0  0  0  0  0  0  0  0  0  0  0
   -6.4737   -0.0332    7.5854 C   0  0  0  0  0  0  0  0  0  0  0  0
  1  2  1  0
  2  3  1  0
  2  4  1  0
  2  5  1  0
  5  6  2  0
  6  7  1  0
  7  8  1  0
  7  9  2  0
  9 10  1  0
 10 11  1  0
 11 12  1  0
 12 13  1  0
 13 14  1  0
 14 15  1  0
 15 16  1  0
 16 17  1  0
 17 18  2  0
 18 19  1  0
 19 20  1  0
 20 21  1  0
 21 22  1  0
 22 23  1  0
 14 24  1  0
 24 25  1  0
 10 26  2  0
 26  5  1  0
 25 11  1  0
 20 16  2  0
 23 19  1  0
M  END
>  <ref_mols>  (1538) 
B0426a

>  <gnina_score>  (1538) 
5.773

>  <smina_score_min>  (1538) 
-5.85

>  <ref_pdb>  (1538) 
B0426a

>  <inspiration_score>  (1538) 
None

>  <inchikey>  (1538) 
DUIRFWURYAEUSK-UHFFFAOYSA-N

>  <tags>  (1538) 
BulkDock Fragalysis export,openbind_d68ev3c_c2_elabs_scored,openbind_d68ev3c_c2_elabs_scored_4.5plus,openbind_d68ev3c_c2_elabs,openbind_d68ev3c_c2_elabs_scored_5plus,syndirella_product,openbind_d68ev3c_c2_elabs_scored_top80percent,syndirella_placed

>  <smiles>  (1538) 
FC(F)(F)c1cc(Cl)cc(N2CCN(Cc3cnn4c3CCC4)CC2)c1

>  <subsites>  (1538) 
None

>  <rmsd(smina/fragmenstein)>  (1538) 
0.931

>  <alias>  (1538) 
None

>  <energy_score>  (1538) 
-40.991167

>  <HIPPO Pose ID>  (1538) 
131557

>  <distance_score>  (1538) 
0.614666

>  <HIPPO Compound ID>  (1538) 
157588

>  <gnina_score_min>  (1538) 
5.761

>  <name>  (1538) 
P131557

>  <exports>  (1538) 
['/opt/xchem-fragalysis-2/maxwin/BulkDock/OUTPUTS/openbind_d68ev3c_c2_elabs_1LOTQJ3.sdf', '/opt/xchem-fragalysis-2/maxwin/BulkDock/OUTPUTS/openbind_d68ev3c_c2_elabs_1LSYI5W.sdf']

$$$$
P131558
     RDKit          3D

 26 28  0  0  0  0  0  0  0  0999 V2000
  -16.7635   -0.0906    8.9961 C   0  0  0  0  0  0  0  0  0  0  0  0
  -15.4847    0.3268    9.5128 N   0  0  0  0  0  0  0  0  0  0  0  0
  -15.1957    0.1463   10.8197 N   0  0  0  0  0  0  0  0  0  0  0  0
  -14.0172    0.7590   10.9585 C   0  0  0  0  0  0  0  0  0  0  0  0
  -13.5281    1.3126    9.7476 C   0  0  0  0  0  0  0  0  0  0  0  0
  -12.2365    2.0472    9.5807 C   0  0  2  0  0  0  0  0  0  0  0  0
  -12.4897    3.3277    9.0281 O   0  0  0  0  0  0  0  0  0  0  0  0
  -11.3246    1.3278    8.6948 N   0  0  0  0  0  0  0  0  0  0  0  0
  -11.0692   -0.0502    9.1831 C   0  0  0  0  0  0  0  0  0  0  0  0
  -10.1090   -0.8106    8.2654 C   0  0  0  0  0  0  0  0  0  0  0  0
   -8.8209   -0.1132    8.1261 N   0  0  0  0  0  0  0  0  0  0  0  0
   -7.8430   -0.8199    7.4113 C   0  0  0  0  0  0  0  0  0  0  0  0
   -8.1251   -1.9549    6.6378 C   0  0  0  0  0  0  0  0  0  0  0  0
   -7.1364   -2.5908    5.8992 C   0  0  0  0  0  0  0  0  0  0  0  0
   -5.8339   -2.1124    5.9347 C   0  0  0  0  0  0  0  0  0  0  0  0
   -4.7364   -2.8337    4.8369 Cl  0  0  0  0  0  0  0  0  0  0  0  0
   -5.4865   -1.0503    6.7705 C   0  0  0  0  0  0  0  0  0  0  0  0
   -4.0709   -0.5931    6.9401 C   0  0  0  0  0  0  0  0  0  0  0  0
   -3.3820   -0.5281    5.7703 F   0  0  0  0  0  0  0  0  0  0  0  0
   -3.3483   -1.3976    7.7656 F   0  0  0  0  0  0  0  0  0  0  0  0
   -3.9697    0.6601    7.4747 F   0  0  0  0  0  0  0  0  0  0  0  0
   -6.5067   -0.4132    7.4959 C   0  0  0  0  0  0  0  0  0  0  0  0
   -8.9815    1.3005    7.7285 C   0  0  0  0  0  0  0  0  0  0  0  0
  -10.0108    2.0201    8.6347 C   0  0  0  0  0  0  0  0  0  0  0  0
  -14.5080    0.9913    8.8297 C   0  0  0  0  0  0  0  0  0  0  0  0
  -14.5059    1.4090    6.9714 Br  0  0  0  0  0  0  0  0  0  0  0  0
  1  2  1  0
  2  3  1  0
  3  4  2  0
  4  5  1  0
  5  6  1  0
  6  7  1  6
  6  8  1  0
  8  9  1  0
  9 10  1  0
 10 11  1  0
 11 12  1  0
 12 13  2  0
 13 14  1  0
 14 15  2  0
 15 16  1  0
 15 17  1  0
 17 18  1  0
 18 19  1  0
 18 20  1  0
 18 21  1  0
 17 22  2  0
 11 23  1  0
 23 24  1  0
  5 25  2  0
 25 26  1  0
 25  2  1  0
 24  8  1  0
 22 12  1  0
M  END
>  <ref_mols>  (1539) 
B0426a

>  <gnina_score>  (1539) 
5.566

>  <smina_score_min>  (1539) 
-6.301

>  <ref_pdb>  (1539) 
B0426a

>  <inspiration_score>  (1539) 
None

>  <inchikey>  (1539) 
XIGRVPOLYJXFMZ-HNNXBMFYSA-N

>  <tags>  (1539) 
BulkDock Fragalysis export,openbind_d68ev3c_c2_elabs_scored,openbind_d68ev3c_c2_elabs_scored_4.5plus,openbind_d68ev3c_c2_elabs,openbind_d68ev3c_c2_elabs_scored_5plus,syndirella_product,openbind_d68ev3c_c2_elabs_scored_top80percent,syndirella_placed

>  <smiles>  (1539) 
Cn1ncc([C@H](O)N2CCN(c3ccc(Cl)c(C(F)(F)F)c3)CC2)c1Br

>  <subsites>  (1539) 
None

>  <rmsd(smina/fragmenstein)>  (1539) 
1.091

>  <alias>  (1539) 
None

>  <energy_score>  (1539) 
-57.250455

>  <HIPPO Pose ID>  (1539) 
131558

>  <distance_score>  (1539) 
0.511754

>  <HIPPO Compound ID>  (1539) 
157589

>  <gnina_score_min>  (1539) 
5.756

>  <name>  (1539) 
P131558

>  <exports>  (1539) 
['/opt/xchem-fragalysis-2/maxwin/BulkDock/OUTPUTS/openbind_d68ev3c_c2_elabs_1LOTQJ3.sdf', '/opt/xchem-fragalysis-2/maxwin/BulkDock/OUTPUTS/openbind_d68ev3c_c2_elabs_1LSYI5W.sdf']

$$$$
P131560
     RDKit          3D

 26 28  0  0  0  0  0  0  0  0999 V2000
   -3.3448   -1.4193    7.7574 F   0  0  0  0  0  0  0  0  0  0  0  0
   -4.0608   -0.6129    6.9279 C   0  0  0  0  0  0  0  0  0  0  0  0
   -3.9506    0.6416    7.4588 F   0  0  0  0  0  0  0  0  0  0  0  0
   -3.3690   -0.5561    5.7594 F   0  0  0  0  0  0  0  0  0  0  0  0
   -5.4792   -1.0597    6.7577 C   0  0  0  0  0  0  0  0  0  0  0  0
   -6.4920   -0.4185    7.4888 C   0  0  0  0  0  0  0  0  0  0  0  0
   -7.8315   -0.8140    7.4050 C   0  0  0  0  0  0  0  0  0  0  0  0
   -8.7973   -0.1040    8.1304 N   0  0  0  0  0  0  0  0  0  0  0  0
  -10.0843   -0.8027    8.2963 C   0  0  0  0  0  0  0  0  0  0  0  0
  -11.0185   -0.0390    9.2377 C   0  0  0  0  0  0  0  0  0  0  0  0
  -11.2752    1.3437    8.7624 N   0  0  0  0  0  0  0  0  0  0  0  0
  -12.1567    2.0698    9.6852 C   0  0  0  0  0  0  0  0  0  0  0  0
  -13.4758    1.3859    9.7791 C   0  0  0  0  0  0  0  0  0  0  0  0
  -14.0504    0.7767   10.9173 C   0  0  0  0  0  0  0  0  0  0  0  0
  -15.2210    0.1924   10.6514 N   0  0  0  0  0  0  0  0  0  0  0  0
  -15.3779    0.3928    9.3250 N   0  0  0  0  0  0  0  0  0  0  0  0
  -16.5528   -0.1331    8.6633 C   0  0  0  0  0  0  0  0  0  0  0  0
  -16.3000   -0.7157    7.2802 C   0  0  0  0  0  0  0  0  0  0  0  0
  -16.6728    0.4875    6.0075 Cl  0  0  0  0  0  0  0  0  0  0  0  0
  -14.3930    1.1536    8.7759 C   0  0  0  0  0  0  0  0  0  0  0  0
   -9.9711    2.0347    8.6505 C   0  0  0  0  0  0  0  0  0  0  0  0
   -8.9713    1.3048    7.7192 C   0  0  0  0  0  0  0  0  0  0  0  0
   -8.1275   -1.9389    6.6233 C   0  0  0  0  0  0  0  0  0  0  0  0
   -7.1456   -2.5794    5.8796 C   0  0  0  0  0  0  0  0  0  0  0  0
   -5.8379   -2.1144    5.9171 C   0  0  0  0  0  0  0  0  0  0  0  0
   -4.7477   -2.8425    4.8159 Cl  0  0  0  0  0  0  0  0  0  0  0  0
  1  2  1  0
  2  3  1  0
  2  4  1  0
  2  5  1  0
  5  6  2  0
  6  7  1  0
  7  8  1  0
  8  9  1  0
  9 10  1  0
 10 11  1  0
 11 12  1  0
 12 13  1  0
 13 14  1  0
 14 15  2  0
 15 16  1  0
 16 17  1  0
 17 18  1  0
 18 19  1  0
 16 20  1  0
 11 21  1  0
 21 22  1  0
  7 23  2  0
 23 24  1  0
 24 25  2  0
 25 26  1  0
 25  5  1  0
 22  8  1  0
 20 13  2  0
M  END
>  <ref_mols>  (1540) 
B0426a

>  <gnina_score>  (1540) 
5.524

>  <smina_score_min>  (1540) 
-5.461

>  <ref_pdb>  (1540) 
B0426a

>  <inspiration_score>  (1540) 
None

>  <inchikey>  (1540) 
WVTPFLKBAGJJML-UHFFFAOYSA-N

>  <tags>  (1540) 
BulkDock Fragalysis export,openbind_d68ev3c_c2_elabs_scored,openbind_d68ev3c_c2_elabs_scored_4.5plus,openbind_d68ev3c_c2_elabs,openbind_d68ev3c_c2_elabs_scored_5plus,syndirella_product,openbind_d68ev3c_c2_elabs_scored_top80percent,syndirella_placed

>  <smiles>  (1540) 
FC(F)(F)c1cc(N2CCN(Cc3cnn(CCCl)c3)CC2)ccc1Cl

>  <subsites>  (1540) 
None

>  <rmsd(smina/fragmenstein)>  (1540) 
0.768

>  <alias>  (1540) 
None

>  <energy_score>  (1540) 
-51.162179

>  <HIPPO Pose ID>  (1540) 
131560

>  <distance_score>  (1540) 
0.557565

>  <HIPPO Compound ID>  (1540) 
157590

>  <gnina_score_min>  (1540) 
5.66

>  <name>  (1540) 
P131560

>  <exports>  (1540) 
['/opt/xchem-fragalysis-2/maxwin/BulkDock/OUTPUTS/openbind_d68ev3c_c2_elabs_1LOTQJ3.sdf', '/opt/xchem-fragalysis-2/maxwin/BulkDock/OUTPUTS/openbind_d68ev3c_c2_elabs_1LSYI5W.sdf']

$$$$
P131561
     RDKit          3D

 26 28  0  0  0  0  0  0  0  0999 V2000
  -16.5562   -0.1559    8.6258 C   0  0  0  0  0  0  0  0  0  0  0  0
  -15.3682    0.2877    9.3098 N   0  0  0  0  0  0  0  0  0  0  0  0
  -14.2580    0.8069    8.7177 C   0  0  0  0  0  0  0  0  0  0  0  0
  -13.4081    1.1917    9.7391 C   0  0  0  0  0  0  0  0  0  0  0  0
  -12.0540    1.8109    9.6361 C   0  0  0  0  0  0  0  0  0  0  0  0
  -11.2189    1.2038    8.5809 N   0  0  0  0  0  0  0  0  0  0  0  0
  -11.0482   -0.2598    8.7857 C   0  0  0  0  0  0  0  0  0  0  0  0
  -10.0936   -0.8849    7.7490 C   0  0  0  0  0  0  0  0  0  0  0  0
   -8.7649   -0.2488    7.8330 N   0  0  0  0  0  0  0  0  0  0  0  0
   -7.7149   -0.8636    7.1459 C   0  0  0  0  0  0  0  0  0  0  0  0
   -7.9000   -1.7678    6.0900 C   0  0  0  0  0  0  0  0  0  0  0  0
   -6.8106   -2.3148    5.4030 C   0  0  0  0  0  0  0  0  0  0  0  0
   -7.0188   -3.0929    4.2168 C   0  0  0  0  0  0  0  0  0  0  0  0
   -7.1656   -3.6845    3.2272 N   0  0  0  0  0  0  0  0  0  0  0  0
   -5.5120   -2.0074    5.8041 C   0  0  0  0  0  0  0  0  0  0  0  0
   -5.2962   -1.1092    6.8555 C   0  0  0  0  0  0  0  0  0  0  0  0
   -3.9035   -0.7020    7.2357 C   0  0  0  0  0  0  0  0  0  0  0  0
   -3.8032    0.6141    7.5693 F   0  0  0  0  0  0  0  0  0  0  0  0
   -3.0349   -0.8842    6.2060 F   0  0  0  0  0  0  0  0  0  0  0  0
   -3.4020   -1.4036    8.2811 F   0  0  0  0  0  0  0  0  0  0  0  0
   -6.3992   -0.5616    7.5209 C   0  0  0  0  0  0  0  0  0  0  0  0
   -8.8479    1.2179    7.6549 C   0  0  0  0  0  0  0  0  0  0  0  0
   -9.8712    1.8300    8.6389 C   0  0  0  0  0  0  0  0  0  0  0  0
  -14.1470    0.8900   10.9112 C   0  0  0  0  0  0  0  0  0  0  0  0
  -13.5717    1.3251   12.8671 I   0  0  0  0  0  0  0  0  0  0  0  0
  -15.3251    0.3160   10.6528 N   0  0  0  0  0  0  0  0  0  0  0  0
  1  2  1  0
  2  3  1  0
  3  4  2  0
  4  5  1  0
  5  6  1  0
  6  7  1  0
  7  8  1  0
  8  9  1  0
  9 10  1  0
 10 11  2  0
 11 12  1  0
 12 13  1  0
 13 14  3  0
 12 15  2  0
 15 16  1  0
 16 17  1  0
 17 18  1  0
 17 19  1  0
 17 20  1  0
 16 21  2  0
  9 22  1  0
 22 23  1  0
  4 24  1  0
 24 25  1  0
 24 26  2  0
 26  2  1  0
 23  6  1  0
 21 10  1  0
M  END
>  <ref_mols>  (1541) 
B0426a

>  <gnina_score>  (1541) 
5.831

>  <smina_score_min>  (1541) 
-5.744

>  <ref_pdb>  (1541) 
B0426a

>  <inspiration_score>  (1541) 
None

>  <inchikey>  (1541) 
WKMWRNJQQZJREU-UHFFFAOYSA-N

>  <tags>  (1541) 
BulkDock Fragalysis export,openbind_d68ev3c_c2_elabs_scored,openbind_d68ev3c_c2_elabs_scored_4.5plus,openbind_d68ev3c_c2_elabs,openbind_d68ev3c_c2_elabs_scored_5plus,syndirella_product,openbind_d68ev3c_c2_elabs_scored_top80percent,syndirella_placed

>  <smiles>  (1541) 
Cn1cc(CN2CCN(c3cc(C#N)cc(C(F)(F)F)c3)CC2)c(I)n1

>  <subsites>  (1541) 
None

>  <rmsd(smina/fragmenstein)>  (1541) 
0.788

>  <alias>  (1541) 
None

>  <energy_score>  (1541) 
-47.093062

>  <HIPPO Pose ID>  (1541) 
131561

>  <distance_score>  (1541) 
0.560932

>  <HIPPO Compound ID>  (1541) 
157591

>  <gnina_score_min>  (1541) 
6.028

>  <name>  (1541) 
P131561

>  <exports>  (1541) 
['/opt/xchem-fragalysis-2/maxwin/BulkDock/OUTPUTS/openbind_d68ev3c_c2_elabs_1LOTQJ3.sdf', '/opt/xchem-fragalysis-2/maxwin/BulkDock/OUTPUTS/openbind_d68ev3c_c2_elabs_1LSYI5W.sdf']

$$$$
P131562
     RDKit          3D

 26 28  0  0  0  0  0  0  0  0999 V2000
  -13.4320    0.9642   12.3604 C   0  0  0  0  0  0  0  0  0  0  0  0
  -14.0369    0.8699   11.0072 C   0  0  0  0  0  0  0  0  0  0  0  0
  -15.2132    0.2555   10.8396 N   0  0  0  0  0  0  0  0  0  0  0  0
  -15.4526    0.3669    9.5193 N   0  0  0  0  0  0  0  0  0  0  0  0
  -16.7089   -0.0949    8.9823 C   0  0  0  0  0  0  0  0  0  0  0  0
  -14.4611    1.0117    8.8307 C   0  0  0  0  0  0  0  0  0  0  0  0
  -14.4919    1.2126    7.3596 C   0  0  0  0  0  0  0  0  0  0  0  0
  -13.5133    1.3645    9.7779 C   0  0  0  0  0  0  0  0  0  0  0  0
  -12.2161    2.0819    9.5789 C   0  0  0  0  0  0  0  0  0  0  0  0
  -11.3139    1.3178    8.7090 N   0  0  0  0  0  0  0  0  0  0  0  0
  -10.0301    2.0350    8.5485 C   0  0  0  0  0  0  0  0  0  0  0  0
   -9.0207    1.2771    7.6522 C   0  0  0  0  0  0  0  0  0  0  0  0
   -8.8074   -0.1023    8.1409 N   0  0  0  0  0  0  0  0  0  0  0  0
   -7.8421   -0.8213    7.4220 C   0  0  0  0  0  0  0  0  0  0  0  0
   -8.1365   -1.9518    6.6493 C   0  0  0  0  0  0  0  0  0  0  0  0
   -7.1535   -2.5895    5.9039 C   0  0  0  0  0  0  0  0  0  0  0  0
   -5.8477   -2.1163    5.9327 C   0  0  0  0  0  0  0  0  0  0  0  0
   -4.7573   -2.8393    4.8274 Cl  0  0  0  0  0  0  0  0  0  0  0  0
   -5.4908   -1.0559    6.7671 C   0  0  0  0  0  0  0  0  0  0  0  0
   -4.0735   -0.6026    6.9309 C   0  0  0  0  0  0  0  0  0  0  0  0
   -3.3863   -0.5417    5.7596 F   0  0  0  0  0  0  0  0  0  0  0  0
   -3.9656    0.6512    7.4635 F   0  0  0  0  0  0  0  0  0  0  0  0
   -3.3503   -1.4077    7.7560 F   0  0  0  0  0  0  0  0  0  0  0  0
   -6.5046   -0.4162    7.4975 C   0  0  0  0  0  0  0  0  0  0  0  0
  -10.0791   -0.8185    8.3589 C   0  0  0  0  0  0  0  0  0  0  0  0
  -11.0230   -0.0237    9.2662 C   0  0  0  0  0  0  0  0  0  0  0  0
  1  2  1  0
  2  3  2  0
  3  4  1  0
  4  5  1  0
  4  6  1  0
  6  7  1  0
  6  8  2  0
  8  9  1  0
  9 10  1  0
 10 11  1  0
 11 12  1  0
 12 13  1  0
 13 14  1  0
 14 15  2  0
 15 16  1  0
 16 17  2  0
 17 18  1  0
 17 19  1  0
 19 20  1  0
 20 21  1  0
 20 22  1  0
 20 23  1  0
 19 24  2  0
 13 25  1  0
 25 26  1  0
  8  2  1  0
 26 10  1  0
 24 14  1  0
M  END
>  <ref_mols>  (1542) 
B0426a

>  <gnina_score>  (1542) 
5.782

>  <smina_score_min>  (1542) 
-5.417

>  <ref_pdb>  (1542) 
B0426a

>  <inspiration_score>  (1542) 
None

>  <inchikey>  (1542) 
RNMTZOFMAQYYPV-UHFFFAOYSA-N

>  <tags>  (1542) 
BulkDock Fragalysis export,openbind_d68ev3c_c2_elabs_scored,openbind_d68ev3c_c2_elabs_scored_4.5plus,openbind_d68ev3c_c2_elabs,openbind_d68ev3c_c2_elabs_scored_5plus,syndirella_product,openbind_d68ev3c_c2_elabs_scored_top80percent,syndirella_placed

>  <smiles>  (1542) 
Cc1nn(C)c(C)c1CN1CCN(c2ccc(Cl)c(C(F)(F)F)c2)CC1

>  <subsites>  (1542) 
None

>  <rmsd(smina/fragmenstein)>  (1542) 
0.112

>  <alias>  (1542) 
None

>  <energy_score>  (1542) 
-42.415042

>  <HIPPO Pose ID>  (1542) 
131562

>  <distance_score>  (1542) 
0.552103

>  <HIPPO Compound ID>  (1542) 
157592

>  <gnina_score_min>  (1542) 
5.818

>  <name>  (1542) 
P131562

>  <exports>  (1542) 
['/opt/xchem-fragalysis-2/maxwin/BulkDock/OUTPUTS/openbind_d68ev3c_c2_elabs_1LOTQJ3.sdf', '/opt/xchem-fragalysis-2/maxwin/BulkDock/OUTPUTS/openbind_d68ev3c_c2_elabs_1LSYI5W.sdf']

$$$$
P131563
     RDKit          3D

 26 28  0  0  0  0  0  0  0  0999 V2000
  -13.4649    0.8282   12.3032 C   0  0  0  0  0  0  0  0  0  0  0  0
  -14.0106    0.7418   10.9244 C   0  0  0  0  0  0  0  0  0  0  0  0
  -15.2121    0.1957   10.7107 N   0  0  0  0  0  0  0  0  0  0  0  0
  -15.3891    0.3122    9.3809 N   0  0  0  0  0  0  0  0  0  0  0  0
  -16.6349   -0.1106    8.7895 C   0  0  0  0  0  0  0  0  0  0  0  0
  -14.3448    0.9192    8.7356 C   0  0  0  0  0  0  0  0  0  0  0  0
  -14.3185    1.1522    7.2690 C   0  0  0  0  0  0  0  0  0  0  0  0
  -13.4059    1.1948    9.7164 C   0  0  0  0  0  0  0  0  0  0  0  0
  -12.0645    1.8414    9.5944 C   0  0  0  0  0  0  0  0  0  0  0  0
  -11.2039    1.2236    8.5709 N   0  0  0  0  0  0  0  0  0  0  0  0
   -9.8533    1.8298    8.6657 C   0  0  0  0  0  0  0  0  0  0  0  0
   -8.8247    1.2201    7.6884 C   0  0  0  0  0  0  0  0  0  0  0  0
   -8.7562   -0.2487    7.8544 N   0  0  0  0  0  0  0  0  0  0  0  0
   -7.7006   -0.8577    7.1670 C   0  0  0  0  0  0  0  0  0  0  0  0
   -7.8748   -1.7436    6.0951 C   0  0  0  0  0  0  0  0  0  0  0  0
   -6.7748   -2.2682    5.4173 C   0  0  0  0  0  0  0  0  0  0  0  0
   -6.9938   -3.1714    3.9700 Cl  0  0  0  0  0  0  0  0  0  0  0  0
   -5.4823   -1.9705    5.8245 C   0  0  0  0  0  0  0  0  0  0  0  0
   -5.2772   -1.0911    6.8900 C   0  0  0  0  0  0  0  0  0  0  0  0
   -3.8892   -0.6852    7.2775 C   0  0  0  0  0  0  0  0  0  0  0  0
   -3.0085   -0.8775    6.2594 F   0  0  0  0  0  0  0  0  0  0  0  0
   -3.3973   -1.3759    8.3348 F   0  0  0  0  0  0  0  0  0  0  0  0
   -3.7891    0.6345    7.5991 F   0  0  0  0  0  0  0  0  0  0  0  0
   -6.3870   -0.5600    7.5581 C   0  0  0  0  0  0  0  0  0  0  0  0
  -10.0928   -0.8696    7.7315 C   0  0  0  0  0  0  0  0  0  0  0  0
  -11.0674   -0.2452    8.7530 C   0  0  0  0  0  0  0  0  0  0  0  0
  1  2  1  0
  2  3  2  0
  3  4  1  0
  4  5  1  0
  4  6  1  0
  6  7  1  0
  6  8  2  0
  8  9  1  0
  9 10  1  0
 10 11  1  0
 11 12  1  0
 12 13  1  0
 13 14  1  0
 14 15  2  0
 15 16  1  0
 16 17  1  0
 16 18  2  0
 18 19  1  0
 19 20  1  0
 20 21  1  0
 20 22  1  0
 20 23  1  0
 19 24  2  0
 13 25  1  0
 25 26  1  0
  8  2  1  0
 26 10  1  0
 24 14  1  0
M  END
>  <ref_mols>  (1543) 
B0426a

>  <gnina_score>  (1543) 
5.875

>  <smina_score_min>  (1543) 
-5.599

>  <ref_pdb>  (1543) 
B0426a

>  <inspiration_score>  (1543) 
None

>  <inchikey>  (1543) 
PKCHYZVYIMLRMG-UHFFFAOYSA-N

>  <tags>  (1543) 
BulkDock Fragalysis export,openbind_d68ev3c_c2_elabs_scored,openbind_d68ev3c_c2_elabs_scored_4.5plus,openbind_d68ev3c_c2_elabs,openbind_d68ev3c_c2_elabs_scored_5plus,syndirella_product,openbind_d68ev3c_c2_elabs_scored_top80percent,syndirella_placed

>  <smiles>  (1543) 
Cc1nn(C)c(C)c1CN1CCN(c2cc(Cl)cc(C(F)(F)F)c2)CC1

>  <subsites>  (1543) 
None

>  <rmsd(smina/fragmenstein)>  (1543) 
0.472

>  <alias>  (1543) 
None

>  <energy_score>  (1543) 
-44.368593

>  <HIPPO Pose ID>  (1543) 
131563

>  <distance_score>  (1543) 
0.541728

>  <HIPPO Compound ID>  (1543) 
157593

>  <gnina_score_min>  (1543) 
5.864

>  <name>  (1543) 
P131563

>  <exports>  (1543) 
['/opt/xchem-fragalysis-2/maxwin/BulkDock/OUTPUTS/openbind_d68ev3c_c2_elabs_1LOTQJ3.sdf', '/opt/xchem-fragalysis-2/maxwin/BulkDock/OUTPUTS/openbind_d68ev3c_c2_elabs_1LSYI5W.sdf']

$$$$
P131564
     RDKit          3D

 26 28  0  0  0  0  0  0  0  0999 V2000
  -13.1392    1.5417   14.3647 C   0  0  0  0  0  0  0  0  0  0  0  0
  -14.1518    1.1549   13.4159 N   0  0  0  0  0  0  0  0  0  0  0  0
  -13.9452    0.8669   12.1002 C   0  0  0  0  0  0  0  0  0  0  0  0
  -15.1803    0.5521   11.5655 C   0  0  0  0  0  0  0  0  0  0  0  0
  -15.5458    0.1903   10.1655 C   0  0  0  0  0  0  0  0  0  0  0  0
  -14.8681    1.0852    9.2295 N   0  0  0  0  0  0  0  0  0  0  0  0
  -13.5553    0.5602    8.8486 C   0  0  0  0  0  0  0  0  0  0  0  0
  -12.6166    1.6840    8.3539 C   0  0  0  0  0  0  0  0  0  0  0  0
  -11.2711    1.2815    7.9209 N   0  0  0  0  0  0  0  0  0  0  0  0
  -11.2933    0.0339    7.1279 C   0  0  0  0  0  0  0  0  0  0  0  0
   -9.9067   -0.3533    6.5960 C   0  0  0  0  0  0  0  0  0  0  0  0
   -8.9441   -0.4745    7.7126 N   0  0  0  0  0  0  0  0  0  0  0  0
   -7.7621   -1.1218    7.3469 C   0  0  0  0  0  0  0  0  0  0  0  0
   -7.8284   -2.4269    6.8264 C   0  0  0  0  0  0  0  0  0  0  0  0
   -6.6942   -3.1046    6.3874 C   0  0  0  0  0  0  0  0  0  0  0  0
   -5.4524   -2.4949    6.4907 C   0  0  0  0  0  0  0  0  0  0  0  0
   -5.3387   -1.2156    7.0478 C   0  0  0  0  0  0  0  0  0  0  0  0
   -3.9806   -0.5918    7.1758 C   0  0  0  0  0  0  0  0  0  0  0  0
   -3.2586   -0.7256    6.0284 F   0  0  0  0  0  0  0  0  0  0  0  0
   -3.2287   -1.1578    8.1569 F   0  0  0  0  0  0  0  0  0  0  0  0
   -4.0036    0.7440    7.4418 F   0  0  0  0  0  0  0  0  0  0  0  0
   -6.4948   -0.5438    7.4770 C   0  0  0  0  0  0  0  0  0  0  0  0
   -8.8986    0.7415    8.5472 C   0  0  0  0  0  0  0  0  0  0  0  0
  -10.3211    1.1162    9.0414 C   0  0  0  0  0  0  0  0  0  0  0  0
  -16.0576    0.6615   12.6739 C   0  0  0  0  0  0  0  0  0  0  0  0
  -15.4342    1.0218   13.7998 N   0  0  0  0  0  0  0  0  0  0  0  0
  1  2  1  0
  2  3  1  0
  3  4  2  0
  4  5  1  0
  5  6  1  0
  6  7  1  0
  7  8  1  0
  8  9  1  0
  9 10  1  0
 10 11  1  0
 11 12  1  0
 12 13  1  0
 13 14  2  0
 14 15  1  0
 15 16  2  0
 16 17  1  0
 17 18  1  0
 18 19  1  0
 18 20  1  0
 18 21  1  0
 17 22  2  0
 12 23  1  0
 23 24  1  0
  4 25  1  0
 25 26  2  0
 26  2  1  0
 24  9  1  0
 22 13  1  0
M  END
>  <ref_mols>  (1544) 
B0426a

>  <gnina_score>  (1544) 
5.348

>  <smina_score_min>  (1544) 
-6.258

>  <ref_pdb>  (1544) 
B0426a

>  <inspiration_score>  (1544) 
None

>  <inchikey>  (1544) 
ZYGMHCFVADOWGD-UHFFFAOYSA-N

>  <tags>  (1544) 
BulkDock Fragalysis export,openbind_d68ev3c_c2_elabs_scored,openbind_d68ev3c_c2_elabs_scored_4.5plus,openbind_d68ev3c_c2_elabs,openbind_d68ev3c_c2_elabs_scored_5plus,syndirella_product,openbind_d68ev3c_c2_elabs_scored_top80percent,syndirella_placed

>  <smiles>  (1544) 
Cn1cc(CNCCN2CCN(c3cccc(C(F)(F)F)c3)CC2)cn1

>  <subsites>  (1544) 
None

>  <rmsd(smina/fragmenstein)>  (1544) 
0.677

>  <alias>  (1544) 
None

>  <energy_score>  (1544) 
-52.07698

>  <HIPPO Pose ID>  (1544) 
131564

>  <distance_score>  (1544) 
0.654022

>  <HIPPO Compound ID>  (1544) 
157594

>  <gnina_score_min>  (1544) 
5.334

>  <name>  (1544) 
P131564

>  <exports>  (1544) 
['/opt/xchem-fragalysis-2/maxwin/BulkDock/OUTPUTS/openbind_d68ev3c_c2_elabs_1LOTQJ3.sdf', '/opt/xchem-fragalysis-2/maxwin/BulkDock/OUTPUTS/openbind_d68ev3c_c2_elabs_1LSYI5W.sdf']

$$$$
P131565
     RDKit          3D

 26 28  0  0  0  0  0  0  0  0999 V2000
   -9.0587    5.6823    7.4162 C   0  0  0  0  0  0  0  0  0  0  0  0
   -8.7890    4.2178    7.7310 C   0  0  0  0  0  0  0  0  0  0  0  0
  -10.0948    3.4371    7.9218 C   0  0  0  0  0  0  0  0  0  0  0  0
   -9.9166    1.9794    8.4335 C   0  0  2  0  0  0  0  0  0  0  0  0
   -8.8852    1.2236    7.5244 C   0  0  0  0  0  0  0  0  0  0  0  0
   -8.7667   -0.2014    7.8858 N   0  0  0  0  0  0  0  0  0  0  0  0
   -7.7072   -0.9175    7.3151 C   0  0  0  0  0  0  0  0  0  0  0  0
   -7.8747   -2.1372    6.6352 C   0  0  0  0  0  0  0  0  0  0  0  0
   -6.7919   -2.8580    6.1277 C   0  0  0  0  0  0  0  0  0  0  0  0
   -5.5044   -2.3700    6.2887 C   0  0  0  0  0  0  0  0  0  0  0  0
   -5.2934   -1.1655    6.9670 C   0  0  0  0  0  0  0  0  0  0  0  0
   -3.8976   -0.6557    7.1565 C   0  0  0  0  0  0  0  0  0  0  0  0
   -3.1488   -0.8323    6.0332 F   0  0  0  0  0  0  0  0  0  0  0  0
   -3.2288   -1.2883    8.1558 F   0  0  0  0  0  0  0  0  0  0  0  0
   -3.8272    0.6758    7.4361 F   0  0  0  0  0  0  0  0  0  0  0  0
   -6.3929   -0.4612    7.4793 C   0  0  0  0  0  0  0  0  0  0  0  0
  -10.0720   -0.8696    7.9236 C   0  0  0  0  0  0  0  0  0  0  0  0
  -11.0180   -0.1402    8.8836 C   0  0  0  0  0  0  0  0  0  0  0  0
  -11.2501    1.2860    8.5260 N   0  0  0  0  0  0  0  0  0  0  0  0
  -12.1109    1.9246    9.5448 C   0  0  0  0  0  0  0  0  0  0  0  0
  -13.4066    1.2069    9.7371 C   0  0  0  0  0  0  0  0  0  0  0  0
  -13.8902    0.6293   10.9355 C   0  0  0  0  0  0  0  0  0  0  0  0
  -15.0958    0.0720   10.7938 N   0  0  0  0  0  0  0  0  0  0  0  0
  -15.3882    0.2923    9.4976 N   0  0  0  0  0  0  0  0  0  0  0  0
  -16.6719   -0.0868    8.9648 C   0  0  0  0  0  0  0  0  0  0  0  0
  -14.4122    0.9636    8.8240 C   0  0  0  0  0  0  0  0  0  0  0  0
  1  2  1  0
  2  3  1  0
  4  3  1  6
  4  5  1  0
  5  6  1  0
  6  7  1  0
  7  8  2  0
  8  9  1  0
  9 10  2  0
 10 11  1  0
 11 12  1  0
 12 13  1  0
 12 14  1  0
 12 15  1  0
 11 16  2  0
  6 17  1  0
 17 18  1  0
 18 19  1  0
 19 20  1  0
 20 21  1  0
 21 22  1  0
 22 23  2  0
 23 24  1  0
 24 25  1  0
 24 26  1  0
 19  4  1  0
 26 21  2  0
 16  7  1  0
M  END
>  <ref_mols>  (1545) 
B0426a

>  <gnina_score>  (1545) 
5.6

>  <smina_score_min>  (1545) 
-5.735

>  <ref_pdb>  (1545) 
B0426a

>  <inspiration_score>  (1545) 
None

>  <inchikey>  (1545) 
MXQMNSOKMXVGIX-GOSISDBHSA-N

>  <tags>  (1545) 
BulkDock Fragalysis export,openbind_d68ev3c_c2_elabs_scored,openbind_d68ev3c_c2_elabs_scored_4.5plus,openbind_d68ev3c_c2_elabs,openbind_d68ev3c_c2_elabs_scored_5plus,syndirella_product,openbind_d68ev3c_c2_elabs_scored_top80percent,syndirella_placed

>  <smiles>  (1545) 
CCC[C@@H]1CN(c2cccc(C(F)(F)F)c2)CCN1Cc1cnn(C)c1

>  <subsites>  (1545) 
None

>  <rmsd(smina/fragmenstein)>  (1545) 
1.195

>  <alias>  (1545) 
None

>  <energy_score>  (1545) 
-46.762295

>  <HIPPO Pose ID>  (1545) 
131565

>  <distance_score>  (1545) 
0.41624

>  <HIPPO Compound ID>  (1545) 
157595

>  <gnina_score_min>  (1545) 
5.771

>  <name>  (1545) 
P131565

>  <exports>  (1545) 
['/opt/xchem-fragalysis-2/maxwin/BulkDock/OUTPUTS/openbind_d68ev3c_c2_elabs_1LOTQJ3.sdf', '/opt/xchem-fragalysis-2/maxwin/BulkDock/OUTPUTS/openbind_d68ev3c_c2_elabs_1LSYI5W.sdf']

$$$$
P131567
     RDKit          3D

 26 28  0  0  0  0  0  0  0  0999 V2000
  -17.0177   -0.5604    7.4916 C   0  0  0  0  0  0  0  0  0  0  0  0
  -16.9729    0.3834    8.6801 C   0  0  0  0  0  0  0  0  0  0  0  0
  -15.6580    0.5392    9.2758 N   0  0  0  0  0  0  0  0  0  0  0  0
  -15.4598    0.1088   10.5411 N   0  0  0  0  0  0  0  0  0  0  0  0
  -14.2268    0.5265   10.8258 C   0  0  0  0  0  0  0  0  0  0  0  0
  -13.6325    1.2531    9.7703 C   0  0  0  0  0  0  0  0  0  0  0  0
  -12.2695    1.8629    9.7837 C   0  0  0  0  0  0  0  0  0  0  0  0
  -11.3958    1.3144    8.7350 N   0  0  0  0  0  0  0  0  0  0  0  0
  -10.0252    1.8568    8.9140 C   0  0  0  0  0  0  0  0  0  0  0  0
   -8.9822    1.2806    7.9243 C   0  0  0  0  0  0  0  0  0  0  0  0
   -8.9824   -0.1979    7.9625 N   0  0  0  0  0  0  0  0  0  0  0  0
   -7.9511   -0.8573    7.2871 C   0  0  0  0  0  0  0  0  0  0  0  0
   -8.1801   -1.9509    6.4395 C   0  0  0  0  0  0  0  0  0  0  0  0
   -7.1478   -2.5715    5.7497 C   0  0  0  0  0  0  0  0  0  0  0  0
   -5.8482   -2.1096    5.8905 C   0  0  0  0  0  0  0  0  0  0  0  0
   -4.6884   -2.8164    4.8521 Cl  0  0  0  0  0  0  0  0  0  0  0  0
   -5.5507   -1.0795    6.7814 C   0  0  0  0  0  0  0  0  0  0  0  0
   -4.1471   -0.6137    7.0264 C   0  0  0  0  0  0  0  0  0  0  0  0
   -4.0837    0.6289    7.5912 F   0  0  0  0  0  0  0  0  0  0  0  0
   -3.4505   -1.4284    7.8639 F   0  0  0  0  0  0  0  0  0  0  0  0
   -3.4045   -0.5123    5.8912 F   0  0  0  0  0  0  0  0  0  0  0  0
   -6.6145   -0.4773    7.4797 C   0  0  0  0  0  0  0  0  0  0  0  0
  -10.3451   -0.7421    7.7775 C   0  0  0  0  0  0  0  0  0  0  0  0
  -11.3147   -0.1647    8.8152 C   0  0  0  0  0  0  0  0  0  0  0  0
  -14.5961    1.2557    8.7746 C   0  0  0  0  0  0  0  0  0  0  0  0
  -14.5602    1.8581    7.4175 C   0  0  0  0  0  0  0  0  0  0  0  0
  1  2  1  0
  2  3  1  0
  3  4  1  0
  4  5  2  0
  5  6  1  0
  6  7  1  0
  7  8  1  0
  8  9  1  0
  9 10  1  0
 10 11  1  0
 11 12  1  0
 12 13  2  0
 13 14  1  0
 14 15  2  0
 15 16  1  0
 15 17  1  0
 17 18  1  0
 18 19  1  0
 18 20  1  0
 18 21  1  0
 17 22  2  0
 11 23  1  0
 23 24  1  0
  6 25  2  0
 25 26  1  0
 25  3  1  0
 24  8  1  0
 22 12  1  0
M  END
>  <ref_mols>  (1546) 
B0426a

>  <gnina_score>  (1546) 
5.671

>  <smina_score_min>  (1546) 
-5.527

>  <ref_pdb>  (1546) 
B0426a

>  <inspiration_score>  (1546) 
None

>  <inchikey>  (1546) 
VEPHADBVBUNPSP-UHFFFAOYSA-N

>  <tags>  (1546) 
BulkDock Fragalysis export,openbind_d68ev3c_c2_elabs_scored,openbind_d68ev3c_c2_elabs_scored_4.5plus,openbind_d68ev3c_c2_elabs,openbind_d68ev3c_c2_elabs_scored_5plus,syndirella_product,openbind_d68ev3c_c2_elabs_scored_top80percent,syndirella_placed

>  <smiles>  (1546) 
CCn1ncc(CN2CCN(c3ccc(Cl)c(C(F)(F)F)c3)CC2)c1C

>  <subsites>  (1546) 
None

>  <rmsd(smina/fragmenstein)>  (1546) 
0.76

>  <alias>  (1546) 
None

>  <energy_score>  (1546) 
-45.221854

>  <HIPPO Pose ID>  (1546) 
131567

>  <distance_score>  (1546) 
0.533833

>  <HIPPO Compound ID>  (1546) 
157596

>  <gnina_score_min>  (1546) 
5.69

>  <name>  (1546) 
P131567

>  <exports>  (1546) 
['/opt/xchem-fragalysis-2/maxwin/BulkDock/OUTPUTS/openbind_d68ev3c_c2_elabs_1LOTQJ3.sdf', '/opt/xchem-fragalysis-2/maxwin/BulkDock/OUTPUTS/openbind_d68ev3c_c2_elabs_1LSYI5W.sdf']

$$$$
P131568
     RDKit          3D

 26 28  0  0  0  0  0  0  0  0999 V2000
  -17.8307    0.8209    8.5523 C   0  0  0  0  0  0  0  0  0  0  0  0
  -16.6519   -0.1358    8.5285 C   0  0  0  0  0  0  0  0  0  0  0  0
  -15.4873    0.4078    9.1978 N   0  0  0  0  0  0  0  0  0  0  0  0
  -15.3467    0.2441   10.5322 N   0  0  0  0  0  0  0  0  0  0  0  0
  -14.2021    0.8733   10.8023 C   0  0  0  0  0  0  0  0  0  0  0  0
  -13.6123    1.4576    9.6577 C   0  0  0  0  0  0  0  0  0  0  0  0
  -12.3182    2.1993    9.5961 C   0  0  0  0  0  0  0  0  0  0  0  0
  -11.3662    1.4981    8.7263 N   0  0  0  0  0  0  0  0  0  0  0  0
  -10.0919    2.2434    8.6410 C   0  0  0  0  0  0  0  0  0  0  0  0
   -9.0305    1.5417    7.7551 C   0  0  0  0  0  0  0  0  0  0  0  0
   -8.8113    0.1532    8.1965 N   0  0  0  0  0  0  0  0  0  0  0  0
   -7.7582   -0.5543    7.6073 C   0  0  0  0  0  0  0  0  0  0  0  0
   -7.9299   -1.8522    7.1255 C   0  0  0  0  0  0  0  0  0  0  0  0
   -6.8569   -2.6066    6.6918 C   0  0  0  0  0  0  0  0  0  0  0  0
   -7.1354   -4.2222    6.3075 Cl  0  0  0  0  0  0  0  0  0  0  0  0
   -5.5764   -2.1018    6.6721 C   0  0  0  0  0  0  0  0  0  0  0  0
   -5.3620   -0.8048    7.1274 C   0  0  0  0  0  0  0  0  0  0  0  0
   -3.9549   -0.3033    7.1645 C   0  0  0  0  0  0  0  0  0  0  0  0
   -3.3076   -0.5682    5.9957 F   0  0  0  0  0  0  0  0  0  0  0  0
   -3.2127   -0.8911    8.1396 F   0  0  0  0  0  0  0  0  0  0  0  0
   -3.8484    1.0372    7.3569 F   0  0  0  0  0  0  0  0  0  0  0  0
   -6.4527   -0.0412    7.5848 C   0  0  0  0  0  0  0  0  0  0  0  0
  -10.0748   -0.6025    8.3655 C   0  0  0  0  0  0  0  0  0  0  0  0
  -11.0740    0.1445    9.2452 C   0  0  0  0  0  0  0  0  0  0  0  0
  -14.4817    1.1434    8.6266 C   0  0  0  0  0  0  0  0  0  0  0  0
  -14.4065    1.4473    7.1740 C   0  0  0  0  0  0  0  0  0  0  0  0
  1  2  1  0
  2  3  1  0
  3  4  1  0
  4  5  2  0
  5  6  1  0
  6  7  1  0
  7  8  1  0
  8  9  1  0
  9 10  1  0
 10 11  1  0
 11 12  1  0
 12 13  2  0
 13 14  1  0
 14 15  1  0
 14 16  2  0
 16 17  1  0
 17 18  1  0
 18 19  1  0
 18 20  1  0
 18 21  1  0
 17 22  2  0
 11 23  1  0
 23 24  1  0
  6 25  2  0
 25 26  1  0
 25  3  1  0
 24  8  1  0
 22 12  1  0
M  END
>  <ref_mols>  (1547) 
B0426a

>  <gnina_score>  (1547) 
5.729

>  <smina_score_min>  (1547) 
-5.994

>  <ref_pdb>  (1547) 
B0426a

>  <inspiration_score>  (1547) 
None

>  <inchikey>  (1547) 
VVYSUWDYVMFCQX-UHFFFAOYSA-N

>  <tags>  (1547) 
BulkDock Fragalysis export,openbind_d68ev3c_c2_elabs_scored,openbind_d68ev3c_c2_elabs_scored_4.5plus,openbind_d68ev3c_c2_elabs,openbind_d68ev3c_c2_elabs_scored_5plus,syndirella_product,openbind_d68ev3c_c2_elabs_scored_top80percent,syndirella_placed

>  <smiles>  (1547) 
CCn1ncc(CN2CCN(c3cc(Cl)cc(C(F)(F)F)c3)CC2)c1C

>  <subsites>  (1547) 
None

>  <rmsd(smina/fragmenstein)>  (1547) 
1.722

>  <alias>  (1547) 
None

>  <energy_score>  (1547) 
-37.254414

>  <HIPPO Pose ID>  (1547) 
131568

>  <distance_score>  (1547) 
0.6311

>  <HIPPO Compound ID>  (1547) 
157597

>  <gnina_score_min>  (1547) 
5.733

>  <name>  (1547) 
P131568

>  <exports>  (1547) 
['/opt/xchem-fragalysis-2/maxwin/BulkDock/OUTPUTS/openbind_d68ev3c_c2_elabs_1LOTQJ3.sdf', '/opt/xchem-fragalysis-2/maxwin/BulkDock/OUTPUTS/openbind_d68ev3c_c2_elabs_1LSYI5W.sdf']

$$$$
P131570
     RDKit          3D

 26 28  0  0  0  0  0  0  0  0999 V2000
  -16.8003   -0.1778    9.6113 C   0  0  0  0  0  0  0  0  0  0  0  0
  -15.4373    0.2514    9.7860 N   0  0  0  0  0  0  0  0  0  0  0  0
  -14.7094    0.9492    8.8741 C   0  0  0  0  0  0  0  0  0  0  0  0
  -13.5853    1.4119    9.5393 C   0  0  0  0  0  0  0  0  0  0  0  0
  -12.5816    2.3649    8.9853 C   0  0  1  0  0  0  0  0  0  0  0  0
  -12.3599    3.4725    9.8460 O   0  0  0  0  0  0  0  0  0  0  0  0
  -11.3428    1.7860    8.5028 N   0  0  0  0  0  0  0  0  0  0  0  0
  -11.5071    0.5680    7.6875 C   0  0  0  0  0  0  0  0  0  0  0  0
  -10.2024    0.1837    6.9604 C   0  0  0  0  0  0  0  0  0  0  0  0
   -9.0801    0.1003    7.9117 N   0  0  0  0  0  0  0  0  0  0  0  0
   -7.9636   -0.6058    7.4997 C   0  0  0  0  0  0  0  0  0  0  0  0
   -8.1424   -1.9399    7.1615 C   0  0  0  0  0  0  0  0  0  0  0  0
   -7.0681   -2.7283    6.8055 C   0  0  0  0  0  0  0  0  0  0  0  0
   -7.3687   -4.3722    6.5900 Cl  0  0  0  0  0  0  0  0  0  0  0  0
   -5.7804   -2.2250    6.7438 C   0  0  0  0  0  0  0  0  0  0  0  0
   -5.5555   -0.8957    7.1006 C   0  0  0  0  0  0  0  0  0  0  0  0
   -4.1434   -0.3839    7.1141 C   0  0  0  0  0  0  0  0  0  0  0  0
   -4.0425    0.9557    7.3290 F   0  0  0  0  0  0  0  0  0  0  0  0
   -3.3813   -0.9762    8.0736 F   0  0  0  0  0  0  0  0  0  0  0  0
   -3.5006   -0.6204    5.9352 F   0  0  0  0  0  0  0  0  0  0  0  0
   -6.6542   -0.0973    7.4791 C   0  0  0  0  0  0  0  0  0  0  0  0
   -8.9306    1.2573    8.7877 C   0  0  0  0  0  0  0  0  0  0  0  0
  -10.2693    1.5880    9.4827 C   0  0  0  0  0  0  0  0  0  0  0  0
  -13.7186    0.8531   10.8312 C   0  0  0  0  0  0  0  0  0  0  0  0
  -12.6964    1.0846   12.1610 Cl  0  0  0  0  0  0  0  0  0  0  0  0
  -14.8353    0.1344   10.9783 N   0  0  0  0  0  0  0  0  0  0  0  0
  1  2  1  0
  2  3  1  0
  3  4  2  0
  4  5  1  0
  5  6  1  1
  5  7  1  0
  7  8  1  0
  8  9  1  0
  9 10  1  0
 10 11  1  0
 11 12  2  0
 12 13  1  0
 13 14  1  0
 13 15  2  0
 15 16  1  0
 16 17  1  0
 17 18  1  0
 17 19  1  0
 17 20  1  0
 16 21  2  0
 10 22  1  0
 22 23  1  0
  4 24  1  0
 24 25  1  0
 24 26  2  0
 26  2  1  0
 23  7  1  0
 21 11  1  0
M  END
>  <ref_mols>  (1548) 
B0426a

>  <gnina_score>  (1548) 
5.796

>  <smina_score_min>  (1548) 
-5.911

>  <ref_pdb>  (1548) 
B0426a

>  <inspiration_score>  (1548) 
None

>  <inchikey>  (1548) 
ZJIIVPZXSBHGBZ-OAHLLOKOSA-N

>  <tags>  (1548) 
BulkDock Fragalysis export,openbind_d68ev3c_c2_elabs_scored,openbind_d68ev3c_c2_elabs_scored_4.5plus,openbind_d68ev3c_c2_elabs,openbind_d68ev3c_c2_elabs_scored_5plus,syndirella_product,openbind_d68ev3c_c2_elabs_scored_top80percent,syndirella_placed

>  <smiles>  (1548) 
Cn1cc([C@@H](O)N2CCN(c3cc(Cl)cc(C(F)(F)F)c3)CC2)c(Cl)n1

>  <subsites>  (1548) 
None

>  <rmsd(smina/fragmenstein)>  (1548) 
0.64

>  <alias>  (1548) 
None

>  <energy_score>  (1548) 
-22.994301

>  <HIPPO Pose ID>  (1548) 
131570

>  <distance_score>  (1548) 
0.556434

>  <HIPPO Compound ID>  (1548) 
157598

>  <gnina_score_min>  (1548) 
5.855

>  <name>  (1548) 
P131570

>  <exports>  (1548) 
['/opt/xchem-fragalysis-2/maxwin/BulkDock/OUTPUTS/openbind_d68ev3c_c2_elabs_1LOTQJ3.sdf', '/opt/xchem-fragalysis-2/maxwin/BulkDock/OUTPUTS/openbind_d68ev3c_c2_elabs_1LSYI5W.sdf']

$$$$
P131571
     RDKit          3D

 26 28  0  0  0  0  0  0  0  0999 V2000
  -16.7427   -0.0945    9.0403 C   0  0  0  0  0  0  0  0  0  0  0  0
  -15.4623    0.3310    9.5468 N   0  0  0  0  0  0  0  0  0  0  0  0
  -14.5072    0.9956    8.8384 C   0  0  0  0  0  0  0  0  0  0  0  0
  -13.5187    1.3391    9.7451 C   0  0  0  0  0  0  0  0  0  0  0  0
  -12.2496    2.0908    9.5088 C   0  0  2  0  0  0  0  0  0  0  0  0
  -12.5558    3.3030    8.8377 O   0  0  0  0  0  0  0  0  0  0  0  0
  -11.3383    1.3308    8.6530 N   0  0  0  0  0  0  0  0  0  0  0  0
  -11.0531   -0.0139    9.2191 C   0  0  0  0  0  0  0  0  0  0  0  0
  -10.0904   -0.8127    8.3349 C   0  0  0  0  0  0  0  0  0  0  0  0
   -8.8160   -0.1044    8.1392 N   0  0  0  0  0  0  0  0  0  0  0  0
   -7.8417   -0.8250    7.4323 C   0  0  0  0  0  0  0  0  0  0  0  0
   -8.1261   -1.9689    6.6743 C   0  0  0  0  0  0  0  0  0  0  0  0
   -7.1400   -2.6049    5.9311 C   0  0  0  0  0  0  0  0  0  0  0  0
   -5.8391   -2.1191    5.9499 C   0  0  0  0  0  0  0  0  0  0  0  0
   -4.7481   -2.8359    4.8420 Cl  0  0  0  0  0  0  0  0  0  0  0  0
   -5.4888   -1.0508    6.7763 C   0  0  0  0  0  0  0  0  0  0  0  0
   -4.0732   -0.5890    6.9346 C   0  0  0  0  0  0  0  0  0  0  0  0
   -3.3427   -1.3895    7.7569 F   0  0  0  0  0  0  0  0  0  0  0  0
   -3.3923   -0.5237    5.7602 F   0  0  0  0  0  0  0  0  0  0  0  0
   -3.9726    0.6655    7.4665 F   0  0  0  0  0  0  0  0  0  0  0  0
   -6.5062   -0.4118    7.5033 C   0  0  0  0  0  0  0  0  0  0  0  0
   -8.9992    1.2854    7.6750 C   0  0  0  0  0  0  0  0  0  0  0  0
  -10.0297    2.0351    8.5535 C   0  0  0  0  0  0  0  0  0  0  0  0
  -13.9857    0.8001   10.9671 C   0  0  0  0  0  0  0  0  0  0  0  0
  -13.2133    0.8792   12.4751 Cl  0  0  0  0  0  0  0  0  0  0  0  0
  -15.1567    0.1691   10.8462 N   0  0  0  0  0  0  0  0  0  0  0  0
  1  2  1  0
  2  3  1  0
  3  4  2  0
  4  5  1  0
  5  6  1  6
  5  7  1  0
  7  8  1  0
  8  9  1  0
  9 10  1  0
 10 11  1  0
 11 12  2  0
 12 13  1  0
 13 14  2  0
 14 15  1  0
 14 16  1  0
 16 17  1  0
 17 18  1  0
 17 19  1  0
 17 20  1  0
 16 21  2  0
 10 22  1  0
 22 23  1  0
  4 24  1  0
 24 25  1  0
 24 26  2  0
 26  2  1  0
 23  7  1  0
 21 11  1  0
M  END
>  <ref_mols>  (1549) 
B0426a

>  <gnina_score>  (1549) 
5.675

>  <smina_score_min>  (1549) 
-5.462

>  <ref_pdb>  (1549) 
B0426a

>  <inspiration_score>  (1549) 
None

>  <inchikey>  (1549) 
YTSQIRFCICQGCT-HNNXBMFYSA-N

>  <tags>  (1549) 
BulkDock Fragalysis export,openbind_d68ev3c_c2_elabs_scored,openbind_d68ev3c_c2_elabs_scored_4.5plus,openbind_d68ev3c_c2_elabs,openbind_d68ev3c_c2_elabs_scored_5plus,syndirella_product,openbind_d68ev3c_c2_elabs_scored_top80percent,syndirella_placed

>  <smiles>  (1549) 
Cn1cc([C@H](O)N2CCN(c3ccc(Cl)c(C(F)(F)F)c3)CC2)c(Cl)n1

>  <subsites>  (1549) 
None

>  <rmsd(smina/fragmenstein)>  (1549) 
0.165

>  <alias>  (1549) 
None

>  <energy_score>  (1549) 
-44.184868

>  <HIPPO Pose ID>  (1549) 
131571

>  <distance_score>  (1549) 
0.520331

>  <HIPPO Compound ID>  (1549) 
157599

>  <gnina_score_min>  (1549) 
5.756

>  <name>  (1549) 
P131571

>  <exports>  (1549) 
['/opt/xchem-fragalysis-2/maxwin/BulkDock/OUTPUTS/openbind_d68ev3c_c2_elabs_1LOTQJ3.sdf', '/opt/xchem-fragalysis-2/maxwin/BulkDock/OUTPUTS/openbind_d68ev3c_c2_elabs_1LSYI5W.sdf']

$$$$
P131573
     RDKit          3D

 26 28  0  0  0  0  0  0  0  0999 V2000
  -15.9376   -0.8993    6.4088 C   0  0  0  0  0  0  0  0  0  0  0  0
  -17.0153   -0.7641    7.4741 C   0  0  0  0  0  0  0  0  0  0  0  0
  -16.8812    0.4874    8.3385 C   0  0  0  0  0  0  0  0  0  0  0  0
  -15.6458    0.5935    9.0892 N   0  0  0  0  0  0  0  0  0  0  0  0
  -14.5314    1.2702    8.6850 C   0  0  0  0  0  0  0  0  0  0  0  0
  -13.6487    1.2456    9.7434 C   0  0  0  0  0  0  0  0  0  0  0  0
  -12.2720    1.8097    9.8328 C   0  0  0  0  0  0  0  0  0  0  0  0
  -11.3958    1.2940    8.7698 N   0  0  0  0  0  0  0  0  0  0  0  0
  -11.3229   -0.1881    8.8089 C   0  0  0  0  0  0  0  0  0  0  0  0
  -10.3529   -0.7443    7.7604 C   0  0  0  0  0  0  0  0  0  0  0  0
   -8.9881   -0.2132    7.9674 N   0  0  0  0  0  0  0  0  0  0  0  0
   -7.9546   -0.8649    7.2881 C   0  0  0  0  0  0  0  0  0  0  0  0
   -8.1812   -1.9526    6.4321 C   0  0  0  0  0  0  0  0  0  0  0  0
   -7.1475   -2.5695    5.7410 C   0  0  0  0  0  0  0  0  0  0  0  0
   -5.8482   -2.1094    5.8872 C   0  0  0  0  0  0  0  0  0  0  0  0
   -4.6861   -2.8142    4.8503 Cl  0  0  0  0  0  0  0  0  0  0  0  0
   -5.5526   -1.0836    6.7836 C   0  0  0  0  0  0  0  0  0  0  0  0
   -4.1497   -0.6171    7.0320 C   0  0  0  0  0  0  0  0  0  0  0  0
   -3.4042   -0.5139    5.8988 F   0  0  0  0  0  0  0  0  0  0  0  0
   -3.4546   -1.4320    7.8705 F   0  0  0  0  0  0  0  0  0  0  0  0
   -4.0888    0.6250    7.5982 F   0  0  0  0  0  0  0  0  0  0  0  0
   -6.6179   -0.4865    7.4847 C   0  0  0  0  0  0  0  0  0  0  0  0
   -8.9791    1.2660    7.9694 C   0  0  0  0  0  0  0  0  0  0  0  0
  -10.0225    1.8213    8.9714 C   0  0  0  0  0  0  0  0  0  0  0  0
  -14.3523    0.5443   10.7506 C   0  0  0  0  0  0  0  0  0  0  0  0
  -15.5765    0.1689   10.3678 N   0  0  0  0  0  0  0  0  0  0  0  0
  1  2  1  0
  2  3  1  0
  3  4  1  0
  4  5  1  0
  5  6  2  0
  6  7  1  0
  7  8  1  0
  8  9  1  0
  9 10  1  0
 10 11  1  0
 11 12  1  0
 12 13  2  0
 13 14  1  0
 14 15  2  0
 15 16  1  0
 15 17  1  0
 17 18  1  0
 18 19  1  0
 18 20  1  0
 18 21  1  0
 17 22  2  0
 11 23  1  0
 23 24  1  0
  6 25  1  0
 25 26  2  0
 26  4  1  0
 24  8  1  0
 22 12  1  0
M  END
>  <ref_mols>  (1550) 
B0426a

>  <gnina_score>  (1550) 
5.627

>  <smina_score_min>  (1550) 
-5.389

>  <ref_pdb>  (1550) 
B0426a

>  <inspiration_score>  (1550) 
None

>  <inchikey>  (1550) 
QTRNBSKHGBPXCA-UHFFFAOYSA-N

>  <tags>  (1550) 
BulkDock Fragalysis export,openbind_d68ev3c_c2_elabs_scored,openbind_d68ev3c_c2_elabs_scored_4.5plus,openbind_d68ev3c_c2_elabs,openbind_d68ev3c_c2_elabs_scored_5plus,syndirella_product,openbind_d68ev3c_c2_elabs_scored_top80percent,syndirella_placed

>  <smiles>  (1550) 
CCCn1cc(CN2CCN(c3ccc(Cl)c(C(F)(F)F)c3)CC2)cn1

>  <subsites>  (1550) 
None

>  <rmsd(smina/fragmenstein)>  (1550) 
0.72

>  <alias>  (1550) 
None

>  <energy_score>  (1550) 
-42.207027

>  <HIPPO Pose ID>  (1550) 
131573

>  <distance_score>  (1550) 
0.568659

>  <HIPPO Compound ID>  (1550) 
157600

>  <gnina_score_min>  (1550) 
5.694

>  <name>  (1550) 
P131573

>  <exports>  (1550) 
['/opt/xchem-fragalysis-2/maxwin/BulkDock/OUTPUTS/openbind_d68ev3c_c2_elabs_1LOTQJ3.sdf', '/opt/xchem-fragalysis-2/maxwin/BulkDock/OUTPUTS/openbind_d68ev3c_c2_elabs_1LSYI5W.sdf']

$$$$
P131574
     RDKit          3D

 26 28  0  0  0  0  0  0  0  0999 V2000
  -17.3033    0.6016    7.3770 F   0  0  0  0  0  0  0  0  0  0  0  0
  -17.0353   -0.4685    8.1809 C   0  0  0  0  0  0  0  0  0  0  0  0
  -16.7477    0.0252    9.5861 C   0  0  0  0  0  0  0  0  0  0  0  0
  -15.3767    0.4485    9.7721 N   0  0  0  0  0  0  0  0  0  0  0  0
  -14.6498    1.2274    8.9291 C   0  0  0  0  0  0  0  0  0  0  0  0
  -13.4443    1.4645    9.5546 C   0  0  0  0  0  0  0  0  0  0  0  0
  -12.3325    2.2915    9.0237 C   0  0  0  0  0  0  0  0  0  0  0  0
  -11.1911    1.5431    8.5086 N   0  0  0  0  0  0  0  0  0  0  0  0
  -10.1478    1.3008    9.5108 C   0  0  0  0  0  0  0  0  0  0  0  0
   -8.8629    0.7867    8.8343 C   0  0  0  0  0  0  0  0  0  0  0  0
   -9.0978   -0.4494    8.0629 N   0  0  0  0  0  0  0  0  0  0  0  0
   -7.9895   -1.0778    7.4718 C   0  0  0  0  0  0  0  0  0  0  0  0
   -8.1580   -2.2801    6.7729 C   0  0  0  0  0  0  0  0  0  0  0  0
   -7.1237   -2.8413    6.0336 C   0  0  0  0  0  0  0  0  0  0  0  0
   -5.8744   -2.2345    6.0167 C   0  0  0  0  0  0  0  0  0  0  0  0
   -4.7422   -2.8387    4.8820 Cl  0  0  0  0  0  0  0  0  0  0  0  0
   -5.6082   -1.1359    6.8310 C   0  0  0  0  0  0  0  0  0  0  0  0
   -4.2251   -0.5699    6.9809 C   0  0  0  0  0  0  0  0  0  0  0  0
   -3.5485   -0.4390    5.8071 F   0  0  0  0  0  0  0  0  0  0  0  0
   -4.2095    0.6813    7.5300 F   0  0  0  0  0  0  0  0  0  0  0  0
   -3.4318   -1.3257    7.7899 F   0  0  0  0  0  0  0  0  0  0  0  0
   -6.6807   -0.5705    7.5493 C   0  0  0  0  0  0  0  0  0  0  0  0
  -10.2800   -0.3590    7.1585 C   0  0  0  0  0  0  0  0  0  0  0  0
  -11.5114    0.2667    7.8439 C   0  0  0  0  0  0  0  0  0  0  0  0
  -13.5586    0.7822   10.7862 C   0  0  0  0  0  0  0  0  0  0  0  0
  -14.7434    0.1787   10.9307 N   0  0  0  0  0  0  0  0  0  0  0  0
  1  2  1  0
  2  3  1  0
  3  4  1  0
  4  5  1  0
  5  6  2  0
  6  7  1  0
  7  8  1  0
  8  9  1  0
  9 10  1  0
 10 11  1  0
 11 12  1  0
 12 13  2  0
 13 14  1  0
 14 15  2  0
 15 16  1  0
 15 17  1  0
 17 18  1  0
 18 19  1  0
 18 20  1  0
 18 21  1  0
 17 22  2  0
 11 23  1  0
 23 24  1  0
  6 25  1  0
 25 26  2  0
 26  4  1  0
 24  8  1  0
 22 12  1  0
M  END
>  <ref_mols>  (1551) 
B0426a

>  <gnina_score>  (1551) 
5.577

>  <smina_score_min>  (1551) 
-5.746

>  <ref_pdb>  (1551) 
B0426a

>  <inspiration_score>  (1551) 
None

>  <inchikey>  (1551) 
VQIKXVZLSQIIMP-UHFFFAOYSA-N

>  <tags>  (1551) 
BulkDock Fragalysis export,openbind_d68ev3c_c2_elabs_scored,openbind_d68ev3c_c2_elabs_scored_4.5plus,openbind_d68ev3c_c2_elabs,openbind_d68ev3c_c2_elabs_scored_5plus,syndirella_product,openbind_d68ev3c_c2_elabs_scored_top80percent,syndirella_placed

>  <smiles>  (1551) 
FCCn1cc(CN2CCN(c3ccc(Cl)c(C(F)(F)F)c3)CC2)cn1

>  <subsites>  (1551) 
None

>  <rmsd(smina/fragmenstein)>  (1551) 
0.477

>  <alias>  (1551) 
None

>  <energy_score>  (1551) 
-40.648096

>  <HIPPO Pose ID>  (1551) 
131574

>  <distance_score>  (1551) 
0.470879

>  <HIPPO Compound ID>  (1551) 
157601

>  <gnina_score_min>  (1551) 
5.643

>  <name>  (1551) 
P131574

>  <exports>  (1551) 
['/opt/xchem-fragalysis-2/maxwin/BulkDock/OUTPUTS/openbind_d68ev3c_c2_elabs_1LOTQJ3.sdf', '/opt/xchem-fragalysis-2/maxwin/BulkDock/OUTPUTS/openbind_d68ev3c_c2_elabs_1LSYI5W.sdf']

$$$$
P131575
     RDKit          3D

 26 28  0  0  0  0  0  0  0  0999 V2000
  -16.9413    1.1869    6.4929 F   0  0  0  0  0  0  0  0  0  0  0  0
  -17.4691    0.7274    7.6646 C   0  0  0  0  0  0  0  0  0  0  0  0
  -16.5369   -0.2952    8.2816 C   0  0  0  0  0  0  0  0  0  0  0  0
  -15.4632    0.3240    9.0307 N   0  0  0  0  0  0  0  0  0  0  0  0
  -14.4236    1.0262    8.5046 C   0  0  0  0  0  0  0  0  0  0  0  0
  -13.6445    1.4299    9.5690 C   0  0  0  0  0  0  0  0  0  0  0  0
  -12.3579    2.1840    9.5376 C   0  0  0  0  0  0  0  0  0  0  0  0
  -11.3834    1.4743    8.7025 N   0  0  0  0  0  0  0  0  0  0  0  0
  -10.1219    2.2410    8.5968 C   0  0  0  0  0  0  0  0  0  0  0  0
   -9.0458    1.5291    7.7351 C   0  0  0  0  0  0  0  0  0  0  0  0
   -8.8097    0.1546    8.2121 N   0  0  0  0  0  0  0  0  0  0  0  0
   -7.7593   -0.5555    7.6189 C   0  0  0  0  0  0  0  0  0  0  0  0
   -7.9328   -1.8549    7.1420 C   0  0  0  0  0  0  0  0  0  0  0  0
   -6.8621   -2.6083    6.7006 C   0  0  0  0  0  0  0  0  0  0  0  0
   -7.1440   -4.2242    6.3191 Cl  0  0  0  0  0  0  0  0  0  0  0  0
   -5.5823   -2.1021    6.6719 C   0  0  0  0  0  0  0  0  0  0  0  0
   -5.3661   -0.8043    7.1248 C   0  0  0  0  0  0  0  0  0  0  0  0
   -3.9587   -0.3023    7.1564 C   0  0  0  0  0  0  0  0  0  0  0  0
   -3.3152   -0.5659    5.9854 F   0  0  0  0  0  0  0  0  0  0  0  0
   -3.2133   -0.8901    8.1292 F   0  0  0  0  0  0  0  0  0  0  0  0
   -3.8528    1.0381    7.3498 F   0  0  0  0  0  0  0  0  0  0  0  0
   -6.4550   -0.0403    7.5865 C   0  0  0  0  0  0  0  0  0  0  0  0
  -10.0611   -0.6112    8.4128 C   0  0  0  0  0  0  0  0  0  0  0  0
  -11.0614    0.1500    9.2781 C   0  0  0  0  0  0  0  0  0  0  0  0
  -14.3225    0.9178   10.7001 C   0  0  0  0  0  0  0  0  0  0  0  0
  -15.4402    0.2585   10.3790 N   0  0  0  0  0  0  0  0  0  0  0  0
  1  2  1  0
  2  3  1  0
  3  4  1  0
  4  5  1  0
  5  6  2  0
  6  7  1  0
  7  8  1  0
  8  9  1  0
  9 10  1  0
 10 11  1  0
 11 12  1  0
 12 13  2  0
 13 14  1  0
 14 15  1  0
 14 16  2  0
 16 17  1  0
 17 18  1  0
 18 19  1  0
 18 20  1  0
 18 21  1  0
 17 22  2  0
 11 23  1  0
 23 24  1  0
  6 25  1  0
 25 26  2  0
 26  4  1  0
 24  8  1  0
 22 12  1  0
M  END
>  <ref_mols>  (1552) 
B0426a

>  <gnina_score>  (1552) 
5.634

>  <smina_score_min>  (1552) 
-5.248

>  <ref_pdb>  (1552) 
B0426a

>  <inspiration_score>  (1552) 
None

>  <inchikey>  (1552) 
ZXKXLPVXDSXYEH-UHFFFAOYSA-N

>  <tags>  (1552) 
BulkDock Fragalysis export,openbind_d68ev3c_c2_elabs_scored,openbind_d68ev3c_c2_elabs_scored_4.5plus,openbind_d68ev3c_c2_elabs,openbind_d68ev3c_c2_elabs_scored_5plus,syndirella_product,openbind_d68ev3c_c2_elabs_scored_top80percent,syndirella_placed

>  <smiles>  (1552) 
FCCn1cc(CN2CCN(c3cc(Cl)cc(C(F)(F)F)c3)CC2)cn1

>  <subsites>  (1552) 
None

>  <rmsd(smina/fragmenstein)>  (1552) 
0.75

>  <alias>  (1552) 
None

>  <energy_score>  (1552) 
-37.28948

>  <HIPPO Pose ID>  (1552) 
131575

>  <distance_score>  (1552) 
0.648032

>  <HIPPO Compound ID>  (1552) 
157602

>  <gnina_score_min>  (1552) 
5.588

>  <name>  (1552) 
P131575

>  <exports>  (1552) 
['/opt/xchem-fragalysis-2/maxwin/BulkDock/OUTPUTS/openbind_d68ev3c_c2_elabs_1LOTQJ3.sdf', '/opt/xchem-fragalysis-2/maxwin/BulkDock/OUTPUTS/openbind_d68ev3c_c2_elabs_1LSYI5W.sdf']

$$$$
P131577
     RDKit          3D

 26 28  0  0  0  0  0  0  0  0999 V2000
  -12.6514    1.0190   12.0978 C   0  0  0  0  0  0  0  0  0  0  0  0
  -13.6091    0.8632   10.9759 C   0  0  0  0  0  0  0  0  0  0  0  0
  -14.7629    0.2168   11.1987 N   0  0  0  0  0  0  0  0  0  0  0  0
  -15.4116    0.2942   10.0308 N   0  0  0  0  0  0  0  0  0  0  0  0
  -16.7864   -0.1211    9.9399 C   0  0  0  0  0  0  0  0  0  0  0  0
  -14.7025    0.9155    9.0545 C   0  0  0  0  0  0  0  0  0  0  0  0
  -13.5174    1.3354    9.6342 C   0  0  0  0  0  0  0  0  0  0  0  0
  -12.4701    2.1649    8.9586 C   0  0  1  0  0  0  0  0  0  0  0  0
  -12.1205    3.3056    9.7305 O   0  0  0  0  0  0  0  0  0  0  0  0
  -11.2946    1.4470    8.4976 N   0  0  0  0  0  0  0  0  0  0  0  0
  -10.2206    1.2858    9.4828 C   0  0  0  0  0  0  0  0  0  0  0  0
   -8.9272    0.7888    8.8039 C   0  0  0  0  0  0  0  0  0  0  0  0
   -9.1324   -0.4802    8.0732 N   0  0  0  0  0  0  0  0  0  0  0  0
   -8.0123   -1.0919    7.4843 C   0  0  0  0  0  0  0  0  0  0  0  0
   -8.1568   -2.3044    6.7962 C   0  0  0  0  0  0  0  0  0  0  0  0
   -7.1128   -2.8538    6.0612 C   0  0  0  0  0  0  0  0  0  0  0  0
   -5.8740   -2.2270    6.0412 C   0  0  0  0  0  0  0  0  0  0  0  0
   -4.7292   -2.8225    4.9151 Cl  0  0  0  0  0  0  0  0  0  0  0  0
   -5.6272   -1.1186    6.8482 C   0  0  0  0  0  0  0  0  0  0  0  0
   -4.2491   -0.5392    7.0001 C   0  0  0  0  0  0  0  0  0  0  0  0
   -3.5716   -0.4021    5.8275 F   0  0  0  0  0  0  0  0  0  0  0  0
   -3.4508   -1.2893    7.8097 F   0  0  0  0  0  0  0  0  0  0  0  0
   -4.2457    0.7110    7.5503 F   0  0  0  0  0  0  0  0  0  0  0  0
   -6.7114   -0.5623    7.5583 C   0  0  0  0  0  0  0  0  0  0  0  0
  -10.3301   -0.4521    7.1897 C   0  0  0  0  0  0  0  0  0  0  0  0
  -11.5715    0.1391    7.8854 C   0  0  0  0  0  0  0  0  0  0  0  0
  1  2  1  0
  2  3  2  0
  3  4  1  0
  4  5  1  0
  4  6  1  0
  6  7  2  0
  7  8  1  0
  8  9  1  1
  8 10  1  0
 10 11  1  0
 11 12  1  0
 12 13  1  0
 13 14  1  0
 14 15  2  0
 15 16  1  0
 16 17  2  0
 17 18  1  0
 17 19  1  0
 19 20  1  0
 20 21  1  0
 20 22  1  0
 20 23  1  0
 19 24  2  0
 13 25  1  0
 25 26  1  0
  7  2  1  0
 26 10  1  0
 24 14  1  0
M  END
>  <ref_mols>  (1553) 
B0426a

>  <gnina_score>  (1553) 
5.639

>  <smina_score_min>  (1553) 
-6.487

>  <ref_pdb>  (1553) 
B0426a

>  <inspiration_score>  (1553) 
None

>  <inchikey>  (1553) 
NCOBQTUXQFLPNF-MRXNPFEDSA-N

>  <tags>  (1553) 
BulkDock Fragalysis export,openbind_d68ev3c_c2_elabs_scored,openbind_d68ev3c_c2_elabs_scored_4.5plus,openbind_d68ev3c_c2_elabs,openbind_d68ev3c_c2_elabs_scored_5plus,syndirella_product,openbind_d68ev3c_c2_elabs_scored_top80percent,syndirella_placed

>  <smiles>  (1553) 
Cc1nn(C)cc1[C@@H](O)N1CCN(c2ccc(Cl)c(C(F)(F)F)c2)CC1

>  <subsites>  (1553) 
None

>  <rmsd(smina/fragmenstein)>  (1553) 
0.463

>  <alias>  (1553) 
None

>  <energy_score>  (1553) 
-28.85263

>  <HIPPO Pose ID>  (1553) 
131577

>  <distance_score>  (1553) 
0.444242

>  <HIPPO Compound ID>  (1553) 
157605

>  <gnina_score_min>  (1553) 
5.704

>  <name>  (1553) 
P131577

>  <exports>  (1553) 
['/opt/xchem-fragalysis-2/maxwin/BulkDock/OUTPUTS/openbind_d68ev3c_c2_elabs_1LOTQJ3.sdf', '/opt/xchem-fragalysis-2/maxwin/BulkDock/OUTPUTS/openbind_d68ev3c_c2_elabs_1LSYI5W.sdf']

$$$$
P131578
     RDKit          3D

 26 28  0  0  0  0  0  0  0  0999 V2000
   -3.8090    0.6470    7.6037 F   0  0  0  0  0  0  0  0  0  0  0  0
   -3.9059   -0.6734    7.2839 C   0  0  0  0  0  0  0  0  0  0  0  0
   -3.4208   -1.3617    8.3458 F   0  0  0  0  0  0  0  0  0  0  0  0
   -3.0190   -0.8675    6.2717 F   0  0  0  0  0  0  0  0  0  0  0  0
   -5.2928   -1.0797    6.8898 C   0  0  0  0  0  0  0  0  0  0  0  0
   -5.4903   -1.9598    5.8235 C   0  0  0  0  0  0  0  0  0  0  0  0
   -6.7797   -2.2602    5.4105 C   0  0  0  0  0  0  0  0  0  0  0  0
   -6.9918   -3.1669    3.9647 Cl  0  0  0  0  0  0  0  0  0  0  0  0
   -7.8842   -1.7370    6.0828 C   0  0  0  0  0  0  0  0  0  0  0  0
   -7.7198   -0.8505    7.1561 C   0  0  0  0  0  0  0  0  0  0  0  0
   -8.7840   -0.2529    7.8404 N   0  0  0  0  0  0  0  0  0  0  0  0
   -8.8467    1.2204    7.7235 C   0  0  0  0  0  0  0  0  0  0  0  0
   -9.8768    1.7987    8.7204 C   0  0  0  0  0  0  0  0  0  0  0  0
  -11.2344    1.2012    8.6121 N   0  0  0  0  0  0  0  0  0  0  0  0
  -12.0707    1.7656    9.6858 C   0  0  0  0  0  0  0  0  0  0  0  0
  -13.4159    1.1319    9.7701 C   0  0  0  0  0  0  0  0  0  0  0  0
  -13.9900    0.5318   10.9151 C   0  0  0  0  0  0  0  0  0  0  0  0
  -15.2116    0.0439   10.6883 N   0  0  0  0  0  0  0  0  0  0  0  0
  -15.4239    0.3282    9.3880 N   0  0  0  0  0  0  0  0  0  0  0  0
  -16.6844   -0.0137    8.7611 C   0  0  0  0  0  0  0  0  0  0  0  0
  -17.8740    0.4802    9.5637 C   0  0  0  0  0  0  0  0  0  0  0  0
  -19.3940    0.0804    8.7182 Cl  0  0  0  0  0  0  0  0  0  0  0  0
  -14.3862    0.9886    8.8001 C   0  0  0  0  0  0  0  0  0  0  0  0
  -11.0959   -0.2755    8.7288 C   0  0  0  0  0  0  0  0  0  0  0  0
  -10.1189   -0.8658    7.6898 C   0  0  0  0  0  0  0  0  0  0  0  0
   -6.4079   -0.5505    7.5530 C   0  0  0  0  0  0  0  0  0  0  0  0
  1  2  1  0
  2  3  1  0
  2  4  1  0
  2  5  1  0
  5  6  2  0
  6  7  1  0
  7  8  1  0
  7  9  2  0
  9 10  1  0
 10 11  1  0
 11 12  1  0
 12 13  1  0
 13 14  1  0
 14 15  1  0
 15 16  1  0
 16 17  1  0
 17 18  2  0
 18 19  1  0
 19 20  1  0
 20 21  1  0
 21 22  1  0
 19 23  1  0
 14 24  1  0
 24 25  1  0
 10 26  2  0
 26  5  1  0
 25 11  1  0
 23 16  2  0
M  END
>  <ref_mols>  (1554) 
B0426a

>  <gnina_score>  (1554) 
5.562

>  <smina_score_min>  (1554) 
-5.032

>  <ref_pdb>  (1554) 
B0426a

>  <inspiration_score>  (1554) 
None

>  <inchikey>  (1554) 
YWHZUEQVJCCJQV-UHFFFAOYSA-N

>  <tags>  (1554) 
BulkDock Fragalysis export,openbind_d68ev3c_c2_elabs_scored,openbind_d68ev3c_c2_elabs_scored_4.5plus,openbind_d68ev3c_c2_elabs,openbind_d68ev3c_c2_elabs_scored_5plus,syndirella_product,openbind_d68ev3c_c2_elabs_scored_top80percent,syndirella_placed

>  <smiles>  (1554) 
FC(F)(F)c1cc(Cl)cc(N2CCN(Cc3cnn(CCCl)c3)CC2)c1

>  <subsites>  (1554) 
None

>  <rmsd(smina/fragmenstein)>  (1554) 
0.616

>  <alias>  (1554) 
None

>  <energy_score>  (1554) 
-41.64985

>  <HIPPO Pose ID>  (1554) 
131578

>  <distance_score>  (1554) 
0.538626

>  <HIPPO Compound ID>  (1554) 
157606

>  <gnina_score_min>  (1554) 
5.631

>  <name>  (1554) 
P131578

>  <exports>  (1554) 
['/opt/xchem-fragalysis-2/maxwin/BulkDock/OUTPUTS/openbind_d68ev3c_c2_elabs_1LOTQJ3.sdf', '/opt/xchem-fragalysis-2/maxwin/BulkDock/OUTPUTS/openbind_d68ev3c_c2_elabs_1LSYI5W.sdf']

$$$$
P131580
     RDKit          3D

 26 28  0  0  0  0  0  0  0  0999 V2000
  -12.3657    3.9737    7.3148 C   0  0  0  0  0  0  0  0  0  0  0  0
  -13.0820    2.8359    7.7731 O   0  0  0  0  0  0  0  0  0  0  0  0
  -12.4451    2.2003    8.8960 C   0  0  1  0  0  0  0  0  0  0  0  0
  -13.4459    1.3601    9.6305 C   0  0  0  0  0  0  0  0  0  0  0  0
  -13.4001    0.9041   10.9691 C   0  0  0  0  0  0  0  0  0  0  0  0
  -14.5050    0.2458   11.3305 N   0  0  0  0  0  0  0  0  0  0  0  0
  -15.2647    0.2822   10.2234 N   0  0  0  0  0  0  0  0  0  0  0  0
  -16.6269   -0.1764   10.2750 C   0  0  0  0  0  0  0  0  0  0  0  0
  -14.6658    0.8967    9.1710 C   0  0  0  0  0  0  0  0  0  0  0  0
  -11.2767    1.4609    8.4388 N   0  0  0  0  0  0  0  0  0  0  0  0
  -11.5652    0.1537    7.8322 C   0  0  0  0  0  0  0  0  0  0  0  0
  -10.3192   -0.4496    7.1572 C   0  0  0  0  0  0  0  0  0  0  0  0
   -9.1306   -0.4791    8.0574 N   0  0  0  0  0  0  0  0  0  0  0  0
   -8.0078   -1.0967    7.4783 C   0  0  0  0  0  0  0  0  0  0  0  0
   -8.1517   -2.3109    6.7934 C   0  0  0  0  0  0  0  0  0  0  0  0
   -7.1069   -2.8614    6.0607 C   0  0  0  0  0  0  0  0  0  0  0  0
   -5.8685   -2.2338    6.0401 C   0  0  0  0  0  0  0  0  0  0  0  0
   -4.7249   -2.8265    4.9118 Cl  0  0  0  0  0  0  0  0  0  0  0  0
   -5.6221   -1.1253    6.8469 C   0  0  0  0  0  0  0  0  0  0  0  0
   -4.2447   -0.5442    6.9983 C   0  0  0  0  0  0  0  0  0  0  0  0
   -3.4451   -1.2918    7.8085 F   0  0  0  0  0  0  0  0  0  0  0  0
   -3.5681   -0.4056    5.8256 F   0  0  0  0  0  0  0  0  0  0  0  0
   -4.2444    0.7066    7.5479 F   0  0  0  0  0  0  0  0  0  0  0  0
   -6.7067   -0.5685    7.5558 C   0  0  0  0  0  0  0  0  0  0  0  0
   -8.9232    0.7882    8.7872 C   0  0  0  0  0  0  0  0  0  0  0  0
  -10.2218    1.3012    9.4432 C   0  0  0  0  0  0  0  0  0  0  0  0
  1  2  1  0
  3  2  1  6
  3  4  1  0
  4  5  1  0
  5  6  2  0
  6  7  1  0
  7  8  1  0
  7  9  1  0
  3 10  1  0
 10 11  1  0
 11 12  1  0
 12 13  1  0
 13 14  1  0
 14 15  2  0
 15 16  1  0
 16 17  2  0
 17 18  1  0
 17 19  1  0
 19 20  1  0
 20 21  1  0
 20 22  1  0
 20 23  1  0
 19 24  2  0
 13 25  1  0
 25 26  1  0
  9  4  2  0
 26 10  1  0
 24 14  1  0
M  END
>  <ref_mols>  (1555) 
B0426a

>  <gnina_score>  (1555) 
5.623

>  <smina_score_min>  (1555) 
-5.928

>  <ref_pdb>  (1555) 
B0426a

>  <inspiration_score>  (1555) 
None

>  <inchikey>  (1555) 
OEVYSWHNRSVXSK-INIZCTEOSA-N

>  <tags>  (1555) 
BulkDock Fragalysis export,openbind_d68ev3c_c2_elabs_scored,openbind_d68ev3c_c2_elabs_scored_4.5plus,openbind_d68ev3c_c2_elabs,openbind_d68ev3c_c2_elabs_scored_5plus,syndirella_product,openbind_d68ev3c_c2_elabs_scored_top80percent,syndirella_placed

>  <smiles>  (1555) 
CO[C@@H](c1cnn(C)c1)N1CCN(c2ccc(Cl)c(C(F)(F)F)c2)CC1

>  <subsites>  (1555) 
None

>  <rmsd(smina/fragmenstein)>  (1555) 
0.663

>  <alias>  (1555) 
None

>  <energy_score>  (1555) 
-36.381347

>  <HIPPO Pose ID>  (1555) 
131580

>  <distance_score>  (1555) 
0.471073

>  <HIPPO Compound ID>  (1555) 
157607

>  <gnina_score_min>  (1555) 
5.725

>  <name>  (1555) 
P131580

>  <exports>  (1555) 
['/opt/xchem-fragalysis-2/maxwin/BulkDock/OUTPUTS/openbind_d68ev3c_c2_elabs_1LOTQJ3.sdf', '/opt/xchem-fragalysis-2/maxwin/BulkDock/OUTPUTS/openbind_d68ev3c_c2_elabs_1LSYI5W.sdf']

$$$$
P131581
     RDKit          3D

 26 28  0  0  0  0  0  0  0  0999 V2000
  -11.7463    3.1550   11.6053 C   0  0  0  0  0  0  0  0  0  0  0  0
  -11.4949    1.9229   10.9413 O   0  0  0  0  0  0  0  0  0  0  0  0
  -12.1152    1.8557    9.6522 C   0  0  2  0  0  0  0  0  0  0  0  0
  -13.4419    1.1574    9.7343 C   0  0  0  0  0  0  0  0  0  0  0  0
  -13.9996    0.5225   10.8719 C   0  0  0  0  0  0  0  0  0  0  0  0
  -15.2076    0.0017   10.6425 N   0  0  0  0  0  0  0  0  0  0  0  0
  -15.4176    0.2746    9.3414 N   0  0  0  0  0  0  0  0  0  0  0  0
  -16.6556   -0.1046    8.7089 C   0  0  0  0  0  0  0  0  0  0  0  0
  -14.4036    0.9761    8.7587 C   0  0  0  0  0  0  0  0  0  0  0  0
  -11.2337    1.2209    8.6550 N   0  0  0  0  0  0  0  0  0  0  0  0
  -11.0295   -0.2281    8.9031 C   0  0  0  0  0  0  0  0  0  0  0  0
  -10.0761   -0.8660    7.8687 C   0  0  0  0  0  0  0  0  0  0  0  0
   -8.7653   -0.1898    7.8924 N   0  0  0  0  0  0  0  0  0  0  0  0
   -7.7205   -0.7992    7.1909 C   0  0  0  0  0  0  0  0  0  0  0  0
   -7.9107   -1.6901    6.1264 C   0  0  0  0  0  0  0  0  0  0  0  0
   -6.8204   -2.2258    5.4415 C   0  0  0  0  0  0  0  0  0  0  0  0
   -7.0613   -3.1362    4.0029 Cl  0  0  0  0  0  0  0  0  0  0  0  0
   -5.5223   -1.9356    5.8359 C   0  0  0  0  0  0  0  0  0  0  0  0
   -5.3016   -1.0486    6.8925 C   0  0  0  0  0  0  0  0  0  0  0  0
   -3.9056   -0.6596    7.2708 C   0  0  0  0  0  0  0  0  0  0  0  0
   -3.4183   -1.3514    8.3298 F   0  0  0  0  0  0  0  0  0  0  0  0
   -3.7865    0.6603    7.5848 F   0  0  0  0  0  0  0  0  0  0  0  0
   -3.0319   -0.8694    6.2497 F   0  0  0  0  0  0  0  0  0  0  0  0
   -6.4023   -0.5000    7.5629 C   0  0  0  0  0  0  0  0  0  0  0  0
   -8.8923    1.2652    7.6699 C   0  0  0  0  0  0  0  0  0  0  0  0
   -9.9044    1.8811    8.6643 C   0  0  0  0  0  0  0  0  0  0  0  0
  1  2  1  0
  3  2  1  1
  3  4  1  0
  4  5  1  0
  5  6  2  0
  6  7  1  0
  7  8  1  0
  7  9  1  0
  3 10  1  0
 10 11  1  0
 11 12  1  0
 12 13  1  0
 13 14  1  0
 14 15  2  0
 15 16  1  0
 16 17  1  0
 16 18  2  0
 18 19  1  0
 19 20  1  0
 20 21  1  0
 20 22  1  0
 20 23  1  0
 19 24  2  0
 13 25  1  0
 25 26  1  0
  9  4  2  0
 26 10  1  0
 24 14  1  0
M  END
>  <ref_mols>  (1556) 
B0426a

>  <gnina_score>  (1556) 
5.762

>  <smina_score_min>  (1556) 
-5.639

>  <ref_pdb>  (1556) 
B0426a

>  <inspiration_score>  (1556) 
None

>  <inchikey>  (1556) 
ZSROXZHIKHCVIV-MRXNPFEDSA-N

>  <tags>  (1556) 
BulkDock Fragalysis export,openbind_d68ev3c_c2_elabs_scored,openbind_d68ev3c_c2_elabs_scored_4.5plus,openbind_d68ev3c_c2_elabs,openbind_d68ev3c_c2_elabs_scored_5plus,syndirella_product,openbind_d68ev3c_c2_elabs_scored_top80percent,syndirella_placed

>  <smiles>  (1556) 
CO[C@H](c1cnn(C)c1)N1CCN(c2cc(Cl)cc(C(F)(F)F)c2)CC1

>  <subsites>  (1556) 
None

>  <rmsd(smina/fragmenstein)>  (1556) 
1.199

>  <alias>  (1556) 
None

>  <energy_score>  (1556) 
-47.004798

>  <HIPPO Pose ID>  (1556) 
131581

>  <distance_score>  (1556) 
0.549606

>  <HIPPO Compound ID>  (1556) 
157608

>  <gnina_score_min>  (1556) 
5.772

>  <name>  (1556) 
P131581

>  <exports>  (1556) 
['/opt/xchem-fragalysis-2/maxwin/BulkDock/OUTPUTS/openbind_d68ev3c_c2_elabs_1LOTQJ3.sdf', '/opt/xchem-fragalysis-2/maxwin/BulkDock/OUTPUTS/openbind_d68ev3c_c2_elabs_1LSYI5W.sdf']

$$$$
P131583
     RDKit          3D

 26 28  0  0  0  0  0  0  0  0999 V2000
  -17.6211    0.9729   10.6950 C   0  0  0  0  0  0  0  0  0  0  0  0
  -16.6552   -0.1412   10.3315 C   0  0  0  0  0  0  0  0  0  0  0  0
  -15.2877    0.3145   10.2630 N   0  0  0  0  0  0  0  0  0  0  0  0
  -14.4908    0.2266   11.3458 N   0  0  0  0  0  0  0  0  0  0  0  0
  -13.3787    0.8621   10.9586 C   0  0  0  0  0  0  0  0  0  0  0  0
  -13.4553    1.3546    9.6331 C   0  0  0  0  0  0  0  0  0  0  0  0
  -12.4773    2.1676    8.8706 C   0  0  0  0  0  0  0  0  0  0  0  0
  -11.2955    1.4488    8.4069 N   0  0  0  0  0  0  0  0  0  0  0  0
  -11.5675    0.1226    7.8297 C   0  0  0  0  0  0  0  0  0  0  0  0
  -10.3198   -0.4810    7.1588 C   0  0  0  0  0  0  0  0  0  0  0  0
   -9.1278   -0.4849    8.0537 N   0  0  0  0  0  0  0  0  0  0  0  0
   -8.0025   -1.1032    7.4791 C   0  0  0  0  0  0  0  0  0  0  0  0
   -8.1411   -2.3228    6.8023 C   0  0  0  0  0  0  0  0  0  0  0  0
   -7.0953   -2.8718    6.0701 C   0  0  0  0  0  0  0  0  0  0  0  0
   -5.8605   -2.2380    6.0441 C   0  0  0  0  0  0  0  0  0  0  0  0
   -4.7177   -2.8278    4.9137 Cl  0  0  0  0  0  0  0  0  0  0  0  0
   -5.6173   -1.1260    6.8468 C   0  0  0  0  0  0  0  0  0  0  0  0
   -4.2415   -0.5409    6.9957 C   0  0  0  0  0  0  0  0  0  0  0  0
   -3.4386   -1.2866    7.8045 F   0  0  0  0  0  0  0  0  0  0  0  0
   -3.5674   -0.4013    5.8216 F   0  0  0  0  0  0  0  0  0  0  0  0
   -4.2432    0.7099    7.5450 F   0  0  0  0  0  0  0  0  0  0  0  0
   -6.7033   -0.5700    7.5538 C   0  0  0  0  0  0  0  0  0  0  0  0
   -8.9262    0.8007    8.7553 C   0  0  0  0  0  0  0  0  0  0  0  0
  -10.2256    1.3228    9.4045 C   0  0  0  0  0  0  0  0  0  0  0  0
  -14.7028    0.9526    9.2178 C   0  0  0  0  0  0  0  0  0  0  0  0
  -15.2648    1.2064    8.0279 F   0  0  0  0  0  0  0  0  0  0  0  0
  1  2  1  0
  2  3  1  0
  3  4  1  0
  4  5  2  0
  5  6  1  0
  6  7  1  0
  7  8  1  0
  8  9  1  0
  9 10  1  0
 10 11  1  0
 11 12  1  0
 12 13  2  0
 13 14  1  0
 14 15  2  0
 15 16  1  0
 15 17  1  0
 17 18  1  0
 18 19  1  0
 18 20  1  0
 18 21  1  0
 17 22  2  0
 11 23  1  0
 23 24  1  0
  6 25  2  0
 25 26  1  0
 25  3  1  0
 24  8  1  0
 22 12  1  0
M  END
>  <ref_mols>  (1557) 
B0426a

>  <gnina_score>  (1557) 
5.59

>  <smina_score_min>  (1557) 
-6.149

>  <ref_pdb>  (1557) 
B0426a

>  <inspiration_score>  (1557) 
None

>  <inchikey>  (1557) 
FQEARBSQNCPKCS-UHFFFAOYSA-N

>  <tags>  (1557) 
BulkDock Fragalysis export,openbind_d68ev3c_c2_elabs_scored,openbind_d68ev3c_c2_elabs_scored_4.5plus,openbind_d68ev3c_c2_elabs,openbind_d68ev3c_c2_elabs_scored_5plus,syndirella_product,openbind_d68ev3c_c2_elabs_scored_top80percent,syndirella_placed

>  <smiles>  (1557) 
CCn1ncc(CN2CCN(c3ccc(Cl)c(C(F)(F)F)c3)CC2)c1F

>  <subsites>  (1557) 
None

>  <rmsd(smina/fragmenstein)>  (1557) 
0.722

>  <alias>  (1557) 
None

>  <energy_score>  (1557) 
-34.012895

>  <HIPPO Pose ID>  (1557) 
131583

>  <distance_score>  (1557) 
0.470556

>  <HIPPO Compound ID>  (1557) 
157609

>  <gnina_score_min>  (1557) 
5.732

>  <name>  (1557) 
P131583

>  <exports>  (1557) 
['/opt/xchem-fragalysis-2/maxwin/BulkDock/OUTPUTS/openbind_d68ev3c_c2_elabs_1LOTQJ3.sdf', '/opt/xchem-fragalysis-2/maxwin/BulkDock/OUTPUTS/openbind_d68ev3c_c2_elabs_1LSYI5W.sdf']

$$$$
P131584
     RDKit          3D

 26 28  0  0  0  0  0  0  0  0999 V2000
  -17.8502    0.8475    9.1986 C   0  0  0  0  0  0  0  0  0  0  0  0
  -16.6903    0.0166    8.6793 C   0  0  0  0  0  0  0  0  0  0  0  0
  -15.4395    0.3456    9.3247 N   0  0  0  0  0  0  0  0  0  0  0  0
  -15.2074   -0.0019   10.6110 N   0  0  0  0  0  0  0  0  0  0  0  0
  -13.9815    0.4843   10.8343 C   0  0  0  0  0  0  0  0  0  0  0  0
  -13.4272    1.1482    9.7102 C   0  0  0  0  0  0  0  0  0  0  0  0
  -12.0933    1.7948    9.6300 C   0  0  0  0  0  0  0  0  0  0  0  0
  -11.2278    1.2074    8.5944 N   0  0  0  0  0  0  0  0  0  0  0  0
  -11.0957   -0.2670    8.7241 C   0  0  0  0  0  0  0  0  0  0  0  0
  -10.1121   -0.8639    7.6952 C   0  0  0  0  0  0  0  0  0  0  0  0
   -8.7760   -0.2541    7.8525 N   0  0  0  0  0  0  0  0  0  0  0  0
   -7.7130   -0.8531    7.1659 C   0  0  0  0  0  0  0  0  0  0  0  0
   -7.8796   -1.7383    6.0916 C   0  0  0  0  0  0  0  0  0  0  0  0
   -6.7765   -2.2610    5.4167 C   0  0  0  0  0  0  0  0  0  0  0  0
   -6.9911   -3.1663    3.9704 Cl  0  0  0  0  0  0  0  0  0  0  0  0
   -5.4864   -1.9610    5.8276 C   0  0  0  0  0  0  0  0  0  0  0  0
   -5.2869   -1.0822    6.8946 C   0  0  0  0  0  0  0  0  0  0  0  0
   -3.8997   -0.6755    7.2860 C   0  0  0  0  0  0  0  0  0  0  0  0
   -3.8024    0.6449    7.6055 F   0  0  0  0  0  0  0  0  0  0  0  0
   -3.0147   -0.8694    6.2720 F   0  0  0  0  0  0  0  0  0  0  0  0
   -3.4123   -1.3636    8.3469 F   0  0  0  0  0  0  0  0  0  0  0  0
   -6.4006   -0.5542    7.5609 C   0  0  0  0  0  0  0  0  0  0  0  0
   -8.8346    1.2198    7.7317 C   0  0  0  0  0  0  0  0  0  0  0  0
   -9.8730    1.8047    8.7163 C   0  0  0  0  0  0  0  0  0  0  0  0
  -14.4200    1.0532    8.7673 C   0  0  0  0  0  0  0  0  0  0  0  0
  -14.3948    1.5621    7.5279 F   0  0  0  0  0  0  0  0  0  0  0  0
  1  2  1  0
  2  3  1  0
  3  4  1  0
  4  5  2  0
  5  6  1  0
  6  7  1  0
  7  8  1  0
  8  9  1  0
  9 10  1  0
 10 11  1  0
 11 12  1  0
 12 13  2  0
 13 14  1  0
 14 15  1  0
 14 16  2  0
 16 17  1  0
 17 18  1  0
 18 19  1  0
 18 20  1  0
 18 21  1  0
 17 22  2  0
 11 23  1  0
 23 24  1  0
  6 25  2  0
 25 26  1  0
 25  3  1  0
 24  8  1  0
 22 12  1  0
M  END
>  <ref_mols>  (1558) 
B0426a

>  <gnina_score>  (1558) 
5.663

>  <smina_score_min>  (1558) 
-5.06

>  <ref_pdb>  (1558) 
B0426a

>  <inspiration_score>  (1558) 
None

>  <inchikey>  (1558) 
RUFOUKMOWXYLRD-UHFFFAOYSA-N

>  <tags>  (1558) 
BulkDock Fragalysis export,openbind_d68ev3c_c2_elabs_scored,openbind_d68ev3c_c2_elabs_scored_4.5plus,openbind_d68ev3c_c2_elabs,openbind_d68ev3c_c2_elabs_scored_5plus,syndirella_product,openbind_d68ev3c_c2_elabs_scored_top80percent,syndirella_placed

>  <smiles>  (1558) 
CCn1ncc(CN2CCN(c3cc(Cl)cc(C(F)(F)F)c3)CC2)c1F

>  <subsites>  (1558) 
None

>  <rmsd(smina/fragmenstein)>  (1558) 
0.495

>  <alias>  (1558) 
None

>  <energy_score>  (1558) 
-33.476273

>  <HIPPO Pose ID>  (1558) 
131584

>  <distance_score>  (1558) 
0.535484

>  <HIPPO Compound ID>  (1558) 
157610

>  <gnina_score_min>  (1558) 
5.67

>  <name>  (1558) 
P131584

>  <exports>  (1558) 
['/opt/xchem-fragalysis-2/maxwin/BulkDock/OUTPUTS/openbind_d68ev3c_c2_elabs_1LOTQJ3.sdf', '/opt/xchem-fragalysis-2/maxwin/BulkDock/OUTPUTS/openbind_d68ev3c_c2_elabs_1LSYI5W.sdf']

$$$$
P131585
     RDKit          3D

 26 28  0  0  0  0  0  0  0  0999 V2000
  -16.4980   -0.5450    7.0923 C   0  0  0  0  0  0  0  0  0  0  0  0
  -16.6551   -0.0187    8.5106 C   0  0  0  0  0  0  0  0  0  0  0  0
  -15.4128    0.3037    9.1827 N   0  0  0  0  0  0  0  0  0  0  0  0
  -14.3505    0.9752    8.6542 C   0  0  0  0  0  0  0  0  0  0  0  0
  -13.4341    1.1291    9.6762 C   0  0  0  0  0  0  0  0  0  0  0  0
  -12.0841    1.7649    9.6588 C   0  0  2  0  0  0  0  0  0  0  0  0
  -12.2383    3.1522    9.4076 O   0  0  0  0  0  0  0  0  0  0  0  0
  -11.2158    1.2185    8.6119 N   0  0  0  0  0  0  0  0  0  0  0  0
  -11.1216   -0.2679    8.6849 C   0  0  0  0  0  0  0  0  0  0  0  0
  -10.1301   -0.8518    7.6553 C   0  0  0  0  0  0  0  0  0  0  0  0
   -8.7820   -0.2817    7.8589 N   0  0  0  0  0  0  0  0  0  0  0  0
   -7.7175   -0.8761    7.1707 C   0  0  0  0  0  0  0  0  0  0  0  0
   -7.8834   -1.7551    6.0907 C   0  0  0  0  0  0  0  0  0  0  0  0
   -6.7803   -2.2708    5.4099 C   0  0  0  0  0  0  0  0  0  0  0  0
   -6.9953   -3.1667    3.9572 Cl  0  0  0  0  0  0  0  0  0  0  0  0
   -5.4897   -1.9701    5.8190 C   0  0  0  0  0  0  0  0  0  0  0  0
   -5.2898   -1.1004    6.8929 C   0  0  0  0  0  0  0  0  0  0  0  0
   -3.9031   -0.6891    7.2821 C   0  0  0  0  0  0  0  0  0  0  0  0
   -3.8109    0.6301    7.6087 F   0  0  0  0  0  0  0  0  0  0  0  0
   -3.0209   -0.8717    6.2632 F   0  0  0  0  0  0  0  0  0  0  0  0
   -3.4070   -1.3807    8.3366 F   0  0  0  0  0  0  0  0  0  0  0  0
   -6.4035   -0.5831    7.5676 C   0  0  0  0  0  0  0  0  0  0  0  0
   -8.8017    1.1963    7.8152 C   0  0  0  0  0  0  0  0  0  0  0  0
   -9.8405    1.7552    8.8115 C   0  0  0  0  0  0  0  0  0  0  0  0
  -14.0778    0.5516   10.7948 C   0  0  0  0  0  0  0  0  0  0  0  0
  -15.2876    0.0664   10.5056 N   0  0  0  0  0  0  0  0  0  0  0  0
  1  2  1  0
  2  3  1  0
  3  4  1  0
  4  5  2  0
  5  6  1  0
  6  7  1  6
  6  8  1  0
  8  9  1  0
  9 10  1  0
 10 11  1  0
 11 12  1  0
 12 13  2  0
 13 14  1  0
 14 15  1  0
 14 16  2  0
 16 17  1  0
 17 18  1  0
 18 19  1  0
 18 20  1  0
 18 21  1  0
 17 22  2  0
 11 23  1  0
 23 24  1  0
  5 25  1  0
 25 26  2  0
 26  3  1  0
 24  8  1  0
 22 12  1  0
M  END
>  <ref_mols>  (1559) 
B0426a

>  <gnina_score>  (1559) 
5.539

>  <smina_score_min>  (1559) 
-5.178

>  <ref_pdb>  (1559) 
B0426a

>  <inspiration_score>  (1559) 
None

>  <inchikey>  (1559) 
FUAVHGRNMBRDGP-INIZCTEOSA-N

>  <tags>  (1559) 
BulkDock Fragalysis export,openbind_d68ev3c_c2_elabs_scored,openbind_d68ev3c_c2_elabs_scored_4.5plus,openbind_d68ev3c_c2_elabs,openbind_d68ev3c_c2_elabs_scored_5plus,syndirella_product,openbind_d68ev3c_c2_elabs_scored_top80percent,syndirella_placed

>  <smiles>  (1559) 
CCn1cc([C@H](O)N2CCN(c3cc(Cl)cc(C(F)(F)F)c3)CC2)cn1

>  <subsites>  (1559) 
None

>  <rmsd(smina/fragmenstein)>  (1559) 
0.48

>  <alias>  (1559) 
None

>  <energy_score>  (1559) 
-41.642269

>  <HIPPO Pose ID>  (1559) 
131585

>  <distance_score>  (1559) 
0.536513

>  <HIPPO Compound ID>  (1559) 
157611

>  <gnina_score_min>  (1559) 
5.462

>  <name>  (1559) 
P131585

>  <exports>  (1559) 
['/opt/xchem-fragalysis-2/maxwin/BulkDock/OUTPUTS/openbind_d68ev3c_c2_elabs_1LOTQJ3.sdf', '/opt/xchem-fragalysis-2/maxwin/BulkDock/OUTPUTS/openbind_d68ev3c_c2_elabs_1LSYI5W.sdf']

$$$$
P131587
     RDKit          3D

 26 28  0  0  0  0  0  0  0  0999 V2000
  -17.5902    1.0987    8.6093 C   0  0  0  0  0  0  0  0  0  0  0  0
  -16.7255   -0.0589    9.0809 C   0  0  0  0  0  0  0  0  0  0  0  0
  -15.4417    0.3706    9.5936 N   0  0  0  0  0  0  0  0  0  0  0  0
  -14.4546    0.9860    8.8837 C   0  0  0  0  0  0  0  0  0  0  0  0
  -13.4835    1.3449    9.7994 C   0  0  0  0  0  0  0  0  0  0  0  0
  -12.1989    2.0786    9.5842 C   0  0  2  0  0  0  0  0  0  0  0  0
  -12.4805    3.3317    8.9844 O   0  0  0  0  0  0  0  0  0  0  0  0
  -11.3112    1.3380    8.6899 N   0  0  0  0  0  0  0  0  0  0  0  0
   -9.9953    2.0273    8.6007 C   0  0  0  0  0  0  0  0  0  0  0  0
   -8.9771    1.2889    7.6994 C   0  0  0  0  0  0  0  0  0  0  0  0
   -8.8095   -0.1135    8.1300 N   0  0  0  0  0  0  0  0  0  0  0  0
   -7.8360   -0.8291    7.4185 C   0  0  0  0  0  0  0  0  0  0  0  0
   -8.1225   -1.9664    6.6513 C   0  0  0  0  0  0  0  0  0  0  0  0
   -7.1368   -2.6025    5.9085 C   0  0  0  0  0  0  0  0  0  0  0  0
   -5.8341   -2.1224    5.9351 C   0  0  0  0  0  0  0  0  0  0  0  0
   -4.7429   -2.8406    4.8288 Cl  0  0  0  0  0  0  0  0  0  0  0  0
   -5.4824   -1.0598    6.7681 C   0  0  0  0  0  0  0  0  0  0  0  0
   -4.0663   -0.6016    6.9318 C   0  0  0  0  0  0  0  0  0  0  0  0
   -3.3410   -1.4036    7.7573 F   0  0  0  0  0  0  0  0  0  0  0  0
   -3.9648    0.6528    7.4640 F   0  0  0  0  0  0  0  0  0  0  0  0
   -3.3809   -0.5381    5.7602 F   0  0  0  0  0  0  0  0  0  0  0  0
   -6.4992   -0.4220    7.4967 C   0  0  0  0  0  0  0  0  0  0  0  0
  -10.0934   -0.8118    8.2985 C   0  0  0  0  0  0  0  0  0  0  0  0
  -11.0469   -0.0301    9.2067 C   0  0  0  0  0  0  0  0  0  0  0  0
  -13.9756    0.8429   11.0279 C   0  0  0  0  0  0  0  0  0  0  0  0
  -15.1565    0.2325   10.9031 N   0  0  0  0  0  0  0  0  0  0  0  0
  1  2  1  0
  2  3  1  0
  3  4  1  0
  4  5  2  0
  5  6  1  0
  6  7  1  6
  6  8  1  0
  8  9  1  0
  9 10  1  0
 10 11  1  0
 11 12  1  0
 12 13  2  0
 13 14  1  0
 14 15  2  0
 15 16  1  0
 15 17  1  0
 17 18  1  0
 18 19  1  0
 18 20  1  0
 18 21  1  0
 17 22  2  0
 11 23  1  0
 23 24  1  0
  5 25  1  0
 25 26  2  0
 26  3  1  0
 24  8  1  0
 22 12  1  0
M  END
>  <ref_mols>  (1560) 
B0426a

>  <gnina_score>  (1560) 
5.449

>  <smina_score_min>  (1560) 
-4.914

>  <ref_pdb>  (1560) 
B0426a

>  <inspiration_score>  (1560) 
None

>  <inchikey>  (1560) 
OXDWKCYJEWMXNQ-INIZCTEOSA-N

>  <tags>  (1560) 
BulkDock Fragalysis export,openbind_d68ev3c_c2_elabs_scored,openbind_d68ev3c_c2_elabs_scored_4.5plus,openbind_d68ev3c_c2_elabs,openbind_d68ev3c_c2_elabs_scored_5plus,syndirella_product,openbind_d68ev3c_c2_elabs_scored_top80percent,syndirella_placed

>  <smiles>  (1560) 
CCn1cc([C@H](O)N2CCN(c3ccc(Cl)c(C(F)(F)F)c3)CC2)cn1

>  <subsites>  (1560) 
None

>  <rmsd(smina/fragmenstein)>  (1560) 
0.108

>  <alias>  (1560) 
None

>  <energy_score>  (1560) 
-54.956953

>  <HIPPO Pose ID>  (1560) 
131587

>  <distance_score>  (1560) 
0.527833

>  <HIPPO Compound ID>  (1560) 
157612

>  <gnina_score_min>  (1560) 
5.475

>  <name>  (1560) 
P131587

>  <exports>  (1560) 
['/opt/xchem-fragalysis-2/maxwin/BulkDock/OUTPUTS/openbind_d68ev3c_c2_elabs_1LOTQJ3.sdf', '/opt/xchem-fragalysis-2/maxwin/BulkDock/OUTPUTS/openbind_d68ev3c_c2_elabs_1LSYI5W.sdf']

$$$$
P131589
     RDKit          3D

 26 28  0  0  0  0  0  0  0  0999 V2000
  -16.7181   -0.0505    8.8705 C   0  0  0  0  0  0  0  0  0  0  0  0
  -15.4441    0.2894    9.4459 N   0  0  0  0  0  0  0  0  0  0  0  0
  -15.1586   -0.0250   10.7283 N   0  0  0  0  0  0  0  0  0  0  0  0
  -13.9347    0.4871   10.8958 C   0  0  0  0  0  0  0  0  0  0  0  0
  -13.4331    1.1345    9.7374 C   0  0  0  0  0  0  0  0  0  0  0  0
  -12.1160    1.8082    9.6032 C   0  0  0  0  0  0  0  0  0  0  0  0
  -11.2512    1.2046    8.5759 N   0  0  0  0  0  0  0  0  0  0  0  0
   -9.8973    1.8082    8.6834 C   0  0  0  0  0  0  0  0  0  0  0  0
   -8.8594    1.2138    7.7029 C   0  0  0  0  0  0  0  0  0  0  0  0
   -8.7993   -0.2598    7.8341 N   0  0  0  0  0  0  0  0  0  0  0  0
   -7.7414   -0.8673    7.1492 C   0  0  0  0  0  0  0  0  0  0  0  0
   -7.9186   -1.7696    6.0896 C   0  0  0  0  0  0  0  0  0  0  0  0
   -6.8254   -2.3115    5.4039 C   0  0  0  0  0  0  0  0  0  0  0  0
   -7.0284   -3.0890    4.2162 C   0  0  0  0  0  0  0  0  0  0  0  0
   -7.1702   -3.6811    3.2261 N   0  0  0  0  0  0  0  0  0  0  0  0
   -5.5288   -2.0005    5.8079 C   0  0  0  0  0  0  0  0  0  0  0  0
   -5.3186   -1.1052    6.8626 C   0  0  0  0  0  0  0  0  0  0  0  0
   -3.9267   -0.6944    7.2444 C   0  0  0  0  0  0  0  0  0  0  0  0
   -3.0551   -0.8726    6.2158 F   0  0  0  0  0  0  0  0  0  0  0  0
   -3.8307    0.6216    7.5799 F   0  0  0  0  0  0  0  0  0  0  0  0
   -3.4241   -1.3957    8.2896 F   0  0  0  0  0  0  0  0  0  0  0  0
   -6.4261   -0.5649    7.5289 C   0  0  0  0  0  0  0  0  0  0  0  0
  -10.1373   -0.8704    7.6955 C   0  0  0  0  0  0  0  0  0  0  0  0
  -11.1127   -0.2660    8.7268 C   0  0  0  0  0  0  0  0  0  0  0  0
  -14.4570    0.9971    8.8326 C   0  0  0  0  0  0  0  0  0  0  0  0
  -14.4869    1.4749    7.5811 F   0  0  0  0  0  0  0  0  0  0  0  0
  1  2  1  0
  2  3  1  0
  3  4  2  0
  4  5  1  0
  5  6  1  0
  6  7  1  0
  7  8  1  0
  8  9  1  0
  9 10  1  0
 10 11  1  0
 11 12  2  0
 12 13  1  0
 13 14  1  0
 14 15  3  0
 13 16  2  0
 16 17  1  0
 17 18  1  0
 18 19  1  0
 18 20  1  0
 18 21  1  0
 17 22  2  0
 10 23  1  0
 23 24  1  0
  5 25  2  0
 25 26  1  0
 25  2  1  0
 24  7  1  0
 22 11  1  0
M  END
>  <ref_mols>  (1561) 
B0426a

>  <gnina_score>  (1561) 
5.614

>  <smina_score_min>  (1561) 
-5.399

>  <ref_pdb>  (1561) 
B0426a

>  <inspiration_score>  (1561) 
None

>  <inchikey>  (1561) 
YDSQHSNVKWMIES-UHFFFAOYSA-N

>  <tags>  (1561) 
BulkDock Fragalysis export,openbind_d68ev3c_c2_elabs_scored,openbind_d68ev3c_c2_elabs_scored_4.5plus,openbind_d68ev3c_c2_elabs,openbind_d68ev3c_c2_elabs_scored_5plus,syndirella_product,openbind_d68ev3c_c2_elabs_scored_top80percent,syndirella_placed

>  <smiles>  (1561) 
Cn1ncc(CN2CCN(c3cc(C#N)cc(C(F)(F)F)c3)CC2)c1F

>  <subsites>  (1561) 
None

>  <rmsd(smina/fragmenstein)>  (1561) 
0.463

>  <alias>  (1561) 
None

>  <energy_score>  (1561) 
-41.530858

>  <HIPPO Pose ID>  (1561) 
131589

>  <distance_score>  (1561) 
0.511488

>  <HIPPO Compound ID>  (1561) 
157614

>  <gnina_score_min>  (1561) 
5.606

>  <name>  (1561) 
P131589

>  <exports>  (1561) 
['/opt/xchem-fragalysis-2/maxwin/BulkDock/OUTPUTS/openbind_d68ev3c_c2_elabs_1LOTQJ3.sdf', '/opt/xchem-fragalysis-2/maxwin/BulkDock/OUTPUTS/openbind_d68ev3c_c2_elabs_1LSYI5W.sdf']

$$$$
P131590
     RDKit          3D

 26 28  0  0  0  0  0  0  0  0999 V2000
  -13.2529    0.8320   12.3249 C   0  0  0  0  0  0  0  0  0  0  0  0
  -13.9541    0.7965   11.0148 C   0  0  0  0  0  0  0  0  0  0  0  0
  -15.1380    0.1735   10.9038 N   0  0  0  0  0  0  0  0  0  0  0  0
  -15.4736    0.3641    9.6112 N   0  0  0  0  0  0  0  0  0  0  0  0
  -16.7539   -0.0596    9.1119 C   0  0  0  0  0  0  0  0  0  0  0  0
  -14.5454    1.0638    8.9099 C   0  0  0  0  0  0  0  0  0  0  0  0
  -14.6297    1.4186    7.6203 F   0  0  0  0  0  0  0  0  0  0  0  0
  -13.5206    1.3598    9.7748 C   0  0  0  0  0  0  0  0  0  0  0  0
  -12.2558    2.0956    9.4990 C   0  0  0  0  0  0  0  0  0  0  0  0
  -11.3487    1.3001    8.6633 N   0  0  0  0  0  0  0  0  0  0  0  0
  -11.0159   -0.0045    9.2810 C   0  0  0  0  0  0  0  0  0  0  0  0
  -10.0697   -0.8236    8.3968 C   0  0  0  0  0  0  0  0  0  0  0  0
   -8.8170   -0.0936    8.1329 N   0  0  0  0  0  0  0  0  0  0  0  0
   -7.8486   -0.8217    7.4259 C   0  0  0  0  0  0  0  0  0  0  0  0
   -8.1388   -1.9605    6.6644 C   0  0  0  0  0  0  0  0  0  0  0  0
   -7.1525   -2.5984    5.9228 C   0  0  0  0  0  0  0  0  0  0  0  0
   -5.8491   -2.1172    5.9459 C   0  0  0  0  0  0  0  0  0  0  0  0
   -4.7564   -2.8374    4.8412 Cl  0  0  0  0  0  0  0  0  0  0  0  0
   -5.4965   -1.0496    6.7727 C   0  0  0  0  0  0  0  0  0  0  0  0
   -4.0803   -0.5906    6.9331 C   0  0  0  0  0  0  0  0  0  0  0  0
   -3.3529   -1.3926    7.7572 F   0  0  0  0  0  0  0  0  0  0  0  0
   -3.3960   -0.5267    5.7605 F   0  0  0  0  0  0  0  0  0  0  0  0
   -3.9773    0.6635    7.4659 F   0  0  0  0  0  0  0  0  0  0  0  0
   -6.5134   -0.4082    7.4973 C   0  0  0  0  0  0  0  0  0  0  0  0
   -9.0627    1.2560    7.5800 C   0  0  0  0  0  0  0  0  0  0  0  0
  -10.0806    2.0361    8.4479 C   0  0  0  0  0  0  0  0  0  0  0  0
  1  2  1  0
  2  3  2  0
  3  4  1  0
  4  5  1  0
  4  6  1  0
  6  7  1  0
  6  8  2  0
  8  9  1  0
  9 10  1  0
 10 11  1  0
 11 12  1  0
 12 13  1  0
 13 14  1  0
 14 15  2  0
 15 16  1  0
 16 17  2  0
 17 18  1  0
 17 19  1  0
 19 20  1  0
 20 21  1  0
 20 22  1  0
 20 23  1  0
 19 24  2  0
 13 25  1  0
 25 26  1  0
  8  2  1  0
 26 10  1  0
 24 14  1  0
M  END
>  <ref_mols>  (1562) 
B0426a

>  <gnina_score>  (1562) 
5.709

>  <smina_score_min>  (1562) 
-5.471

>  <ref_pdb>  (1562) 
B0426a

>  <inspiration_score>  (1562) 
None

>  <inchikey>  (1562) 
XHKWLBZMWBPBST-UHFFFAOYSA-N

>  <tags>  (1562) 
BulkDock Fragalysis export,openbind_d68ev3c_c2_elabs_scored,openbind_d68ev3c_c2_elabs_scored_4.5plus,openbind_d68ev3c_c2_elabs,openbind_d68ev3c_c2_elabs_scored_5plus,syndirella_product,openbind_d68ev3c_c2_elabs_scored_top80percent,syndirella_placed

>  <smiles>  (1562) 
Cc1nn(C)c(F)c1CN1CCN(c2ccc(Cl)c(C(F)(F)F)c2)CC1

>  <subsites>  (1562) 
None

>  <rmsd(smina/fragmenstein)>  (1562) 
0.14

>  <alias>  (1562) 
None

>  <energy_score>  (1562) 
-41.214238

>  <HIPPO Pose ID>  (1562) 
131590

>  <distance_score>  (1562) 
0.550903

>  <HIPPO Compound ID>  (1562) 
157615

>  <gnina_score_min>  (1562) 
5.75

>  <name>  (1562) 
P131590

>  <exports>  (1562) 
['/opt/xchem-fragalysis-2/maxwin/BulkDock/OUTPUTS/openbind_d68ev3c_c2_elabs_1LOTQJ3.sdf', '/opt/xchem-fragalysis-2/maxwin/BulkDock/OUTPUTS/openbind_d68ev3c_c2_elabs_1LSYI5W.sdf']

$$$$
P131591
     RDKit          3D

 26 28  0  0  0  0  0  0  0  0999 V2000
  -13.2574    0.7304   12.2882 C   0  0  0  0  0  0  0  0  0  0  0  0
  -13.9019    0.6850   10.9494 C   0  0  0  0  0  0  0  0  0  0  0  0
  -15.1088    0.1171   10.8026 N   0  0  0  0  0  0  0  0  0  0  0  0
  -15.3846    0.3006    9.4949 N   0  0  0  0  0  0  0  0  0  0  0  0
  -16.6612   -0.0771    8.9506 C   0  0  0  0  0  0  0  0  0  0  0  0
  -14.4010    0.9518    8.8217 C   0  0  0  0  0  0  0  0  0  0  0  0
  -14.4251    1.2986    7.5275 F   0  0  0  0  0  0  0  0  0  0  0  0
  -13.3930    1.2050    9.7194 C   0  0  0  0  0  0  0  0  0  0  0  0
  -12.0919    1.8948    9.5100 C   0  0  0  0  0  0  0  0  0  0  0  0
  -11.2278    1.2341    8.5183 N   0  0  0  0  0  0  0  0  0  0  0  0
  -11.0572   -0.2202    8.7687 C   0  0  0  0  0  0  0  0  0  0  0  0
  -10.0788   -0.8728    7.7680 C   0  0  0  0  0  0  0  0  0  0  0  0
   -8.7554   -0.2226    7.8514 N   0  0  0  0  0  0  0  0  0  0  0  0
   -7.7002   -0.8411    7.1694 C   0  0  0  0  0  0  0  0  0  0  0  0
   -7.8750   -1.7328    6.1026 C   0  0  0  0  0  0  0  0  0  0  0  0
   -6.7748   -2.2630    5.4294 C   0  0  0  0  0  0  0  0  0  0  0  0
   -6.9937   -3.1715    3.9861 Cl  0  0  0  0  0  0  0  0  0  0  0  0
   -5.4826   -1.9657    5.8374 C   0  0  0  0  0  0  0  0  0  0  0  0
   -5.2777   -1.0790    6.8970 C   0  0  0  0  0  0  0  0  0  0  0  0
   -3.8888   -0.6751    7.2839 C   0  0  0  0  0  0  0  0  0  0  0  0
   -3.4008   -1.3625    8.3451 F   0  0  0  0  0  0  0  0  0  0  0  0
   -3.7865    0.6457    7.6003 F   0  0  0  0  0  0  0  0  0  0  0  0
   -3.0074   -0.8741    6.2680 F   0  0  0  0  0  0  0  0  0  0  0  0
   -6.3874   -0.5397    7.5590 C   0  0  0  0  0  0  0  0  0  0  0  0
   -8.8512    1.2341    7.6126 C   0  0  0  0  0  0  0  0  0  0  0  0
   -9.8872    1.8730    8.5643 C   0  0  0  0  0  0  0  0  0  0  0  0
  1  2  1  0
  2  3  2  0
  3  4  1  0
  4  5  1  0
  4  6  1  0
  6  7  1  0
  6  8  2  0
  8  9  1  0
  9 10  1  0
 10 11  1  0
 11 12  1  0
 12 13  1  0
 13 14  1  0
 14 15  2  0
 15 16  1  0
 16 17  1  0
 16 18  2  0
 18 19  1  0
 19 20  1  0
 20 21  1  0
 20 22  1  0
 20 23  1  0
 19 24  2  0
 13 25  1  0
 25 26  1  0
  8  2  1  0
 26 10  1  0
 24 14  1  0
M  END
>  <ref_mols>  (1563) 
B0426a

>  <gnina_score>  (1563) 
5.805

>  <smina_score_min>  (1563) 
-5.938

>  <ref_pdb>  (1563) 
B0426a

>  <inspiration_score>  (1563) 
None

>  <inchikey>  (1563) 
PTISTPURVVUONX-UHFFFAOYSA-N

>  <tags>  (1563) 
BulkDock Fragalysis export,openbind_d68ev3c_c2_elabs_scored,openbind_d68ev3c_c2_elabs_scored_4.5plus,openbind_d68ev3c_c2_elabs,openbind_d68ev3c_c2_elabs_scored_5plus,syndirella_product,openbind_d68ev3c_c2_elabs_scored_top80percent,syndirella_placed

>  <smiles>  (1563) 
Cc1nn(C)c(F)c1CN1CCN(c2cc(Cl)cc(C(F)(F)F)c2)CC1

>  <subsites>  (1563) 
None

>  <rmsd(smina/fragmenstein)>  (1563) 
0.975

>  <alias>  (1563) 
None

>  <energy_score>  (1563) 
-30.404634

>  <HIPPO Pose ID>  (1563) 
131591

>  <distance_score>  (1563) 
0.533439

>  <HIPPO Compound ID>  (1563) 
157616

>  <gnina_score_min>  (1563) 
5.958

>  <name>  (1563) 
P131591

>  <exports>  (1563) 
['/opt/xchem-fragalysis-2/maxwin/BulkDock/OUTPUTS/openbind_d68ev3c_c2_elabs_1LOTQJ3.sdf', '/opt/xchem-fragalysis-2/maxwin/BulkDock/OUTPUTS/openbind_d68ev3c_c2_elabs_1LSYI5W.sdf']

$$$$
P131592
     RDKit          3D

 26 28  0  0  0  0  0  0  0  0999 V2000
  -15.8924   -1.0208    6.3517 C   0  0  0  0  0  0  0  0  0  0  0  0
  -16.9642   -0.8085    7.4105 C   0  0  0  0  0  0  0  0  0  0  0  0
  -16.7730    0.4576    8.2421 C   0  0  0  0  0  0  0  0  0  0  0  0
  -15.5376    0.5258    8.9976 N   0  0  0  0  0  0  0  0  0  0  0  0
  -14.3892    1.1343    8.5796 C   0  0  0  0  0  0  0  0  0  0  0  0
  -13.5186    1.1140    9.6479 C   0  0  0  0  0  0  0  0  0  0  0  0
  -12.1289    1.6422    9.7428 C   0  0  0  0  0  0  0  0  0  0  0  0
  -11.2614    1.1588    8.6546 N   0  0  0  0  0  0  0  0  0  0  0  0
  -11.1658   -0.3263    8.6589 C   0  0  0  0  0  0  0  0  0  0  0  0
  -10.1676   -0.8665    7.6131 C   0  0  0  0  0  0  0  0  0  0  0  0
   -8.8207   -0.2958    7.8411 N   0  0  0  0  0  0  0  0  0  0  0  0
   -7.7466   -0.8719    7.1536 C   0  0  0  0  0  0  0  0  0  0  0  0
   -7.9002   -1.7502    6.0708 C   0  0  0  0  0  0  0  0  0  0  0  0
   -6.7912   -2.2614    5.3962 C   0  0  0  0  0  0  0  0  0  0  0  0
   -6.9939   -3.1625    3.9448 Cl  0  0  0  0  0  0  0  0  0  0  0  0
   -5.5044   -1.9552    5.8130 C   0  0  0  0  0  0  0  0  0  0  0  0
   -5.3146   -1.0849    6.8883 C   0  0  0  0  0  0  0  0  0  0  0  0
   -3.9302   -0.6728    7.2864 C   0  0  0  0  0  0  0  0  0  0  0  0
   -3.8396    0.6467    7.6124 F   0  0  0  0  0  0  0  0  0  0  0  0
   -3.0394   -0.8569    6.2745 F   0  0  0  0  0  0  0  0  0  0  0  0
   -3.4410   -1.3632    8.3453 F   0  0  0  0  0  0  0  0  0  0  0  0
   -6.4355   -0.5721    7.5568 C   0  0  0  0  0  0  0  0  0  0  0  0
   -8.8533    1.1839    7.8434 C   0  0  0  0  0  0  0  0  0  0  0  0
   -9.8956    1.7039    8.8602 C   0  0  0  0  0  0  0  0  0  0  0  0
  -14.2631    0.4852   10.6736 C   0  0  0  0  0  0  0  0  0  0  0  0
  -15.4999    0.1507   10.2933 N   0  0  0  0  0  0  0  0  0  0  0  0
  1  2  1  0
  2  3  1  0
  3  4  1  0
  4  5  1  0
  5  6  2  0
  6  7  1  0
  7  8  1  0
  8  9  1  0
  9 10  1  0
 10 11  1  0
 11 12  1  0
 12 13  2  0
 13 14  1  0
 14 15  1  0
 14 16  2  0
 16 17  1  0
 17 18  1  0
 18 19  1  0
 18 20  1  0
 18 21  1  0
 17 22  2  0
 11 23  1  0
 23 24  1  0
  6 25  1  0
 25 26  2  0
 26  4  1  0
 24  8  1  0
 22 12  1  0
M  END
>  <ref_mols>  (1564) 
B0426a

>  <gnina_score>  (1564) 
5.653

>  <smina_score_min>  (1564) 
-5.059

>  <ref_pdb>  (1564) 
B0426a

>  <inspiration_score>  (1564) 
None

>  <inchikey>  (1564) 
SIADKNVHFMHQHA-UHFFFAOYSA-N

>  <tags>  (1564) 
BulkDock Fragalysis export,openbind_d68ev3c_c2_elabs_scored,openbind_d68ev3c_c2_elabs_scored_4.5plus,openbind_d68ev3c_c2_elabs,openbind_d68ev3c_c2_elabs_scored_5plus,syndirella_product,openbind_d68ev3c_c2_elabs_scored_top80percent,syndirella_placed

>  <smiles>  (1564) 
CCCn1cc(CN2CCN(c3cc(Cl)cc(C(F)(F)F)c3)CC2)cn1

>  <subsites>  (1564) 
None

>  <rmsd(smina/fragmenstein)>  (1564) 
0.647

>  <alias>  (1564) 
None

>  <energy_score>  (1564) 
-40.716027

>  <HIPPO Pose ID>  (1564) 
131592

>  <distance_score>  (1564) 
0.601141

>  <HIPPO Compound ID>  (1564) 
157617

>  <gnina_score_min>  (1564) 
5.535

>  <name>  (1564) 
P131592

>  <exports>  (1564) 
['/opt/xchem-fragalysis-2/maxwin/BulkDock/OUTPUTS/openbind_d68ev3c_c2_elabs_1LOTQJ3.sdf', '/opt/xchem-fragalysis-2/maxwin/BulkDock/OUTPUTS/openbind_d68ev3c_c2_elabs_1LSYI5W.sdf']

$$$$
P131593
     RDKit          3D

 26 28  0  0  0  0  0  0  0  0999 V2000
  -16.9033    0.0620    9.1643 C   0  0  0  0  0  0  0  0  0  0  0  0
  -15.5502    0.4189    9.5259 N   0  0  0  0  0  0  0  0  0  0  0  0
  -15.0547   -0.0443   10.7022 N   0  0  0  0  0  0  0  0  0  0  0  0
  -13.8252    0.4583   10.7137 C   0  0  0  0  0  0  0  0  0  0  0  0
  -13.5315    1.2444    9.5749 C   0  0  0  0  0  0  0  0  0  0  0  0
  -12.2400    1.9661    9.3575 C   0  0  0  0  0  0  0  0  0  0  0  0
  -11.2689    1.2893    8.4729 N   0  0  0  0  0  0  0  0  0  0  0  0
  -11.2249   -0.1789    8.6173 C   0  0  0  0  0  0  0  0  0  0  0  0
  -10.2042   -0.8066    7.6428 C   0  0  0  0  0  0  0  0  0  0  0  0
   -8.8387   -0.2579    7.8597 N   0  0  0  0  0  0  0  0  0  0  0  0
   -7.7798   -0.8709    7.1764 C   0  0  0  0  0  0  0  0  0  0  0  0
   -7.9581   -1.7700    6.1136 C   0  0  0  0  0  0  0  0  0  0  0  0
   -6.8662   -2.3065    5.4216 C   0  0  0  0  0  0  0  0  0  0  0  0
   -7.0658   -3.0792    4.2301 C   0  0  0  0  0  0  0  0  0  0  0  0
   -7.1801   -3.6725    3.2366 N   0  0  0  0  0  0  0  0  0  0  0  0
   -5.5679   -1.9948    5.8217 C   0  0  0  0  0  0  0  0  0  0  0  0
   -5.3537   -1.1064    6.8807 C   0  0  0  0  0  0  0  0  0  0  0  0
   -3.9604   -0.6926    7.2532 C   0  0  0  0  0  0  0  0  0  0  0  0
   -3.8605    0.6209    7.5976 F   0  0  0  0  0  0  0  0  0  0  0  0
   -3.4418   -1.4008    8.2872 F   0  0  0  0  0  0  0  0  0  0  0  0
   -3.0939   -0.8605    6.2158 F   0  0  0  0  0  0  0  0  0  0  0  0
   -6.4609   -0.5755    7.5563 C   0  0  0  0  0  0  0  0  0  0  0  0
   -8.8470    1.2250    7.7769 C   0  0  0  0  0  0  0  0  0  0  0  0
   -9.9194    1.8347    8.7067 C   0  0  0  0  0  0  0  0  0  0  0  0
  -14.6975    1.2535    8.8044 C   0  0  0  0  0  0  0  0  0  0  0  0
  -15.0752    1.7793    7.7695 O   0  0  0  0  0  0  0  0  0  0  0  0
  1  2  1  0
  2  3  1  0
  3  4  2  0
  4  5  1  0
  5  6  1  0
  6  7  1  0
  7  8  1  0
  8  9  1  0
  9 10  1  0
 10 11  1  0
 11 12  2  0
 12 13  1  0
 13 14  1  0
 14 15  3  0
 13 16  2  0
 16 17  1  0
 17 18  1  0
 18 19  1  0
 18 20  1  0
 18 21  1  0
 17 22  2  0
 10 23  1  0
 23 24  1  0
  5 25  2  0
 25 26  1  0
 25  2  1  0
 24  7  1  0
 22 11  1  0
M  CHG  1  26  -1
M  END
>  <ref_mols>  (1565) 
B0426a

>  <gnina_score>  (1565) 
5.637

>  <smina_score_min>  (1565) 
-5.826

>  <ref_pdb>  (1565) 
B0426a

>  <inspiration_score>  (1565) 
None

>  <inchikey>  (1565) 
SKWDBWVKUALCLJ-UHFFFAOYSA-M

>  <tags>  (1565) 
BulkDock Fragalysis export,openbind_d68ev3c_c2_elabs_scored,openbind_d68ev3c_c2_elabs_scored_4.5plus,openbind_d68ev3c_c2_elabs,openbind_d68ev3c_c2_elabs_scored_5plus,syndirella_product,openbind_d68ev3c_c2_elabs_scored_top80percent,syndirella_placed

>  <smiles>  (1565) 
Cn1ncc(CN2CCN(c3cc(C#N)cc(C(F)(F)F)c3)CC2)c1[O-]

>  <subsites>  (1565) 
None

>  <rmsd(smina/fragmenstein)>  (1565) 
1.223

>  <alias>  (1565) 
None

>  <energy_score>  (1565) 
-61.235881

>  <HIPPO Pose ID>  (1565) 
131593

>  <distance_score>  (1565) 
0.498022

>  <HIPPO Compound ID>  (1565) 
157619

>  <gnina_score_min>  (1565) 
5.767

>  <name>  (1565) 
P131593

>  <exports>  (1565) 
['/opt/xchem-fragalysis-2/maxwin/BulkDock/OUTPUTS/openbind_d68ev3c_c2_elabs_1LOTQJ3.sdf', '/opt/xchem-fragalysis-2/maxwin/BulkDock/OUTPUTS/openbind_d68ev3c_c2_elabs_1LSYI5W.sdf']

$$$$
P131595
     RDKit          3D

 26 28  0  0  0  0  0  0  0  0999 V2000
  -12.6212    1.0928   12.0269 C   0  0  0  0  0  0  0  0  0  0  0  0
  -13.5874    0.9167   10.9159 C   0  0  0  0  0  0  0  0  0  0  0  0
  -14.6988    0.1995   11.1379 N   0  0  0  0  0  0  0  0  0  0  0  0
  -15.3746    0.2806    9.9859 N   0  0  0  0  0  0  0  0  0  0  0  0
  -16.7354   -0.1800    9.9134 C   0  0  0  0  0  0  0  0  0  0  0  0
  -14.7180    0.9661    9.0161 C   0  0  0  0  0  0  0  0  0  0  0  0
  -13.5530    1.4432    9.5916 C   0  0  0  0  0  0  0  0  0  0  0  0
  -12.5913    2.3833    8.9363 C   0  0  1  0  0  0  0  0  0  0  0  0
  -12.3266    3.5184    9.7504 O   0  0  0  0  0  0  0  0  0  0  0  0
  -11.3687    1.7952    8.4250 N   0  0  0  0  0  0  0  0  0  0  0  0
  -11.5409    0.5125    7.7231 C   0  0  0  0  0  0  0  0  0  0  0  0
  -10.2547    0.1002    6.9789 C   0  0  0  0  0  0  0  0  0  0  0  0
   -9.0918    0.1074    7.8896 N   0  0  0  0  0  0  0  0  0  0  0  0
   -7.9742   -0.6051    7.4892 C   0  0  0  0  0  0  0  0  0  0  0  0
   -8.1453   -1.9459    7.1726 C   0  0  0  0  0  0  0  0  0  0  0  0
   -7.0710   -2.7336    6.8146 C   0  0  0  0  0  0  0  0  0  0  0  0
   -7.3715   -4.3783    6.6030 Cl  0  0  0  0  0  0  0  0  0  0  0  0
   -5.7852   -2.2276    6.7438 C   0  0  0  0  0  0  0  0  0  0  0  0
   -5.5633   -0.8954    7.0905 C   0  0  0  0  0  0  0  0  0  0  0  0
   -4.1520   -0.3814    7.1022 C   0  0  0  0  0  0  0  0  0  0  0  0
   -3.3882   -0.9721    8.0617 F   0  0  0  0  0  0  0  0  0  0  0  0
   -3.5091   -0.6184    5.9233 F   0  0  0  0  0  0  0  0  0  0  0  0
   -4.0518    0.9584    7.3162 F   0  0  0  0  0  0  0  0  0  0  0  0
   -6.6646   -0.0954    7.4603 C   0  0  0  0  0  0  0  0  0  0  0  0
   -8.9422    1.3330    8.6716 C   0  0  0  0  0  0  0  0  0  0  0  0
  -10.2631    1.6905    9.3855 C   0  0  0  0  0  0  0  0  0  0  0  0
  1  2  1  0
  2  3  2  0
  3  4  1  0
  4  5  1  0
  4  6  1  0
  6  7  2  0
  7  8  1  0
  8  9  1  1
  8 10  1  0
 10 11  1  0
 11 12  1  0
 12 13  1  0
 13 14  1  0
 14 15  2  0
 15 16  1  0
 16 17  1  0
 16 18  2  0
 18 19  1  0
 19 20  1  0
 20 21  1  0
 20 22  1  0
 20 23  1  0
 19 24  2  0
 13 25  1  0
 25 26  1  0
  7  2  1  0
 26 10  1  0
 24 14  1  0
M  END
>  <ref_mols>  (1566) 
B0426a

>  <gnina_score>  (1566) 
5.651

>  <smina_score_min>  (1566) 
-5.891

>  <ref_pdb>  (1566) 
B0426a

>  <inspiration_score>  (1566) 
None

>  <inchikey>  (1566) 
JPRBOBQUKVHZPD-MRXNPFEDSA-N

>  <tags>  (1566) 
BulkDock Fragalysis export,openbind_d68ev3c_c2_elabs_scored,openbind_d68ev3c_c2_elabs_scored_4.5plus,openbind_d68ev3c_c2_elabs,openbind_d68ev3c_c2_elabs_scored_5plus,syndirella_product,openbind_d68ev3c_c2_elabs_scored_top80percent,syndirella_placed

>  <smiles>  (1566) 
Cc1nn(C)cc1[C@@H](O)N1CCN(c2cc(Cl)cc(C(F)(F)F)c2)CC1

>  <subsites>  (1566) 
None

>  <rmsd(smina/fragmenstein)>  (1566) 
0.486

>  <alias>  (1566) 
None

>  <energy_score>  (1566) 
-33.525718

>  <HIPPO Pose ID>  (1566) 
131595

>  <distance_score>  (1566) 
0.559329

>  <HIPPO Compound ID>  (1566) 
157620

>  <gnina_score_min>  (1566) 
5.706

>  <name>  (1566) 
P131595

>  <exports>  (1566) 
['/opt/xchem-fragalysis-2/maxwin/BulkDock/OUTPUTS/openbind_d68ev3c_c2_elabs_1LOTQJ3.sdf', '/opt/xchem-fragalysis-2/maxwin/BulkDock/OUTPUTS/openbind_d68ev3c_c2_elabs_1LSYI5W.sdf']

$$$$
P131596
     RDKit          3D

 26 28  0  0  0  0  0  0  0  0999 V2000
  -16.7025   -0.0635    8.7719 C   0  0  0  0  0  0  0  0  0  0  0  0
  -15.4401    0.3031    9.3641 N   0  0  0  0  0  0  0  0  0  0  0  0
  -15.2086    0.0273   10.6700 N   0  0  0  0  0  0  0  0  0  0  0  0
  -13.9877    0.5296   10.8768 C   0  0  0  0  0  0  0  0  0  0  0  0
  -13.4272    1.1364    9.7249 C   0  0  0  0  0  0  0  0  0  0  0  0
  -12.0943    1.7883    9.6351 C   0  0  0  0  0  0  0  0  0  0  0  0
  -11.2251    1.1961    8.6060 N   0  0  0  0  0  0  0  0  0  0  0  0
  -11.0965   -0.2766    8.7400 C   0  0  0  0  0  0  0  0  0  0  0  0
  -10.1261   -0.8729    7.7004 C   0  0  0  0  0  0  0  0  0  0  0  0
   -8.7849   -0.2703    7.8441 N   0  0  0  0  0  0  0  0  0  0  0  0
   -7.7298   -0.8751    7.1540 C   0  0  0  0  0  0  0  0  0  0  0  0
   -7.9104   -1.7740    6.0922 C   0  0  0  0  0  0  0  0  0  0  0  0
   -6.8197   -2.3146    5.4018 C   0  0  0  0  0  0  0  0  0  0  0  0
   -7.0269   -3.0896    4.2133 C   0  0  0  0  0  0  0  0  0  0  0  0
   -7.1723   -3.6799    3.2226 N   0  0  0  0  0  0  0  0  0  0  0  0
   -5.5219   -2.0050    5.8028 C   0  0  0  0  0  0  0  0  0  0  0  0
   -5.3084   -1.1132    6.8599 C   0  0  0  0  0  0  0  0  0  0  0  0
   -3.9162   -0.7025    7.2395 C   0  0  0  0  0  0  0  0  0  0  0  0
   -3.0474   -0.8787    6.2084 F   0  0  0  0  0  0  0  0  0  0  0  0
   -3.8198    0.6130    7.5766 F   0  0  0  0  0  0  0  0  0  0  0  0
   -3.4108   -1.4053    8.2824 F   0  0  0  0  0  0  0  0  0  0  0  0
   -6.4134   -0.5753    7.5314 C   0  0  0  0  0  0  0  0  0  0  0  0
   -8.8376    1.2058    7.7352 C   0  0  0  0  0  0  0  0  0  0  0  0
   -9.8704    1.7911    8.7259 C   0  0  0  0  0  0  0  0  0  0  0  0
  -14.4098    0.9769    8.7796 C   0  0  0  0  0  0  0  0  0  0  0  0
  -14.4864    1.4594    7.1490 Cl  0  0  0  0  0  0  0  0  0  0  0  0
  1  2  1  0
  2  3  1  0
  3  4  2  0
  4  5  1  0
  5  6  1  0
  6  7  1  0
  7  8  1  0
  8  9  1  0
  9 10  1  0
 10 11  1  0
 11 12  2  0
 12 13  1  0
 13 14  1  0
 14 15  3  0
 13 16  2  0
 16 17  1  0
 17 18  1  0
 18 19  1  0
 18 20  1  0
 18 21  1  0
 17 22  2  0
 10 23  1  0
 23 24  1  0
  5 25  2  0
 25 26  1  0
 25  2  1  0
 24  7  1  0
 22 11  1  0
M  END
>  <ref_mols>  (1567) 
B0426a

>  <gnina_score>  (1567) 
5.695

>  <smina_score_min>  (1567) 
-5.394

>  <ref_pdb>  (1567) 
B0426a

>  <inspiration_score>  (1567) 
None

>  <inchikey>  (1567) 
QKAASCSDGCSSHK-UHFFFAOYSA-N

>  <tags>  (1567) 
BulkDock Fragalysis export,openbind_d68ev3c_c2_elabs_scored,openbind_d68ev3c_c2_elabs_scored_4.5plus,openbind_d68ev3c_c2_elabs,openbind_d68ev3c_c2_elabs_scored_5plus,syndirella_product,openbind_d68ev3c_c2_elabs_scored_top80percent,syndirella_placed

>  <smiles>  (1567) 
Cn1ncc(CN2CCN(c3cc(C#N)cc(C(F)(F)F)c3)CC2)c1Cl

>  <subsites>  (1567) 
None

>  <rmsd(smina/fragmenstein)>  (1567) 
0.473

>  <alias>  (1567) 
None

>  <energy_score>  (1567) 
-30.27038

>  <HIPPO Pose ID>  (1567) 
131596

>  <distance_score>  (1567) 
0.519312

>  <HIPPO Compound ID>  (1567) 
157622

>  <gnina_score_min>  (1567) 
5.666

>  <name>  (1567) 
P131596

>  <exports>  (1567) 
['/opt/xchem-fragalysis-2/maxwin/BulkDock/OUTPUTS/openbind_d68ev3c_c2_elabs_1LOTQJ3.sdf', '/opt/xchem-fragalysis-2/maxwin/BulkDock/OUTPUTS/openbind_d68ev3c_c2_elabs_1LSYI5W.sdf']

$$$$
P131597
     RDKit          3D

 26 28  0  0  0  0  0  0  0  0999 V2000
  -17.8704    0.8248    6.6091 C   0  0  0  0  0  0  0  0  0  0  0  0
  -17.4609    0.7966    7.8850 C   0  0  0  0  0  0  0  0  0  0  0  0
  -16.5496   -0.2525    8.4633 C   0  0  0  0  0  0  0  0  0  0  0  0
  -15.4241    0.3188    9.1909 N   0  0  0  0  0  0  0  0  0  0  0  0
  -14.3757    0.9917    8.6371 C   0  0  0  0  0  0  0  0  0  0  0  0
  -13.5377    1.3375    9.6766 C   0  0  0  0  0  0  0  0  0  0  0  0
  -12.2236    2.0387    9.6139 C   0  0  0  0  0  0  0  0  0  0  0  0
  -11.3016    1.3063    8.7386 N   0  0  0  0  0  0  0  0  0  0  0  0
  -10.0139    2.0256    8.6187 C   0  0  0  0  0  0  0  0  0  0  0  0
   -8.9937    1.2903    7.7125 C   0  0  0  0  0  0  0  0  0  0  0  0
   -8.7977   -0.1079    8.1532 N   0  0  0  0  0  0  0  0  0  0  0  0
   -7.8313   -0.8179    7.4269 C   0  0  0  0  0  0  0  0  0  0  0  0
   -8.1242   -1.9497    6.6539 C   0  0  0  0  0  0  0  0  0  0  0  0
   -7.1426   -2.5867    5.9064 C   0  0  0  0  0  0  0  0  0  0  0  0
   -5.8378   -2.1122    5.9331 C   0  0  0  0  0  0  0  0  0  0  0  0
   -4.7490   -2.8365    4.8279 Cl  0  0  0  0  0  0  0  0  0  0  0  0
   -5.4814   -1.0513    6.7668 C   0  0  0  0  0  0  0  0  0  0  0  0
   -4.0638   -0.5983    6.9292 C   0  0  0  0  0  0  0  0  0  0  0  0
   -3.9567    0.6565    7.4597 F   0  0  0  0  0  0  0  0  0  0  0  0
   -3.3410   -1.4019    7.7555 F   0  0  0  0  0  0  0  0  0  0  0  0
   -3.3784   -0.5392    5.7572 F   0  0  0  0  0  0  0  0  0  0  0  0
   -6.4944   -0.4118    7.4993 C   0  0  0  0  0  0  0  0  0  0  0  0
  -10.0707   -0.8229    8.3497 C   0  0  0  0  0  0  0  0  0  0  0  0
  -11.0146   -0.0472    9.2710 C   0  0  0  0  0  0  0  0  0  0  0  0
  -14.1909    0.8296   10.8238 C   0  0  0  0  0  0  0  0  0  0  0  0
  -15.3412    0.2133   10.5371 N   0  0  0  0  0  0  0  0  0  0  0  0
  1  2  2  0
  2  3  1  0
  3  4  1  0
  4  5  1  0
  5  6  2  0
  6  7  1  0
  7  8  1  0
  8  9  1  0
  9 10  1  0
 10 11  1  0
 11 12  1  0
 12 13  2  0
 13 14  1  0
 14 15  2  0
 15 16  1  0
 15 17  1  0
 17 18  1  0
 18 19  1  0
 18 20  1  0
 18 21  1  0
 17 22  2  0
 11 23  1  0
 23 24  1  0
  6 25  1  0
 25 26  2  0
 26  4  1  0
 24  8  1  0
 22 12  1  0
M  END
>  <ref_mols>  (1568) 
B0426a

>  <gnina_score>  (1568) 
5.574

>  <smina_score_min>  (1568) 
-5.506

>  <ref_pdb>  (1568) 
B0426a

>  <inspiration_score>  (1568) 
None

>  <inchikey>  (1568) 
FBXKOVZEPXTAAJ-UHFFFAOYSA-N

>  <tags>  (1568) 
BulkDock Fragalysis export,openbind_d68ev3c_c2_elabs_scored,openbind_d68ev3c_c2_elabs_scored_4.5plus,openbind_d68ev3c_c2_elabs,openbind_d68ev3c_c2_elabs_scored_5plus,syndirella_product,openbind_d68ev3c_c2_elabs_scored_top80percent,syndirella_placed

>  <smiles>  (1568) 
C=CCn1cc(CN2CCN(c3ccc(Cl)c(C(F)(F)F)c3)CC2)cn1

>  <subsites>  (1568) 
None

>  <rmsd(smina/fragmenstein)>  (1568) 
0.904

>  <alias>  (1568) 
None

>  <energy_score>  (1568) 
-39.035657

>  <HIPPO Pose ID>  (1568) 
131597

>  <distance_score>  (1568) 
0.559219

>  <HIPPO Compound ID>  (1568) 
157623

>  <gnina_score_min>  (1568) 
5.664

>  <name>  (1568) 
P131597

>  <exports>  (1568) 
['/opt/xchem-fragalysis-2/maxwin/BulkDock/OUTPUTS/openbind_d68ev3c_c2_elabs_1LOTQJ3.sdf', '/opt/xchem-fragalysis-2/maxwin/BulkDock/OUTPUTS/openbind_d68ev3c_c2_elabs_1LSYI5W.sdf']

$$$$
P131598
     RDKit          3D

 26 28  0  0  0  0  0  0  0  0999 V2000
  -16.2225   -0.9259    6.1274 C   0  0  0  0  0  0  0  0  0  0  0  0
  -16.5270    0.0669    6.9743 C   0  0  0  0  0  0  0  0  0  0  0  0
  -16.5947   -0.0905    8.4687 C   0  0  0  0  0  0  0  0  0  0  0  0
  -15.4034    0.3410    9.1947 N   0  0  0  0  0  0  0  0  0  0  0  0
  -14.3006    0.9737    8.6988 C   0  0  0  0  0  0  0  0  0  0  0  0
  -13.4291    1.1406    9.7537 C   0  0  0  0  0  0  0  0  0  0  0  0
  -12.0572    1.7187    9.7606 C   0  0  0  0  0  0  0  0  0  0  0  0
  -11.2105    1.1924    8.6753 N   0  0  0  0  0  0  0  0  0  0  0  0
  -11.0997   -0.2912    8.7321 C   0  0  0  0  0  0  0  0  0  0  0  0
  -10.1252   -0.8569    7.6779 C   0  0  0  0  0  0  0  0  0  0  0  0
   -8.7802   -0.2683    7.8572 N   0  0  0  0  0  0  0  0  0  0  0  0
   -7.7184   -0.8577    7.1638 C   0  0  0  0  0  0  0  0  0  0  0  0
   -7.8865   -1.7376    6.0852 C   0  0  0  0  0  0  0  0  0  0  0  0
   -6.7847   -2.2580    5.4062 C   0  0  0  0  0  0  0  0  0  0  0  0
   -7.0012   -3.1603    3.9578 Cl  0  0  0  0  0  0  0  0  0  0  0  0
   -5.4935   -1.9596    5.8157 C   0  0  0  0  0  0  0  0  0  0  0  0
   -5.2919   -1.0866    6.8869 C   0  0  0  0  0  0  0  0  0  0  0  0
   -3.9044   -0.6813    7.2785 C   0  0  0  0  0  0  0  0  0  0  0  0
   -3.0203   -0.8714    6.2626 F   0  0  0  0  0  0  0  0  0  0  0  0
   -3.4144   -1.3730    8.3361 F   0  0  0  0  0  0  0  0  0  0  0  0
   -3.8056    0.6381    7.6023 F   0  0  0  0  0  0  0  0  0  0  0  0
   -6.4045   -0.5632    7.5585 C   0  0  0  0  0  0  0  0  0  0  0  0
   -8.8245    1.2096    7.8029 C   0  0  0  0  0  0  0  0  0  0  0  0
   -9.8470    1.7592    8.8234 C   0  0  0  0  0  0  0  0  0  0  0  0
  -14.1371    0.6214   10.8610 C   0  0  0  0  0  0  0  0  0  0  0  0
  -15.3475    0.1605   10.5365 N   0  0  0  0  0  0  0  0  0  0  0  0
  1  2  2  0
  2  3  1  0
  3  4  1  0
  4  5  1  0
  5  6  2  0
  6  7  1  0
  7  8  1  0
  8  9  1  0
  9 10  1  0
 10 11  1  0
 11 12  1  0
 12 13  2  0
 13 14  1  0
 14 15  1  0
 14 16  2  0
 16 17  1  0
 17 18  1  0
 18 19  1  0
 18 20  1  0
 18 21  1  0
 17 22  2  0
 11 23  1  0
 23 24  1  0
  6 25  1  0
 25 26  2  0
 26  4  1  0
 24  8  1  0
 22 12  1  0
M  END
>  <ref_mols>  (1569) 
B0426a

>  <gnina_score>  (1569) 
5.664

>  <smina_score_min>  (1569) 
-5.03

>  <ref_pdb>  (1569) 
B0426a

>  <inspiration_score>  (1569) 
None

>  <inchikey>  (1569) 
QZTRSNMQEHBLPU-UHFFFAOYSA-N

>  <tags>  (1569) 
BulkDock Fragalysis export,openbind_d68ev3c_c2_elabs_scored,openbind_d68ev3c_c2_elabs_scored_4.5plus,openbind_d68ev3c_c2_elabs,openbind_d68ev3c_c2_elabs_scored_5plus,syndirella_product,openbind_d68ev3c_c2_elabs_scored_top80percent,syndirella_placed

>  <smiles>  (1569) 
C=CCn1cc(CN2CCN(c3cc(Cl)cc(C(F)(F)F)c3)CC2)cn1

>  <subsites>  (1569) 
None

>  <rmsd(smina/fragmenstein)>  (1569) 
0.455

>  <alias>  (1569) 
None

>  <energy_score>  (1569) 
-36.838827

>  <HIPPO Pose ID>  (1569) 
131598

>  <distance_score>  (1569) 
0.563857

>  <HIPPO Compound ID>  (1569) 
157624

>  <gnina_score_min>  (1569) 
5.669

>  <name>  (1569) 
P131598

>  <exports>  (1569) 
['/opt/xchem-fragalysis-2/maxwin/BulkDock/OUTPUTS/openbind_d68ev3c_c2_elabs_1LOTQJ3.sdf', '/opt/xchem-fragalysis-2/maxwin/BulkDock/OUTPUTS/openbind_d68ev3c_c2_elabs_1LSYI5W.sdf']

$$$$
P131599
     RDKit          3D

 26 28  0  0  0  0  0  0  0  0999 V2000
  -17.5644   -0.6875    8.7786 F   0  0  0  0  0  0  0  0  0  0  0  0
  -16.4157   -0.3744    8.1171 C   0  0  0  0  0  0  0  0  0  0  0  0
  -16.7879    0.4870    7.1209 F   0  0  0  0  0  0  0  0  0  0  0  0
  -15.4002    0.2261    8.9796 N   0  0  0  0  0  0  0  0  0  0  0  0
  -14.3569    0.9874    8.5266 C   0  0  0  0  0  0  0  0  0  0  0  0
  -13.5715    1.2831    9.6204 C   0  0  0  0  0  0  0  0  0  0  0  0
  -12.2579    1.9916    9.6446 C   0  0  0  0  0  0  0  0  0  0  0  0
  -11.3111    1.2949    8.7661 N   0  0  0  0  0  0  0  0  0  0  0  0
  -11.0321   -0.0764    9.2560 C   0  0  0  0  0  0  0  0  0  0  0  0
  -10.0830   -0.8215    8.3169 C   0  0  0  0  0  0  0  0  0  0  0  0
   -8.8048   -0.1066    8.1580 N   0  0  0  0  0  0  0  0  0  0  0  0
   -7.8361   -0.8029    7.4209 C   0  0  0  0  0  0  0  0  0  0  0  0
   -8.1276   -1.9265    6.6339 C   0  0  0  0  0  0  0  0  0  0  0  0
   -7.1446   -2.5635    5.8886 C   0  0  0  0  0  0  0  0  0  0  0  0
   -5.8383   -2.0965    5.9286 C   0  0  0  0  0  0  0  0  0  0  0  0
   -4.7436   -2.8274    4.8338 Cl  0  0  0  0  0  0  0  0  0  0  0  0
   -5.4838   -1.0401    6.7692 C   0  0  0  0  0  0  0  0  0  0  0  0
   -4.0657   -0.5921    6.9397 C   0  0  0  0  0  0  0  0  0  0  0  0
   -3.9568    0.6614    7.4723 F   0  0  0  0  0  0  0  0  0  0  0  0
   -3.3493   -1.3997    7.7678 F   0  0  0  0  0  0  0  0  0  0  0  0
   -3.3746   -0.5339    5.7710 F   0  0  0  0  0  0  0  0  0  0  0  0
   -6.4985   -0.4014    7.5014 C   0  0  0  0  0  0  0  0  0  0  0  0
   -8.9886    1.3095    7.7717 C   0  0  0  0  0  0  0  0  0  0  0  0
  -10.0211    2.0150    8.6916 C   0  0  0  0  0  0  0  0  0  0  0  0
  -14.2633    0.6954   10.7046 C   0  0  0  0  0  0  0  0  0  0  0  0
  -15.3757    0.0561   10.3292 N   0  0  0  0  0  0  0  0  0  0  0  0
  1  2  1  0
  2  3  1  0
  2  4  1  0
  4  5  1  0
  5  6  2  0
  6  7  1  0
  7  8  1  0
  8  9  1  0
  9 10  1  0
 10 11  1  0
 11 12  1  0
 12 13  2  0
 13 14  1  0
 14 15  2  0
 15 16  1  0
 15 17  1  0
 17 18  1  0
 18 19  1  0
 18 20  1  0
 18 21  1  0
 17 22  2  0
 11 23  1  0
 23 24  1  0
  6 25  1  0
 25 26  2  0
 26  4  1  0
 24  8  1  0
 22 12  1  0
M  END
>  <ref_mols>  (1570) 
B0426a

>  <gnina_score>  (1570) 
5.485

>  <smina_score_min>  (1570) 
-5.602

>  <ref_pdb>  (1570) 
B0426a

>  <inspiration_score>  (1570) 
None

>  <inchikey>  (1570) 
TZFKKDKZCYFSBX-UHFFFAOYSA-N

>  <tags>  (1570) 
BulkDock Fragalysis export,openbind_d68ev3c_c2_elabs_scored,openbind_d68ev3c_c2_elabs_scored_4.5plus,openbind_d68ev3c_c2_elabs,openbind_d68ev3c_c2_elabs_scored_5plus,syndirella_product,openbind_d68ev3c_c2_elabs_scored_top80percent,syndirella_placed

>  <smiles>  (1570) 
FC(F)n1cc(CN2CCN(c3ccc(Cl)c(C(F)(F)F)c3)CC2)cn1

>  <subsites>  (1570) 
None

>  <rmsd(smina/fragmenstein)>  (1570) 
0.702

>  <alias>  (1570) 
None

>  <energy_score>  (1570) 
-46.163681

>  <HIPPO Pose ID>  (1570) 
131599

>  <distance_score>  (1570) 
0.562637

>  <HIPPO Compound ID>  (1570) 
157625

>  <gnina_score_min>  (1570) 
5.543

>  <name>  (1570) 
P131599

>  <exports>  (1570) 
['/opt/xchem-fragalysis-2/maxwin/BulkDock/OUTPUTS/openbind_d68ev3c_c2_elabs_1LOTQJ3.sdf', '/opt/xchem-fragalysis-2/maxwin/BulkDock/OUTPUTS/openbind_d68ev3c_c2_elabs_1LSYI5W.sdf']

$$$$
P131600
     RDKit          3D

 26 28  0  0  0  0  0  0  0  0999 V2000
  -16.7582    0.5263    7.1251 F   0  0  0  0  0  0  0  0  0  0  0  0
  -16.4185   -0.3619    8.1087 C   0  0  0  0  0  0  0  0  0  0  0  0
  -17.5760   -0.6353    8.7733 F   0  0  0  0  0  0  0  0  0  0  0  0
  -15.3734    0.1818    8.9733 N   0  0  0  0  0  0  0  0  0  0  0  0
  -14.2944    0.8982    8.5280 C   0  0  0  0  0  0  0  0  0  0  0  0
  -13.4705    1.0957    9.6156 C   0  0  0  0  0  0  0  0  0  0  0  0
  -12.1169    1.7182    9.6664 C   0  0  0  0  0  0  0  0  0  0  0  0
  -11.2247    1.1769    8.6256 N   0  0  0  0  0  0  0  0  0  0  0  0
   -9.8726    1.7665    8.7930 C   0  0  0  0  0  0  0  0  0  0  0  0
   -8.8218    1.2118    7.8009 C   0  0  0  0  0  0  0  0  0  0  0  0
   -8.7666   -0.2666    7.8665 N   0  0  0  0  0  0  0  0  0  0  0  0
   -7.7019   -0.8523    7.1716 C   0  0  0  0  0  0  0  0  0  0  0  0
   -7.8673   -1.7350    6.0940 C   0  0  0  0  0  0  0  0  0  0  0  0
   -6.7648   -2.2558    5.4169 C   0  0  0  0  0  0  0  0  0  0  0  0
   -6.9794   -3.1648    3.9728 Cl  0  0  0  0  0  0  0  0  0  0  0  0
   -5.4752   -1.9545    5.8270 C   0  0  0  0  0  0  0  0  0  0  0  0
   -5.2764   -1.0782    6.8961 C   0  0  0  0  0  0  0  0  0  0  0  0
   -3.8896   -0.6730    7.2892 C   0  0  0  0  0  0  0  0  0  0  0  0
   -3.0032   -0.8716    6.2775 F   0  0  0  0  0  0  0  0  0  0  0  0
   -3.4056   -1.3597    8.3526 F   0  0  0  0  0  0  0  0  0  0  0  0
   -3.7902    0.6479    7.6054 F   0  0  0  0  0  0  0  0  0  0  0  0
   -6.3896   -0.5531    7.5655 C   0  0  0  0  0  0  0  0  0  0  0  0
  -10.1020   -0.8705    7.6842 C   0  0  0  0  0  0  0  0  0  0  0  0
  -11.0899   -0.3017    8.7213 C   0  0  0  0  0  0  0  0  0  0  0  0
  -14.1901    0.5303   10.6934 C   0  0  0  0  0  0  0  0  0  0  0  0
  -15.3487   -0.0186   10.3182 N   0  0  0  0  0  0  0  0  0  0  0  0
  1  2  1  0
  2  3  1  0
  2  4  1  0
  4  5  1  0
  5  6  2  0
  6  7  1  0
  7  8  1  0
  8  9  1  0
  9 10  1  0
 10 11  1  0
 11 12  1  0
 12 13  2  0
 13 14  1  0
 14 15  1  0
 14 16  2  0
 16 17  1  0
 17 18  1  0
 18 19  1  0
 18 20  1  0
 18 21  1  0
 17 22  2  0
 11 23  1  0
 23 24  1  0
  6 25  1  0
 25 26  2  0
 26  4  1  0
 24  8  1  0
 22 12  1  0
M  END
>  <ref_mols>  (1571) 
B0426a

>  <gnina_score>  (1571) 
5.563

>  <smina_score_min>  (1571) 
-5.748

>  <ref_pdb>  (1571) 
B0426a

>  <inspiration_score>  (1571) 
None

>  <inchikey>  (1571) 
LKPHXWZVLQXUFQ-UHFFFAOYSA-N

>  <tags>  (1571) 
BulkDock Fragalysis export,openbind_d68ev3c_c2_elabs_scored,openbind_d68ev3c_c2_elabs_scored_4.5plus,openbind_d68ev3c_c2_elabs,openbind_d68ev3c_c2_elabs_scored_5plus,syndirella_product,openbind_d68ev3c_c2_elabs_scored_top80percent,syndirella_placed

>  <smiles>  (1571) 
FC(F)n1cc(CN2CCN(c3cc(Cl)cc(C(F)(F)F)c3)CC2)cn1

>  <subsites>  (1571) 
None

>  <rmsd(smina/fragmenstein)>  (1571) 
1.65

>  <alias>  (1571) 
None

>  <energy_score>  (1571) 
-38.022163

>  <HIPPO Pose ID>  (1571) 
131600

>  <distance_score>  (1571) 
0.558685

>  <HIPPO Compound ID>  (1571) 
157626

>  <gnina_score_min>  (1571) 
5.668

>  <name>  (1571) 
P131600

>  <exports>  (1571) 
['/opt/xchem-fragalysis-2/maxwin/BulkDock/OUTPUTS/openbind_d68ev3c_c2_elabs_1LOTQJ3.sdf', '/opt/xchem-fragalysis-2/maxwin/BulkDock/OUTPUTS/openbind_d68ev3c_c2_elabs_1LSYI5W.sdf']

$$$$
P131601
     RDKit          3D

 26 28  0  0  0  0  0  0  0  0999 V2000
  -14.0108    3.2232    7.1571 C   0  0  0  0  0  0  0  0  0  0  0  0
  -14.6635    1.5439    7.1700 S   0  0  0  0  0  0  0  0  0  0  0  0
  -14.5412    1.0986    8.8492 C   0  0  0  0  0  0  0  0  0  0  0  0
  -13.5597    1.2787    9.8073 C   0  0  0  0  0  0  0  0  0  0  0  0
  -12.2189    1.9300    9.7493 C   0  0  0  0  0  0  0  0  0  0  0  0
  -11.3422    1.3332    8.7332 N   0  0  0  0  0  0  0  0  0  0  0  0
   -9.9809    1.9128    8.8536 C   0  0  0  0  0  0  0  0  0  0  0  0
   -8.9468    1.3021    7.8746 C   0  0  0  0  0  0  0  0  0  0  0  0
   -8.9234   -0.1718    7.9888 N   0  0  0  0  0  0  0  0  0  0  0  0
   -7.9081   -0.8426    7.2995 C   0  0  0  0  0  0  0  0  0  0  0  0
   -8.1564   -1.9378    6.4592 C   0  0  0  0  0  0  0  0  0  0  0  0
   -7.1367   -2.5666    5.7593 C   0  0  0  0  0  0  0  0  0  0  0  0
   -5.8330   -2.1118    5.8842 C   0  0  0  0  0  0  0  0  0  0  0  0
   -4.6900   -2.8282    4.8344 Cl  0  0  0  0  0  0  0  0  0  0  0  0
   -5.5190   -1.0802    6.7684 C   0  0  0  0  0  0  0  0  0  0  0  0
   -4.1110   -0.6237    7.0008 C   0  0  0  0  0  0  0  0  0  0  0  0
   -4.0359    0.6225    7.5566 F   0  0  0  0  0  0  0  0  0  0  0  0
   -3.4167   -1.4372    7.8409 F   0  0  0  0  0  0  0  0  0  0  0  0
   -3.3765   -0.5365    5.8602 F   0  0  0  0  0  0  0  0  0  0  0  0
   -6.5695   -0.4667    7.4743 C   0  0  0  0  0  0  0  0  0  0  0  0
  -10.2759   -0.7490    7.8682 C   0  0  0  0  0  0  0  0  0  0  0  0
  -11.2286   -0.1362    8.8983 C   0  0  0  0  0  0  0  0  0  0  0  0
  -14.0915    0.6479   10.9604 C   0  0  0  0  0  0  0  0  0  0  0  0
  -15.2928    0.1092   10.7593 N   0  0  0  0  0  0  0  0  0  0  0  0
  -15.5383    0.3737    9.4567 N   0  0  0  0  0  0  0  0  0  0  0  0
  -16.7955   -0.0495    8.8868 C   0  0  0  0  0  0  0  0  0  0  0  0
  1  2  1  0
  2  3  1  0
  3  4  2  0
  4  5  1  0
  5  6  1  0
  6  7  1  0
  7  8  1  0
  8  9  1  0
  9 10  1  0
 10 11  2  0
 11 12  1  0
 12 13  2  0
 13 14  1  0
 13 15  1  0
 15 16  1  0
 16 17  1  0
 16 18  1  0
 16 19  1  0
 15 20  2  0
  9 21  1  0
 21 22  1  0
  4 23  1  0
 23 24  2  0
 24 25  1  0
 25 26  1  0
 25  3  1  0
 22  6  1  0
 20 10  1  0
M  END
>  <ref_mols>  (1572) 
B0426a

>  <gnina_score>  (1572) 
5.741

>  <smina_score_min>  (1572) 
-6.059

>  <ref_pdb>  (1572) 
B0426a

>  <inspiration_score>  (1572) 
None

>  <inchikey>  (1572) 
MMMILGHAVDTSJJ-UHFFFAOYSA-N

>  <tags>  (1572) 
BulkDock Fragalysis export,openbind_d68ev3c_c2_elabs_scored,openbind_d68ev3c_c2_elabs_scored_4.5plus,openbind_d68ev3c_c2_elabs,openbind_d68ev3c_c2_elabs_scored_5plus,syndirella_product,openbind_d68ev3c_c2_elabs_scored_top80percent,syndirella_placed

>  <smiles>  (1572) 
CSc1c(CN2CCN(c3ccc(Cl)c(C(F)(F)F)c3)CC2)cnn1C

>  <subsites>  (1572) 
None

>  <rmsd(smina/fragmenstein)>  (1572) 
1.244

>  <alias>  (1572) 
None

>  <energy_score>  (1572) 
-51.149833

>  <HIPPO Pose ID>  (1572) 
131601

>  <distance_score>  (1572) 
0.493886

>  <HIPPO Compound ID>  (1572) 
157627

>  <gnina_score_min>  (1572) 
5.918

>  <name>  (1572) 
P131601

>  <exports>  (1572) 
['/opt/xchem-fragalysis-2/maxwin/BulkDock/OUTPUTS/openbind_d68ev3c_c2_elabs_1LOTQJ3.sdf', '/opt/xchem-fragalysis-2/maxwin/BulkDock/OUTPUTS/openbind_d68ev3c_c2_elabs_1LSYI5W.sdf']

$$$$
P131602
     RDKit          3D

 26 28  0  0  0  0  0  0  0  0999 V2000
  -16.4389   -0.2761   10.4655 C   0  0  0  0  0  0  0  0  0  0  0  0
  -15.1009    0.2322   10.3235 N   0  0  0  0  0  0  0  0  0  0  0  0
  -14.5295    0.7179    9.1841 C   0  0  0  0  0  0  0  0  0  0  0  0
  -13.3197    1.2765    9.5612 C   0  0  0  0  0  0  0  0  0  0  0  0
  -12.3691    2.0371    8.7127 C   0  0  0  0  0  0  0  0  0  0  0  0
  -11.2019    1.2954    8.2376 N   0  0  0  0  0  0  0  0  0  0  0  0
  -10.0960    1.2571    9.2021 C   0  0  0  0  0  0  0  0  0  0  0  0
   -8.8035    0.7397    8.5343 C   0  0  0  0  0  0  0  0  0  0  0  0
   -8.9631   -0.5658    7.8405 N   0  0  0  0  0  0  0  0  0  0  0  0
   -7.8189   -1.0824    7.1924 C   0  0  0  0  0  0  0  0  0  0  0  0
   -7.9124   -1.9890    6.1187 C   0  0  0  0  0  0  0  0  0  0  0  0
   -6.7856   -2.4345    5.4146 C   0  0  0  0  0  0  0  0  0  0  0  0
   -6.9383   -3.1896    4.2058 C   0  0  0  0  0  0  0  0  0  0  0  0
   -7.0484   -3.7623    3.2002 N   0  0  0  0  0  0  0  0  0  0  0  0
   -5.5150   -2.0461    5.8199 C   0  0  0  0  0  0  0  0  0  0  0  0
   -5.3680   -1.1716    6.8982 C   0  0  0  0  0  0  0  0  0  0  0  0
   -4.0000   -0.6833    7.2853 C   0  0  0  0  0  0  0  0  0  0  0  0
   -3.4633   -1.3592    8.3307 F   0  0  0  0  0  0  0  0  0  0  0  0
   -3.9774    0.6345    7.6254 F   0  0  0  0  0  0  0  0  0  0  0  0
   -3.1119   -0.8104    6.2615 F   0  0  0  0  0  0  0  0  0  0  0  0
   -6.5142   -0.7229    7.5807 C   0  0  0  0  0  0  0  0  0  0  0  0
  -10.2524   -0.7171    7.1101 C   0  0  0  0  0  0  0  0  0  0  0  0
  -11.4692   -0.0860    7.8147 C   0  0  0  0  0  0  0  0  0  0  0  0
  -13.2742    1.0159   10.9350 C   0  0  0  0  0  0  0  0  0  0  0  0
  -12.3550    1.3518   11.8342 O   0  0  0  0  0  0  0  0  0  0  0  0
  -14.3298    0.3768   11.4182 N   0  0  0  0  0  0  0  0  0  0  0  0
  1  2  1  0
  2  3  1  0
  3  4  2  0
  4  5  1  0
  5  6  1  0
  6  7  1  0
  7  8  1  0
  8  9  1  0
  9 10  1  0
 10 11  2  0
 11 12  1  0
 12 13  1  0
 13 14  3  0
 12 15  2  0
 15 16  1  0
 16 17  1  0
 17 18  1  0
 17 19  1  0
 17 20  1  0
 16 21  2  0
  9 22  1  0
 22 23  1  0
  4 24  1  0
 24 25  1  0
 24 26  2  0
 26  2  1  0
 23  6  1  0
 21 10  1  0
M  END
>  <ref_mols>  (1573) 
B0426a

>  <gnina_score>  (1573) 
5.503

>  <smina_score_min>  (1573) 
-6.036

>  <ref_pdb>  (1573) 
B0426a

>  <inspiration_score>  (1573) 
None

>  <inchikey>  (1573) 
XAPFRIDHLWWXKL-UHFFFAOYSA-N

>  <tags>  (1573) 
BulkDock Fragalysis export,openbind_d68ev3c_c2_elabs_scored,openbind_d68ev3c_c2_elabs_scored_4.5plus,openbind_d68ev3c_c2_elabs,openbind_d68ev3c_c2_elabs_scored_5plus,syndirella_product,openbind_d68ev3c_c2_elabs_scored_top80percent,syndirella_placed

>  <smiles>  (1573) 
Cn1cc(CN2CCN(c3cc(C#N)cc(C(F)(F)F)c3)CC2)c(O)n1

>  <subsites>  (1573) 
None

>  <rmsd(smina/fragmenstein)>  (1573) 
0.67

>  <alias>  (1573) 
None

>  <energy_score>  (1573) 
-62.329737

>  <HIPPO Pose ID>  (1573) 
131602

>  <distance_score>  (1573) 
0.538586

>  <HIPPO Compound ID>  (1573) 
157629

>  <gnina_score_min>  (1573) 
5.583

>  <name>  (1573) 
P131602

>  <exports>  (1573) 
['/opt/xchem-fragalysis-2/maxwin/BulkDock/OUTPUTS/openbind_d68ev3c_c2_elabs_1LOTQJ3.sdf', '/opt/xchem-fragalysis-2/maxwin/BulkDock/OUTPUTS/openbind_d68ev3c_c2_elabs_1LSYI5W.sdf']

$$$$
P131603
     RDKit          3D

 26 28  0  0  0  0  0  0  0  0999 V2000
  -18.5110   -0.4901   11.7175 O   0  0  0  0  0  0  0  0  0  0  0  0
  -17.3442    0.3140   11.5316 C   0  0  0  0  0  0  0  0  0  0  0  0
  -16.3577   -0.4058   10.6268 C   0  0  0  0  0  0  0  0  0  0  0  0
  -15.1070    0.2889   10.4770 N   0  0  0  0  0  0  0  0  0  0  0  0
  -14.6122    0.8659    9.3503 C   0  0  0  0  0  0  0  0  0  0  0  0
  -13.3922    1.4120    9.7022 C   0  0  0  0  0  0  0  0  0  0  0  0
  -12.4702    2.1965    8.8394 C   0  0  0  0  0  0  0  0  0  0  0  0
  -11.2938    1.4677    8.3738 N   0  0  0  0  0  0  0  0  0  0  0  0
  -11.5728    0.1144    7.8659 C   0  0  0  0  0  0  0  0  0  0  0  0
  -10.3386   -0.5134    7.1917 C   0  0  0  0  0  0  0  0  0  0  0  0
   -9.1237   -0.4760    8.0542 N   0  0  0  0  0  0  0  0  0  0  0  0
   -8.0024   -1.0994    7.4750 C   0  0  0  0  0  0  0  0  0  0  0  0
   -8.1430   -2.3174    6.7958 C   0  0  0  0  0  0  0  0  0  0  0  0
   -7.0980   -2.8679    6.0629 C   0  0  0  0  0  0  0  0  0  0  0  0
   -5.8613   -2.2380    6.0380 C   0  0  0  0  0  0  0  0  0  0  0  0
   -4.7199   -2.8298    4.9074 Cl  0  0  0  0  0  0  0  0  0  0  0  0
   -5.6155   -1.1285    6.8426 C   0  0  0  0  0  0  0  0  0  0  0  0
   -4.2388   -0.5460    6.9930 C   0  0  0  0  0  0  0  0  0  0  0  0
   -4.2390    0.7050    7.5421 F   0  0  0  0  0  0  0  0  0  0  0  0
   -3.5633   -0.4077    5.8197 F   0  0  0  0  0  0  0  0  0  0  0  0
   -3.4382   -1.2928    7.8030 F   0  0  0  0  0  0  0  0  0  0  0  0
   -6.7004   -0.5716    7.5507 C   0  0  0  0  0  0  0  0  0  0  0  0
   -8.9167    0.8325    8.7119 C   0  0  0  0  0  0  0  0  0  0  0  0
  -10.2063    1.3812    9.3579 C   0  0  0  0  0  0  0  0  0  0  0  0
  -13.2500    1.0776   11.0674 C   0  0  0  0  0  0  0  0  0  0  0  0
  -14.2896    0.3863   11.5372 N   0  0  0  0  0  0  0  0  0  0  0  0
  1  2  1  0
  2  3  1  0
  3  4  1  0
  4  5  1  0
  5  6  2  0
  6  7  1  0
  7  8  1  0
  8  9  1  0
  9 10  1  0
 10 11  1  0
 11 12  1  0
 12 13  2  0
 13 14  1  0
 14 15  2  0
 15 16  1  0
 15 17  1  0
 17 18  1  0
 18 19  1  0
 18 20  1  0
 18 21  1  0
 17 22  2  0
 11 23  1  0
 23 24  1  0
  6 25  1  0
 25 26  2  0
 26  4  1  0
 24  8  1  0
 22 12  1  0
M  END
>  <ref_mols>  (1574) 
B0426a

>  <gnina_score>  (1574) 
5.539

>  <smina_score_min>  (1574) 
-6.131

>  <ref_pdb>  (1574) 
B0426a

>  <inspiration_score>  (1574) 
None

>  <inchikey>  (1574) 
DLCRHYHYMHXCMV-UHFFFAOYSA-N

>  <tags>  (1574) 
BulkDock Fragalysis export,openbind_d68ev3c_c2_elabs_scored,openbind_d68ev3c_c2_elabs_scored_4.5plus,openbind_d68ev3c_c2_elabs,openbind_d68ev3c_c2_elabs_scored_5plus,syndirella_product,openbind_d68ev3c_c2_elabs_scored_top80percent,syndirella_placed

>  <smiles>  (1574) 
OCCn1cc(CN2CCN(c3ccc(Cl)c(C(F)(F)F)c3)CC2)cn1

>  <subsites>  (1574) 
None

>  <rmsd(smina/fragmenstein)>  (1574) 
0.711

>  <alias>  (1574) 
None

>  <energy_score>  (1574) 
-36.9264

>  <HIPPO Pose ID>  (1574) 
131603

>  <distance_score>  (1574) 
0.525305

>  <HIPPO Compound ID>  (1574) 
157630

>  <gnina_score_min>  (1574) 
5.649

>  <name>  (1574) 
P131603

>  <exports>  (1574) 
['/opt/xchem-fragalysis-2/maxwin/BulkDock/OUTPUTS/openbind_d68ev3c_c2_elabs_1LOTQJ3.sdf', '/opt/xchem-fragalysis-2/maxwin/BulkDock/OUTPUTS/openbind_d68ev3c_c2_elabs_1LSYI5W.sdf']

$$$$
P131604
     RDKit          3D

 26 28  0  0  0  0  0  0  0  0999 V2000
  -18.7817    0.0713   10.9192 O   0  0  0  0  0  0  0  0  0  0  0  0
  -17.4725    0.6357   10.9994 C   0  0  0  0  0  0  0  0  0  0  0  0
  -16.4578   -0.3254   10.4021 C   0  0  0  0  0  0  0  0  0  0  0  0
  -15.1503    0.2698   10.2857 N   0  0  0  0  0  0  0  0  0  0  0  0
  -14.6536    0.9287    9.2046 C   0  0  0  0  0  0  0  0  0  0  0  0
  -13.4589    1.4904    9.6113 C   0  0  0  0  0  0  0  0  0  0  0  0
  -12.5952    2.4137    8.8308 C   0  0  0  0  0  0  0  0  0  0  0  0
  -11.3748    1.8309    8.2917 N   0  0  0  0  0  0  0  0  0  0  0  0
  -10.2459    1.8157    9.2350 C   0  0  0  0  0  0  0  0  0  0  0  0
   -8.9318    1.4222    8.5246 C   0  0  0  0  0  0  0  0  0  0  0  0
   -9.0800    0.1384    7.8408 N   0  0  0  0  0  0  0  0  0  0  0  0
   -7.9628   -0.5915    7.4680 C   0  0  0  0  0  0  0  0  0  0  0  0
   -8.1347   -1.9397    7.1822 C   0  0  0  0  0  0  0  0  0  0  0  0
   -7.0654   -2.7361    6.8277 C   0  0  0  0  0  0  0  0  0  0  0  0
   -7.3784   -4.3798    6.6219 Cl  0  0  0  0  0  0  0  0  0  0  0  0
   -5.7783   -2.2356    6.7483 C   0  0  0  0  0  0  0  0  0  0  0  0
   -5.5521   -0.8999    7.0783 C   0  0  0  0  0  0  0  0  0  0  0  0
   -4.1396   -0.3894    7.0851 C   0  0  0  0  0  0  0  0  0  0  0  0
   -3.5025   -0.6265    5.9034 F   0  0  0  0  0  0  0  0  0  0  0  0
   -4.0364    0.9503    7.2998 F   0  0  0  0  0  0  0  0  0  0  0  0
   -3.3733   -0.9817    8.0414 F   0  0  0  0  0  0  0  0  0  0  0  0
   -6.6510   -0.0888    7.4318 C   0  0  0  0  0  0  0  0  0  0  0  0
  -10.2571    0.0604    6.9464 C   0  0  0  0  0  0  0  0  0  0  0  0
  -11.5372    0.4976    7.6845 C   0  0  0  0  0  0  0  0  0  0  0  0
  -13.3069    1.0407   10.9425 C   0  0  0  0  0  0  0  0  0  0  0  0
  -14.3418    0.3057   11.3571 N   0  0  0  0  0  0  0  0  0  0  0  0
  1  2  1  0
  2  3  1  0
  3  4  1  0
  4  5  1  0
  5  6  2  0
  6  7  1  0
  7  8  1  0
  8  9  1  0
  9 10  1  0
 10 11  1  0
 11 12  1  0
 12 13  2  0
 13 14  1  0
 14 15  1  0
 14 16  2  0
 16 17  1  0
 17 18  1  0
 18 19  1  0
 18 20  1  0
 18 21  1  0
 17 22  2  0
 11 23  1  0
 23 24  1  0
  6 25  1  0
 25 26  2  0
 26  4  1  0
 24  8  1  0
 22 12  1  0
M  END
>  <ref_mols>  (1575) 
B0426a

>  <gnina_score>  (1575) 
5.553

>  <smina_score_min>  (1575) 
-5.97

>  <ref_pdb>  (1575) 
B0426a

>  <inspiration_score>  (1575) 
None

>  <inchikey>  (1575) 
GHIKEMJOLAYTKX-UHFFFAOYSA-N

>  <tags>  (1575) 
BulkDock Fragalysis export,openbind_d68ev3c_c2_elabs_scored,openbind_d68ev3c_c2_elabs_scored_4.5plus,openbind_d68ev3c_c2_elabs,openbind_d68ev3c_c2_elabs_scored_5plus,syndirella_product,openbind_d68ev3c_c2_elabs_scored_top80percent,syndirella_placed

>  <smiles>  (1575) 
OCCn1cc(CN2CCN(c3cc(Cl)cc(C(F)(F)F)c3)CC2)cn1

>  <subsites>  (1575) 
None

>  <rmsd(smina/fragmenstein)>  (1575) 
1.348

>  <alias>  (1575) 
None

>  <energy_score>  (1575) 
-36.356996

>  <HIPPO Pose ID>  (1575) 
131604

>  <distance_score>  (1575) 
0.604857

>  <HIPPO Compound ID>  (1575) 
157631

>  <gnina_score_min>  (1575) 
5.631

>  <name>  (1575) 
P131604

>  <exports>  (1575) 
['/opt/xchem-fragalysis-2/maxwin/BulkDock/OUTPUTS/openbind_d68ev3c_c2_elabs_1LOTQJ3.sdf', '/opt/xchem-fragalysis-2/maxwin/BulkDock/OUTPUTS/openbind_d68ev3c_c2_elabs_1LSYI5W.sdf']

$$$$
P131605
     RDKit          3D

 26 28  0  0  0  0  0  0  0  0999 V2000
  -13.4211    0.8275   12.3581 C   0  0  0  0  0  0  0  0  0  0  0  0
  -13.9804    0.7309   10.9851 C   0  0  0  0  0  0  0  0  0  0  0  0
  -15.1810    0.1732   10.7833 N   0  0  0  0  0  0  0  0  0  0  0  0
  -15.3742    0.2983    9.4582 N   0  0  0  0  0  0  0  0  0  0  0  0
  -16.6270   -0.0937    8.8646 C   0  0  0  0  0  0  0  0  0  0  0  0
  -14.3383    0.8955    8.8082 C   0  0  0  0  0  0  0  0  0  0  0  0
  -13.3910    1.1839    9.7691 C   0  0  0  0  0  0  0  0  0  0  0  0
  -12.0603    1.8400    9.6134 C   0  0  0  0  0  0  0  0  0  0  0  0
  -11.2245    1.2200    8.5693 N   0  0  0  0  0  0  0  0  0  0  0  0
   -9.8741    1.8383    8.6299 C   0  0  0  0  0  0  0  0  0  0  0  0
   -8.8515    1.2204    7.6497 C   0  0  0  0  0  0  0  0  0  0  0  0
   -8.7747   -0.2462    7.8323 N   0  0  0  0  0  0  0  0  0  0  0  0
   -7.7242   -0.8641    7.1475 C   0  0  0  0  0  0  0  0  0  0  0  0
   -7.9090   -1.7685    6.0918 C   0  0  0  0  0  0  0  0  0  0  0  0
   -6.8191   -2.3150    5.4049 C   0  0  0  0  0  0  0  0  0  0  0  0
   -7.0267   -3.0920    4.2178 C   0  0  0  0  0  0  0  0  0  0  0  0
   -7.1713   -3.6827    3.2272 N   0  0  0  0  0  0  0  0  0  0  0  0
   -5.5204   -2.0075    5.8059 C   0  0  0  0  0  0  0  0  0  0  0  0
   -5.3046   -1.1096    6.8574 C   0  0  0  0  0  0  0  0  0  0  0  0
   -3.9117   -0.7015    7.2366 C   0  0  0  0  0  0  0  0  0  0  0  0
   -3.0433   -0.8814    6.2060 F   0  0  0  0  0  0  0  0  0  0  0  0
   -3.4084   -1.4038    8.2808 F   0  0  0  0  0  0  0  0  0  0  0  0
   -3.8122    0.6143    7.5720 F   0  0  0  0  0  0  0  0  0  0  0  0
   -6.4081   -0.5628    7.5231 C   0  0  0  0  0  0  0  0  0  0  0  0
  -10.1075   -0.8750    7.7405 C   0  0  0  0  0  0  0  0  0  0  0  0
  -11.0678   -0.2447    8.7703 C   0  0  0  0  0  0  0  0  0  0  0  0
  1  2  1  0
  2  3  2  0
  3  4  1  0
  4  5  1  0
  4  6  1  0
  6  7  2  0
  7  8  1  0
  8  9  1  0
  9 10  1  0
 10 11  1  0
 11 12  1  0
 12 13  1  0
 13 14  2  0
 14 15  1  0
 15 16  1  0
 16 17  3  0
 15 18  2  0
 18 19  1  0
 19 20  1  0
 20 21  1  0
 20 22  1  0
 20 23  1  0
 19 24  2  0
 12 25  1  0
 25 26  1  0
  7  2  1  0
 26  9  1  0
 24 13  1  0
M  END
>  <ref_mols>  (1576) 
B0426a

>  <gnina_score>  (1576) 
5.628

>  <smina_score_min>  (1576) 
-5.885

>  <ref_pdb>  (1576) 
B0426a

>  <inspiration_score>  (1576) 
None

>  <inchikey>  (1576) 
UQMQIIZARKDSGN-UHFFFAOYSA-N

>  <tags>  (1576) 
BulkDock Fragalysis export,openbind_d68ev3c_c2_elabs_scored,openbind_d68ev3c_c2_elabs_scored_4.5plus,openbind_d68ev3c_c2_elabs,openbind_d68ev3c_c2_elabs_scored_5plus,syndirella_product,openbind_d68ev3c_c2_elabs_scored_top80percent,syndirella_placed

>  <smiles>  (1576) 
Cc1nn(C)cc1CN1CCN(c2cc(C#N)cc(C(F)(F)F)c2)CC1

>  <subsites>  (1576) 
None

>  <rmsd(smina/fragmenstein)>  (1576) 
0.965

>  <alias>  (1576) 
None

>  <energy_score>  (1576) 
-45.131208

>  <HIPPO Pose ID>  (1576) 
131605

>  <distance_score>  (1576) 
0.533694

>  <HIPPO Compound ID>  (1576) 
157633

>  <gnina_score_min>  (1576) 
5.833

>  <name>  (1576) 
P131605

>  <exports>  (1576) 
['/opt/xchem-fragalysis-2/maxwin/BulkDock/OUTPUTS/openbind_d68ev3c_c2_elabs_1LOTQJ3.sdf', '/opt/xchem-fragalysis-2/maxwin/BulkDock/OUTPUTS/openbind_d68ev3c_c2_elabs_1LSYI5W.sdf']

$$$$
P131606
     RDKit          3D

 26 28  0  0  0  0  0  0  0  0999 V2000
  -18.0366   -0.0189    9.3746 C   0  0  0  0  0  0  0  0  0  0  0  0
  -16.8992    0.3547    8.7711 C   0  0  0  0  0  0  0  0  0  0  0  0
  -15.6656    0.5496    9.4130 N   0  0  0  0  0  0  0  0  0  0  0  0
  -15.4187    0.2817   10.7322 N   0  0  0  0  0  0  0  0  0  0  0  0
  -14.1819    0.7131   10.9517 C   0  0  0  0  0  0  0  0  0  0  0  0
  -13.5809    1.2766    9.8136 C   0  0  0  0  0  0  0  0  0  0  0  0
  -12.2234    1.8964    9.7639 C   0  0  0  0  0  0  0  0  0  0  0  0
  -11.3587    1.3042    8.7361 N   0  0  0  0  0  0  0  0  0  0  0  0
  -11.2437   -0.1650    8.8947 C   0  0  0  0  0  0  0  0  0  0  0  0
  -10.2899   -0.7709    7.8593 C   0  0  0  0  0  0  0  0  0  0  0  0
   -8.9372   -0.1893    7.9800 N   0  0  0  0  0  0  0  0  0  0  0  0
   -7.9188   -0.8547    7.2910 C   0  0  0  0  0  0  0  0  0  0  0  0
   -8.1629   -1.9469    6.4462 C   0  0  0  0  0  0  0  0  0  0  0  0
   -7.1396   -2.5715    5.7479 C   0  0  0  0  0  0  0  0  0  0  0  0
   -5.8369   -2.1148    5.8786 C   0  0  0  0  0  0  0  0  0  0  0  0
   -4.6892   -2.8281    4.8316 Cl  0  0  0  0  0  0  0  0  0  0  0  0
   -5.5273   -1.0846    6.7661 C   0  0  0  0  0  0  0  0  0  0  0  0
   -4.1210   -0.6250    7.0027 C   0  0  0  0  0  0  0  0  0  0  0  0
   -3.4257   -1.4390    7.8419 F   0  0  0  0  0  0  0  0  0  0  0  0
   -3.3836   -0.5339    5.8637 F   0  0  0  0  0  0  0  0  0  0  0  0
   -4.0489    0.6201    7.5611 F   0  0  0  0  0  0  0  0  0  0  0  0
   -6.5814   -0.4758    7.4707 C   0  0  0  0  0  0  0  0  0  0  0  0
   -8.9673    1.2839    7.8665 C   0  0  0  0  0  0  0  0  0  0  0  0
   -9.9981    1.8872    8.8517 C   0  0  0  0  0  0  0  0  0  0  0  0
  -14.5354    1.1229    8.8219 C   0  0  0  0  0  0  0  0  0  0  0  0
  -14.4745    1.5015    7.3826 C   0  0  0  0  0  0  0  0  0  0  0  0
  1  2  2  0
  2  3  1  0
  3  4  1  0
  4  5  2  0
  5  6  1  0
  6  7  1  0
  7  8  1  0
  8  9  1  0
  9 10  1  0
 10 11  1  0
 11 12  1  0
 12 13  2  0
 13 14  1  0
 14 15  2  0
 15 16  1  0
 15 17  1  0
 17 18  1  0
 18 19  1  0
 18 20  1  0
 18 21  1  0
 17 22  2  0
 11 23  1  0
 23 24  1  0
  6 25  2  0
 25 26  1  0
 25  3  1  0
 24  8  1  0
 22 12  1  0
M  END
>  <ref_mols>  (1577) 
B0426a

>  <gnina_score>  (1577) 
5.662

>  <smina_score_min>  (1577) 
-6.263

>  <ref_pdb>  (1577) 
B0426a

>  <inspiration_score>  (1577) 
None

>  <inchikey>  (1577) 
CELPGCNNCLLSOS-UHFFFAOYSA-N

>  <tags>  (1577) 
BulkDock Fragalysis export,openbind_d68ev3c_c2_elabs_scored,openbind_d68ev3c_c2_elabs_scored_4.5plus,openbind_d68ev3c_c2_elabs,openbind_d68ev3c_c2_elabs_scored_5plus,syndirella_product,openbind_d68ev3c_c2_elabs_scored_top80percent,syndirella_placed

>  <smiles>  (1577) 
C=Cn1ncc(CN2CCN(c3ccc(Cl)c(C(F)(F)F)c3)CC2)c1C

>  <subsites>  (1577) 
None

>  <rmsd(smina/fragmenstein)>  (1577) 
1.478

>  <alias>  (1577) 
None

>  <energy_score>  (1577) 
-37.184534

>  <HIPPO Pose ID>  (1577) 
131606

>  <distance_score>  (1577) 
0.532065

>  <HIPPO Compound ID>  (1577) 
157634

>  <gnina_score_min>  (1577) 
5.857

>  <name>  (1577) 
P131606

>  <exports>  (1577) 
['/opt/xchem-fragalysis-2/maxwin/BulkDock/OUTPUTS/openbind_d68ev3c_c2_elabs_1LOTQJ3.sdf', '/opt/xchem-fragalysis-2/maxwin/BulkDock/OUTPUTS/openbind_d68ev3c_c2_elabs_1LSYI5W.sdf']

$$$$
P131607
     RDKit          3D

 26 28  0  0  0  0  0  0  0  0999 V2000
  -17.9557   -0.0310    9.2633 C   0  0  0  0  0  0  0  0  0  0  0  0
  -16.8018    0.2982    8.6653 C   0  0  0  0  0  0  0  0  0  0  0  0
  -15.5698    0.4711    9.3167 N   0  0  0  0  0  0  0  0  0  0  0  0
  -15.3457    0.2256   10.6442 N   0  0  0  0  0  0  0  0  0  0  0  0
  -14.0947    0.6124   10.8649 C   0  0  0  0  0  0  0  0  0  0  0  0
  -13.4619    1.1287    9.7211 C   0  0  0  0  0  0  0  0  0  0  0  0
  -12.0881    1.7102    9.6847 C   0  0  0  0  0  0  0  0  0  0  0  0
  -11.2352    1.1631    8.6188 N   0  0  0  0  0  0  0  0  0  0  0  0
   -9.8752    1.7403    8.7666 C   0  0  0  0  0  0  0  0  0  0  0  0
   -8.8439    1.1825    7.7615 C   0  0  0  0  0  0  0  0  0  0  0  0
   -8.7939   -0.2940    7.8366 N   0  0  0  0  0  0  0  0  0  0  0  0
   -7.7257   -0.8821    7.1510 C   0  0  0  0  0  0  0  0  0  0  0  0
   -7.8846   -1.7624    6.0717 C   0  0  0  0  0  0  0  0  0  0  0  0
   -6.7768   -2.2750    5.3967 C   0  0  0  0  0  0  0  0  0  0  0  0
   -6.9817   -3.1745    3.9446 Cl  0  0  0  0  0  0  0  0  0  0  0  0
   -5.4890   -1.9694    5.8119 C   0  0  0  0  0  0  0  0  0  0  0  0
   -5.2965   -1.0964    6.8847 C   0  0  0  0  0  0  0  0  0  0  0  0
   -3.9124   -0.6827    7.2808 C   0  0  0  0  0  0  0  0  0  0  0  0
   -3.8226    0.6369    7.6061 F   0  0  0  0  0  0  0  0  0  0  0  0
   -3.0242   -0.8665    6.2671 F   0  0  0  0  0  0  0  0  0  0  0  0
   -3.4211   -1.3726    8.3389 F   0  0  0  0  0  0  0  0  0  0  0  0
   -6.4150   -0.5802    7.5521 C   0  0  0  0  0  0  0  0  0  0  0  0
  -10.1361   -0.8908    7.6569 C   0  0  0  0  0  0  0  0  0  0  0  0
  -11.1215   -0.3164    8.6981 C   0  0  0  0  0  0  0  0  0  0  0  0
  -14.4163    0.9982    8.7261 C   0  0  0  0  0  0  0  0  0  0  0  0
  -14.3367    1.3603    7.2834 C   0  0  0  0  0  0  0  0  0  0  0  0
  1  2  2  0
  2  3  1  0
  3  4  1  0
  4  5  2  0
  5  6  1  0
  6  7  1  0
  7  8  1  0
  8  9  1  0
  9 10  1  0
 10 11  1  0
 11 12  1  0
 12 13  2  0
 13 14  1  0
 14 15  1  0
 14 16  2  0
 16 17  1  0
 17 18  1  0
 18 19  1  0
 18 20  1  0
 18 21  1  0
 17 22  2  0
 11 23  1  0
 23 24  1  0
  6 25  2  0
 25 26  1  0
 25  3  1  0
 24  8  1  0
 22 12  1  0
M  END
>  <ref_mols>  (1578) 
B0426a

>  <gnina_score>  (1578) 
5.694

>  <smina_score_min>  (1578) 
-5.251

>  <ref_pdb>  (1578) 
B0426a

>  <inspiration_score>  (1578) 
None

>  <inchikey>  (1578) 
SEXURHYRAZIBBQ-UHFFFAOYSA-N

>  <tags>  (1578) 
BulkDock Fragalysis export,openbind_d68ev3c_c2_elabs_scored,openbind_d68ev3c_c2_elabs_scored_4.5plus,openbind_d68ev3c_c2_elabs,openbind_d68ev3c_c2_elabs_scored_5plus,syndirella_product,openbind_d68ev3c_c2_elabs_scored_top80percent,syndirella_placed

>  <smiles>  (1578) 
C=Cn1ncc(CN2CCN(c3cc(Cl)cc(C(F)(F)F)c3)CC2)c1C

>  <subsites>  (1578) 
None

>  <rmsd(smina/fragmenstein)>  (1578) 
0.573

>  <alias>  (1578) 
None

>  <energy_score>  (1578) 
-52.923466

>  <HIPPO Pose ID>  (1578) 
131607

>  <distance_score>  (1578) 
0.559743

>  <HIPPO Compound ID>  (1578) 
157635

>  <gnina_score_min>  (1578) 
5.751

>  <name>  (1578) 
P131607

>  <exports>  (1578) 
['/opt/xchem-fragalysis-2/maxwin/BulkDock/OUTPUTS/openbind_d68ev3c_c2_elabs_1LOTQJ3.sdf', '/opt/xchem-fragalysis-2/maxwin/BulkDock/OUTPUTS/openbind_d68ev3c_c2_elabs_1LSYI5W.sdf']

$$$$
P131608
     RDKit          3D

 26 28  0  0  0  0  0  0  0  0999 V2000
  -16.4467   -0.5113    7.0743 C   0  0  0  0  0  0  0  0  0  0  0  0
  -16.6429    0.0095    8.4897 C   0  0  0  0  0  0  0  0  0  0  0  0
  -15.4198    0.3407    9.1918 N   0  0  0  0  0  0  0  0  0  0  0  0
  -14.3458    1.0145    8.6900 C   0  0  0  0  0  0  0  0  0  0  0  0
  -13.4409    1.1359    9.7237 C   0  0  0  0  0  0  0  0  0  0  0  0
  -12.0762    1.7305    9.7210 C   0  0  0  0  0  0  0  0  0  0  0  0
  -11.2256    1.1927    8.6444 N   0  0  0  0  0  0  0  0  0  0  0  0
   -9.8604    1.7557    8.7961 C   0  0  0  0  0  0  0  0  0  0  0  0
   -8.8355    1.1980    7.7820 C   0  0  0  0  0  0  0  0  0  0  0  0
   -8.7993   -0.2810    7.8349 N   0  0  0  0  0  0  0  0  0  0  0  0
   -7.7414   -0.8796    7.1453 C   0  0  0  0  0  0  0  0  0  0  0  0
   -7.9188   -1.7772    6.0815 C   0  0  0  0  0  0  0  0  0  0  0  0
   -6.8266   -2.3165    5.3923 C   0  0  0  0  0  0  0  0  0  0  0  0
   -7.0301   -3.0936    4.2044 C   0  0  0  0  0  0  0  0  0  0  0  0
   -7.1667   -3.6887    3.2151 N   0  0  0  0  0  0  0  0  0  0  0  0
   -5.5294   -2.0059    5.7953 C   0  0  0  0  0  0  0  0  0  0  0  0
   -5.3181   -1.1164    6.8544 C   0  0  0  0  0  0  0  0  0  0  0  0
   -3.9267   -0.7048    7.2366 C   0  0  0  0  0  0  0  0  0  0  0  0
   -3.0561   -0.8764    6.2057 F   0  0  0  0  0  0  0  0  0  0  0  0
   -3.4200   -1.4094    8.2777 F   0  0  0  0  0  0  0  0  0  0  0  0
   -3.8319    0.6101    7.5774 F   0  0  0  0  0  0  0  0  0  0  0  0
   -6.4251   -0.5820    7.5260 C   0  0  0  0  0  0  0  0  0  0  0  0
  -10.1479   -0.8633    7.6626 C   0  0  0  0  0  0  0  0  0  0  0  0
  -11.1188   -0.2900    8.7145 C   0  0  0  0  0  0  0  0  0  0  0  0
  -14.1077    0.5547   10.8265 C   0  0  0  0  0  0  0  0  0  0  0  0
  -15.3237    0.0998   10.5168 N   0  0  0  0  0  0  0  0  0  0  0  0
  1  2  1  0
  2  3  1  0
  3  4  1  0
  4  5  2  0
  5  6  1  0
  6  7  1  0
  7  8  1  0
  8  9  1  0
  9 10  1  0
 10 11  1  0
 11 12  2  0
 12 13  1  0
 13 14  1  0
 14 15  3  0
 13 16  2  0
 16 17  1  0
 17 18  1  0
 18 19  1  0
 18 20  1  0
 18 21  1  0
 17 22  2  0
 10 23  1  0
 23 24  1  0
  5 25  1  0
 25 26  2  0
 26  3  1  0
 24  7  1  0
 22 11  1  0
M  END
>  <ref_mols>  (1579) 
B0426a

>  <gnina_score>  (1579) 
5.593

>  <smina_score_min>  (1579) 
-5.201

>  <ref_pdb>  (1579) 
B0426a

>  <inspiration_score>  (1579) 
None

>  <inchikey>  (1579) 
OEWUGWDDYKUUKP-UHFFFAOYSA-N

>  <tags>  (1579) 
BulkDock Fragalysis export,openbind_d68ev3c_c2_elabs_scored,openbind_d68ev3c_c2_elabs_scored_4.5plus,openbind_d68ev3c_c2_elabs,openbind_d68ev3c_c2_elabs_scored_5plus,syndirella_product,openbind_d68ev3c_c2_elabs_scored_top80percent,syndirella_placed

>  <smiles>  (1579) 
CCn1cc(CN2CCN(c3cc(C#N)cc(C(F)(F)F)c3)CC2)cn1

>  <subsites>  (1579) 
None

>  <rmsd(smina/fragmenstein)>  (1579) 
0.462

>  <alias>  (1579) 
None

>  <energy_score>  (1579) 
-43.706991

>  <HIPPO Pose ID>  (1579) 
131608

>  <distance_score>  (1579) 
0.545885

>  <HIPPO Compound ID>  (1579) 
157637

>  <gnina_score_min>  (1579) 
5.601

>  <name>  (1579) 
P131608

>  <exports>  (1579) 
['/opt/xchem-fragalysis-2/maxwin/BulkDock/OUTPUTS/openbind_d68ev3c_c2_elabs_1LOTQJ3.sdf', '/opt/xchem-fragalysis-2/maxwin/BulkDock/OUTPUTS/openbind_d68ev3c_c2_elabs_1LSYI5W.sdf']

$$$$
P131609
     RDKit          3D

 26 28  0  0  0  0  0  0  0  0999 V2000
  -16.6982   -0.1401    8.9037 C   0  0  0  0  0  0  0  0  0  0  0  0
  -15.4516    0.3150    9.4650 N   0  0  0  0  0  0  0  0  0  0  0  0
  -14.4412    0.9113    8.7755 C   0  0  0  0  0  0  0  0  0  0  0  0
  -13.5329    1.3649    9.7193 C   0  0  0  0  0  0  0  0  0  0  0  0
  -12.2596    2.1153    9.4794 C   0  0  2  0  0  0  0  0  0  0  0  0
  -12.5640    3.3109    8.7781 O   0  0  0  0  0  0  0  0  0  0  0  0
  -11.3410    1.3366    8.6475 N   0  0  0  0  0  0  0  0  0  0  0  0
  -11.0440    0.0131    9.2545 C   0  0  0  0  0  0  0  0  0  0  0  0
  -10.0847   -0.8055    8.3830 C   0  0  0  0  0  0  0  0  0  0  0  0
   -8.8145   -0.0961    8.1581 N   0  0  0  0  0  0  0  0  0  0  0  0
   -7.8446   -0.8239    7.4516 C   0  0  0  0  0  0  0  0  0  0  0  0
   -8.1331   -1.9696    6.6988 C   0  0  0  0  0  0  0  0  0  0  0  0
   -7.1500   -2.6058    5.9508 C   0  0  0  0  0  0  0  0  0  0  0  0
   -5.8488   -2.1188    5.9609 C   0  0  0  0  0  0  0  0  0  0  0  0
   -4.7621   -2.8346    4.8471 Cl  0  0  0  0  0  0  0  0  0  0  0  0
   -5.4945   -1.0492    6.7838 C   0  0  0  0  0  0  0  0  0  0  0  0
   -4.0781   -0.5869    6.9353 C   0  0  0  0  0  0  0  0  0  0  0  0
   -3.4011   -0.5223    5.7586 F   0  0  0  0  0  0  0  0  0  0  0  0
   -3.3443   -1.3870    7.7555 F   0  0  0  0  0  0  0  0  0  0  0  0
   -3.9752    0.6678    7.4665 F   0  0  0  0  0  0  0  0  0  0  0  0
   -6.5088   -0.4094    7.5142 C   0  0  0  0  0  0  0  0  0  0  0  0
   -9.0101    1.2808    7.6594 C   0  0  0  0  0  0  0  0  0  0  0  0
  -10.0395    2.0479    8.5232 C   0  0  0  0  0  0  0  0  0  0  0  0
  -14.1060    0.9545   10.9491 C   0  0  0  0  0  0  0  0  0  0  0  0
  -13.3486    1.3334   12.8511 I   0  0  0  0  0  0  0  0  0  0  0  0
  -15.2515    0.2836   10.7928 N   0  0  0  0  0  0  0  0  0  0  0  0
  1  2  1  0
  2  3  1  0
  3  4  2  0
  4  5  1  0
  5  6  1  6
  5  7  1  0
  7  8  1  0
  8  9  1  0
  9 10  1  0
 10 11  1  0
 11 12  2  0
 12 13  1  0
 13 14  2  0
 14 15  1  0
 14 16  1  0
 16 17  1  0
 17 18  1  0
 17 19  1  0
 17 20  1  0
 16 21  2  0
 10 22  1  0
 22 23  1  0
  4 24  1  0
 24 25  1  0
 24 26  2  0
 26  2  1  0
 23  7  1  0
 21 11  1  0
M  END
>  <ref_mols>  (1580) 
B0426a

>  <gnina_score>  (1580) 
5.746

>  <smina_score_min>  (1580) 
-5.457

>  <ref_pdb>  (1580) 
B0426a

>  <inspiration_score>  (1580) 
None

>  <inchikey>  (1580) 
NMRKKKNHKZPPET-HNNXBMFYSA-N

>  <tags>  (1580) 
BulkDock Fragalysis export,openbind_d68ev3c_c2_elabs_scored,openbind_d68ev3c_c2_elabs_scored_4.5plus,openbind_d68ev3c_c2_elabs,openbind_d68ev3c_c2_elabs_scored_5plus,syndirella_product,openbind_d68ev3c_c2_elabs_scored_top80percent,syndirella_placed

>  <smiles>  (1580) 
Cn1cc([C@H](O)N2CCN(c3ccc(Cl)c(C(F)(F)F)c3)CC2)c(I)n1

>  <subsites>  (1580) 
None

>  <rmsd(smina/fragmenstein)>  (1580) 
0.144

>  <alias>  (1580) 
None

>  <energy_score>  (1580) 
-55.248869

>  <HIPPO Pose ID>  (1580) 
131609

>  <distance_score>  (1580) 
0.54336

>  <HIPPO Compound ID>  (1580) 
157638

>  <gnina_score_min>  (1580) 
5.824

>  <name>  (1580) 
P131609

>  <exports>  (1580) 
['/opt/xchem-fragalysis-2/maxwin/BulkDock/OUTPUTS/openbind_d68ev3c_c2_elabs_1LOTQJ3.sdf', '/opt/xchem-fragalysis-2/maxwin/BulkDock/OUTPUTS/openbind_d68ev3c_c2_elabs_1LSYI5W.sdf']

$$$$
P131611
     RDKit          3D

 26 28  0  0  0  0  0  0  0  0999 V2000
  -14.3746    1.3172    7.2956 C   0  0  0  0  0  0  0  0  0  0  0  0
  -14.3910    0.9594    8.7369 C   0  0  0  0  0  0  0  0  0  0  0  0
  -13.4411    1.1400    9.7289 C   0  0  0  0  0  0  0  0  0  0  0  0
  -12.0914    1.7721    9.6672 C   0  0  0  0  0  0  0  0  0  0  0  0
  -11.2269    1.1997    8.6209 N   0  0  0  0  0  0  0  0  0  0  0  0
   -9.8671    1.7760    8.7615 C   0  0  0  0  0  0  0  0  0  0  0  0
   -8.8375    1.2018    7.7617 C   0  0  0  0  0  0  0  0  0  0  0  0
   -8.7959   -0.2764    7.8426 N   0  0  0  0  0  0  0  0  0  0  0  0
   -7.7407   -0.8786    7.1510 C   0  0  0  0  0  0  0  0  0  0  0  0
   -7.9219   -1.7754    6.0874 C   0  0  0  0  0  0  0  0  0  0  0  0
   -6.8316   -2.3145    5.3950 C   0  0  0  0  0  0  0  0  0  0  0  0
   -7.0394   -3.0892    4.2063 C   0  0  0  0  0  0  0  0  0  0  0  0
   -7.1817   -3.6822    3.2164 N   0  0  0  0  0  0  0  0  0  0  0  0
   -5.5332   -2.0052    5.7953 C   0  0  0  0  0  0  0  0  0  0  0  0
   -5.3186   -1.1162    6.8544 C   0  0  0  0  0  0  0  0  0  0  0  0
   -3.9261   -0.7056    7.2337 C   0  0  0  0  0  0  0  0  0  0  0  0
   -3.4181   -1.4115    8.2734 F   0  0  0  0  0  0  0  0  0  0  0  0
   -3.8294    0.6089    7.5749 F   0  0  0  0  0  0  0  0  0  0  0  0
   -3.0580   -0.8779    6.2009 F   0  0  0  0  0  0  0  0  0  0  0  0
   -6.4235   -0.5811    7.5286 C   0  0  0  0  0  0  0  0  0  0  0  0
  -10.1435   -0.8653    7.6829 C   0  0  0  0  0  0  0  0  0  0  0  0
  -11.1149   -0.2778    8.7269 C   0  0  0  0  0  0  0  0  0  0  0  0
  -14.0362    0.5790   10.8832 C   0  0  0  0  0  0  0  0  0  0  0  0
  -15.2495    0.0779   10.6533 N   0  0  0  0  0  0  0  0  0  0  0  0
  -15.4344    0.3002    9.3360 N   0  0  0  0  0  0  0  0  0  0  0  0
  -16.6722   -0.0990    8.7115 C   0  0  0  0  0  0  0  0  0  0  0  0
  1  2  1  0
  2  3  2  0
  3  4  1  0
  4  5  1  0
  5  6  1  0
  6  7  1  0
  7  8  1  0
  8  9  1  0
  9 10  2  0
 10 11  1  0
 11 12  1  0
 12 13  3  0
 11 14  2  0
 14 15  1  0
 15 16  1  0
 16 17  1  0
 16 18  1  0
 16 19  1  0
 15 20  2  0
  8 21  1  0
 21 22  1  0
  3 23  1  0
 23 24  2  0
 24 25  1  0
 25 26  1  0
 25  2  1  0
 22  5  1  0
 20  9  1  0
M  END
>  <ref_mols>  (1581) 
B0426a

>  <gnina_score>  (1581) 
5.639

>  <smina_score_min>  (1581) 
-5.392

>  <ref_pdb>  (1581) 
B0426a

>  <inspiration_score>  (1581) 
None

>  <inchikey>  (1581) 
CWPAOHDVQONAIX-UHFFFAOYSA-N

>  <tags>  (1581) 
BulkDock Fragalysis export,openbind_d68ev3c_c2_elabs_scored,openbind_d68ev3c_c2_elabs_scored_4.5plus,openbind_d68ev3c_c2_elabs,openbind_d68ev3c_c2_elabs_scored_5plus,syndirella_product,openbind_d68ev3c_c2_elabs_scored_top80percent,syndirella_placed

>  <smiles>  (1581) 
Cc1c(CN2CCN(c3cc(C#N)cc(C(F)(F)F)c3)CC2)cnn1C

>  <subsites>  (1581) 
None

>  <rmsd(smina/fragmenstein)>  (1581) 
0.489

>  <alias>  (1581) 
None

>  <energy_score>  (1581) 
-45.895697

>  <HIPPO Pose ID>  (1581) 
131611

>  <distance_score>  (1581) 
0.523793

>  <HIPPO Compound ID>  (1581) 
157640

>  <gnina_score_min>  (1581) 
5.612

>  <name>  (1581) 
P131611

>  <exports>  (1581) 
['/opt/xchem-fragalysis-2/maxwin/BulkDock/OUTPUTS/openbind_d68ev3c_c2_elabs_1LOTQJ3.sdf', '/opt/xchem-fragalysis-2/maxwin/BulkDock/OUTPUTS/openbind_d68ev3c_c2_elabs_1LSYI5W.sdf']

$$$$
P131612
     RDKit          3D

 26 28  0  0  0  0  0  0  0  0999 V2000
  -16.7450   -0.1487    8.9015 C   0  0  0  0  0  0  0  0  0  0  0  0
  -15.5035    0.3403    9.4455 N   0  0  0  0  0  0  0  0  0  0  0  0
  -14.5325    0.9893    8.7469 C   0  0  0  0  0  0  0  0  0  0  0  0
  -13.6217    1.4593    9.6799 C   0  0  0  0  0  0  0  0  0  0  0  0
  -12.3826    2.2620    9.4262 C   0  0  2  0  0  0  0  0  0  0  0  0
  -12.7350    3.4259    8.6944 O   0  0  0  0  0  0  0  0  0  0  0  0
  -11.4256    1.5068    8.6160 N   0  0  0  0  0  0  0  0  0  0  0  0
  -11.0947    0.2082    9.2506 C   0  0  0  0  0  0  0  0  0  0  0  0
  -10.0849   -0.5881    8.4251 C   0  0  0  0  0  0  0  0  0  0  0  0
   -8.8339    0.1694    8.2008 N   0  0  0  0  0  0  0  0  0  0  0  0
   -7.7835   -0.5561    7.6237 C   0  0  0  0  0  0  0  0  0  0  0  0
   -7.9603   -1.8621    7.1682 C   0  0  0  0  0  0  0  0  0  0  0  0
   -6.8923   -2.6203    6.7273 C   0  0  0  0  0  0  0  0  0  0  0  0
   -7.1804   -4.2406    6.3657 Cl  0  0  0  0  0  0  0  0  0  0  0  0
   -5.6115   -2.1145    6.6839 C   0  0  0  0  0  0  0  0  0  0  0  0
   -5.3907   -0.8124    7.1232 C   0  0  0  0  0  0  0  0  0  0  0  0
   -3.9818   -0.3100    7.1456 C   0  0  0  0  0  0  0  0  0  0  0  0
   -3.3440   -0.5694    5.9703 F   0  0  0  0  0  0  0  0  0  0  0  0
   -3.8750    1.0301    7.3423 F   0  0  0  0  0  0  0  0  0  0  0  0
   -3.2300   -0.8995    8.1128 F   0  0  0  0  0  0  0  0  0  0  0  0
   -6.4777   -0.0429    7.5813 C   0  0  0  0  0  0  0  0  0  0  0  0
   -9.0672    1.5231    7.6713 C   0  0  0  0  0  0  0  0  0  0  0  0
  -10.1483    2.2635    8.4978 C   0  0  0  0  0  0  0  0  0  0  0  0
  -14.1477    0.9964   10.9129 C   0  0  0  0  0  0  0  0  0  0  0  0
  -13.3532    1.3491   12.8048 I   0  0  0  0  0  0  0  0  0  0  0  0
  -15.2715    0.2875   10.7675 N   0  0  0  0  0  0  0  0  0  0  0  0
  1  2  1  0
  2  3  1  0
  3  4  2  0
  4  5  1  0
  5  6  1  6
  5  7  1  0
  7  8  1  0
  8  9  1  0
  9 10  1  0
 10 11  1  0
 11 12  2  0
 12 13  1  0
 13 14  1  0
 13 15  2  0
 15 16  1  0
 16 17  1  0
 17 18  1  0
 17 19  1  0
 17 20  1  0
 16 21  2  0
 10 22  1  0
 22 23  1  0
  4 24  1  0
 24 25  1  0
 24 26  2  0
 26  2  1  0
 23  7  1  0
 21 11  1  0
M  END
>  <ref_mols>  (1582) 
B0426a

>  <gnina_score>  (1582) 
5.91

>  <smina_score_min>  (1582) 
-5.974

>  <ref_pdb>  (1582) 
B0426a

>  <inspiration_score>  (1582) 
None

>  <inchikey>  (1582) 
DZKYFAQWVVNPFZ-HNNXBMFYSA-N

>  <tags>  (1582) 
BulkDock Fragalysis export,openbind_d68ev3c_c2_elabs_scored,openbind_d68ev3c_c2_elabs_scored_4.5plus,openbind_d68ev3c_c2_elabs,openbind_d68ev3c_c2_elabs_scored_5plus,syndirella_product,openbind_d68ev3c_c2_elabs_scored_top80percent,syndirella_placed

>  <smiles>  (1582) 
Cn1cc([C@H](O)N2CCN(c3cc(Cl)cc(C(F)(F)F)c3)CC2)c(I)n1

>  <subsites>  (1582) 
None

>  <rmsd(smina/fragmenstein)>  (1582) 
0.951

>  <alias>  (1582) 
None

>  <energy_score>  (1582) 
-46.203559

>  <HIPPO Pose ID>  (1582) 
131612

>  <distance_score>  (1582) 
0.621142

>  <HIPPO Compound ID>  (1582) 
157641

>  <gnina_score_min>  (1582) 
5.706

>  <name>  (1582) 
P131612

>  <exports>  (1582) 
['/opt/xchem-fragalysis-2/maxwin/BulkDock/OUTPUTS/openbind_d68ev3c_c2_elabs_1LOTQJ3.sdf', '/opt/xchem-fragalysis-2/maxwin/BulkDock/OUTPUTS/openbind_d68ev3c_c2_elabs_1LSYI5W.sdf']

$$$$
P131614
     RDKit          3D

 26 28  0  0  0  0  0  0  0  0999 V2000
  -16.7525   -0.0763    8.8766 C   0  0  0  0  0  0  0  0  0  0  0  0
  -15.4915    0.3436    9.4397 N   0  0  0  0  0  0  0  0  0  0  0  0
  -15.2510    0.1390   10.7520 N   0  0  0  0  0  0  0  0  0  0  0  0
  -14.0712    0.7282   10.9488 C   0  0  0  0  0  0  0  0  0  0  0  0
  -13.5397    1.2998    9.7707 C   0  0  0  0  0  0  0  0  0  0  0  0
  -12.2380    2.0184    9.6347 C   0  0  0  0  0  0  0  0  0  0  0  0
  -11.3340    1.2865    8.7392 N   0  0  0  0  0  0  0  0  0  0  0  0
  -10.0522    2.0146    8.5967 C   0  0  0  0  0  0  0  0  0  0  0  0
   -9.0348    1.2841    7.6837 C   0  0  0  0  0  0  0  0  0  0  0  0
   -8.8196   -0.1075    8.1346 N   0  0  0  0  0  0  0  0  0  0  0  0
   -7.8491   -0.8125    7.4094 C   0  0  0  0  0  0  0  0  0  0  0  0
   -8.1374   -1.9410    6.6301 C   0  0  0  0  0  0  0  0  0  0  0  0
   -7.1502   -2.5775    5.8897 C   0  0  0  0  0  0  0  0  0  0  0  0
   -5.8451   -2.1047    5.9287 C   0  0  0  0  0  0  0  0  0  0  0  0
   -4.7470   -2.8318    4.8344 Cl  0  0  0  0  0  0  0  0  0  0  0  0
   -5.4945   -1.0439    6.7654 C   0  0  0  0  0  0  0  0  0  0  0  0
   -4.0778   -0.5911    6.9367 C   0  0  0  0  0  0  0  0  0  0  0  0
   -3.3585   -1.3980    7.7632 F   0  0  0  0  0  0  0  0  0  0  0  0
   -3.9724    0.6618    7.4713 F   0  0  0  0  0  0  0  0  0  0  0  0
   -3.3864   -0.5289    5.7680 F   0  0  0  0  0  0  0  0  0  0  0  0
   -6.5130   -0.4050    7.4912 C   0  0  0  0  0  0  0  0  0  0  0  0
  -10.0860   -0.8338    8.3373 C   0  0  0  0  0  0  0  0  0  0  0  0
  -11.0315   -0.0661    9.2642 C   0  0  0  0  0  0  0  0  0  0  0  0
  -14.4866    1.0191    8.7973 C   0  0  0  0  0  0  0  0  0  0  0  0
  -14.5005    1.3351    7.3465 C   0  0  0  0  0  0  0  0  0  0  0  0
  -15.1854    2.9614    7.1051 Cl  0  0  0  0  0  0  0  0  0  0  0  0
  1  2  1  0
  2  3  1  0
  3  4  2  0
  4  5  1  0
  5  6  1  0
  6  7  1  0
  7  8  1  0
  8  9  1  0
  9 10  1  0
 10 11  1  0
 11 12  2  0
 12 13  1  0
 13 14  2  0
 14 15  1  0
 14 16  1  0
 16 17  1  0
 17 18  1  0
 17 19  1  0
 17 20  1  0
 16 21  2  0
 10 22  1  0
 22 23  1  0
  5 24  2  0
 24 25  1  0
 25 26  1  0
 24  2  1  0
 23  7  1  0
 21 11  1  0
M  END
>  <ref_mols>  (1583) 
B0426a

>  <gnina_score>  (1583) 
5.698

>  <smina_score_min>  (1583) 
-4.97

>  <ref_pdb>  (1583) 
B0426a

>  <inspiration_score>  (1583) 
None

>  <inchikey>  (1583) 
WNSFSGZEXUZVKY-UHFFFAOYSA-N

>  <tags>  (1583) 
BulkDock Fragalysis export,openbind_d68ev3c_c2_elabs_scored,openbind_d68ev3c_c2_elabs_scored_4.5plus,openbind_d68ev3c_c2_elabs,openbind_d68ev3c_c2_elabs_scored_5plus,syndirella_product,openbind_d68ev3c_c2_elabs_scored_top80percent,syndirella_placed

>  <smiles>  (1583) 
Cn1ncc(CN2CCN(c3ccc(Cl)c(C(F)(F)F)c3)CC2)c1CCl

>  <subsites>  (1583) 
None

>  <rmsd(smina/fragmenstein)>  (1583) 
0.171

>  <alias>  (1583) 
None

>  <energy_score>  (1583) 
-45.194244

>  <HIPPO Pose ID>  (1583) 
131614

>  <distance_score>  (1583) 
0.542231

>  <HIPPO Compound ID>  (1583) 
157642

>  <gnina_score_min>  (1583) 
5.758

>  <name>  (1583) 
P131614

>  <exports>  (1583) 
['/opt/xchem-fragalysis-2/maxwin/BulkDock/OUTPUTS/openbind_d68ev3c_c2_elabs_1LOTQJ3.sdf', '/opt/xchem-fragalysis-2/maxwin/BulkDock/OUTPUTS/openbind_d68ev3c_c2_elabs_1LSYI5W.sdf']

$$$$
P131615
     RDKit          3D

 26 28  0  0  0  0  0  0  0  0999 V2000
  -12.8789    1.5946   13.3202 C   0  0  0  0  0  0  0  0  0  0  0  0
  -12.5216    1.7130   11.9477 O   0  0  0  0  0  0  0  0  0  0  0  0
  -13.4319    1.2097   11.0860 C   0  0  0  0  0  0  0  0  0  0  0  0
  -14.4787    0.5027   11.5159 N   0  0  0  0  0  0  0  0  0  0  0  0
  -15.1725    0.2730   10.3896 N   0  0  0  0  0  0  0  0  0  0  0  0
  -16.4863   -0.3024   10.4847 C   0  0  0  0  0  0  0  0  0  0  0  0
  -14.5684    0.7401    9.2642 C   0  0  0  0  0  0  0  0  0  0  0  0
  -13.4229    1.3900    9.6868 C   0  0  0  0  0  0  0  0  0  0  0  0
  -12.4729    2.1779    8.8611 C   0  0  0  0  0  0  0  0  0  0  0  0
  -11.2966    1.4506    8.3905 N   0  0  0  0  0  0  0  0  0  0  0  0
  -11.5747    0.1112    7.8510 C   0  0  0  0  0  0  0  0  0  0  0  0
  -10.3316   -0.5048    7.1833 C   0  0  0  0  0  0  0  0  0  0  0  0
   -9.1309   -0.4935    8.0658 N   0  0  0  0  0  0  0  0  0  0  0  0
   -8.0054   -1.1073    7.4873 C   0  0  0  0  0  0  0  0  0  0  0  0
   -8.1418   -2.3245    6.8053 C   0  0  0  0  0  0  0  0  0  0  0  0
   -7.0951   -2.8698    6.0717 C   0  0  0  0  0  0  0  0  0  0  0  0
   -5.8611   -2.2345    6.0485 C   0  0  0  0  0  0  0  0  0  0  0  0
   -4.7160   -2.8223    4.9192 Cl  0  0  0  0  0  0  0  0  0  0  0  0
   -5.6200   -1.1242    6.8543 C   0  0  0  0  0  0  0  0  0  0  0  0
   -4.2450   -0.5376    7.0044 C   0  0  0  0  0  0  0  0  0  0  0  0
   -4.2469    0.7123    7.5552 F   0  0  0  0  0  0  0  0  0  0  0  0
   -3.5703   -0.3964    5.8306 F   0  0  0  0  0  0  0  0  0  0  0  0
   -3.4413   -1.2842    7.8120 F   0  0  0  0  0  0  0  0  0  0  0  0
   -6.7070   -0.5724    7.5635 C   0  0  0  0  0  0  0  0  0  0  0  0
   -8.9344    0.7964    8.7650 C   0  0  0  0  0  0  0  0  0  0  0  0
  -10.2358    1.3288    9.4020 C   0  0  0  0  0  0  0  0  0  0  0  0
  1  2  1  0
  2  3  1  0
  3  4  2  0
  4  5  1  0
  5  6  1  0
  5  7  1  0
  7  8  2  0
  8  9  1  0
  9 10  1  0
 10 11  1  0
 11 12  1  0
 12 13  1  0
 13 14  1  0
 14 15  2  0
 15 16  1  0
 16 17  2  0
 17 18  1  0
 17 19  1  0
 19 20  1  0
 20 21  1  0
 20 22  1  0
 20 23  1  0
 19 24  2  0
 13 25  1  0
 25 26  1  0
  8  3  1  0
 26 10  1  0
 24 14  1  0
M  END
>  <ref_mols>  (1584) 
B0426a

>  <gnina_score>  (1584) 
5.782

>  <smina_score_min>  (1584) 
-6.142

>  <ref_pdb>  (1584) 
B0426a

>  <inspiration_score>  (1584) 
None

>  <inchikey>  (1584) 
OEGPJKLMUURMRK-UHFFFAOYSA-N

>  <tags>  (1584) 
BulkDock Fragalysis export,openbind_d68ev3c_c2_elabs_scored,openbind_d68ev3c_c2_elabs_scored_4.5plus,openbind_d68ev3c_c2_elabs,openbind_d68ev3c_c2_elabs_scored_5plus,syndirella_product,openbind_d68ev3c_c2_elabs_scored_top80percent,syndirella_placed

>  <smiles>  (1584) 
COc1nn(C)cc1CN1CCN(c2ccc(Cl)c(C(F)(F)F)c2)CC1

>  <subsites>  (1584) 
None

>  <rmsd(smina/fragmenstein)>  (1584) 
0.418

>  <alias>  (1584) 
None

>  <energy_score>  (1584) 
-43.337107

>  <HIPPO Pose ID>  (1584) 
131615

>  <distance_score>  (1584) 
0.518147

>  <HIPPO Compound ID>  (1584) 
157643

>  <gnina_score_min>  (1584) 
5.859

>  <name>  (1584) 
P131615

>  <exports>  (1584) 
['/opt/xchem-fragalysis-2/maxwin/BulkDock/OUTPUTS/openbind_d68ev3c_c2_elabs_1LOTQJ3.sdf', '/opt/xchem-fragalysis-2/maxwin/BulkDock/OUTPUTS/openbind_d68ev3c_c2_elabs_1LSYI5W.sdf']

$$$$
P131616
     RDKit          3D

 26 28  0  0  0  0  0  0  0  0999 V2000
  -16.7065   -0.0683    8.7946 C   0  0  0  0  0  0  0  0  0  0  0  0
  -15.4362    0.2913    9.3781 N   0  0  0  0  0  0  0  0  0  0  0  0
  -15.2151    0.0364   10.6839 N   0  0  0  0  0  0  0  0  0  0  0  0
  -13.9999    0.5390   10.8981 C   0  0  0  0  0  0  0  0  0  0  0  0
  -13.4300    1.1148    9.7401 C   0  0  0  0  0  0  0  0  0  0  0  0
  -12.0900    1.7636    9.6580 C   0  0  0  0  0  0  0  0  0  0  0  0
  -11.2339    1.1874    8.6067 N   0  0  0  0  0  0  0  0  0  0  0  0
   -9.8822    1.7934    8.7192 C   0  0  0  0  0  0  0  0  0  0  0  0
   -8.8473    1.2143    7.7276 C   0  0  0  0  0  0  0  0  0  0  0  0
   -8.7782   -0.2588    7.8488 N   0  0  0  0  0  0  0  0  0  0  0  0
   -7.7154   -0.8541    7.1604 C   0  0  0  0  0  0  0  0  0  0  0  0
   -7.8818   -1.7395    6.0863 C   0  0  0  0  0  0  0  0  0  0  0  0
   -6.7783   -2.2611    5.4114 C   0  0  0  0  0  0  0  0  0  0  0  0
   -6.9914   -3.1678    3.9655 Cl  0  0  0  0  0  0  0  0  0  0  0  0
   -5.4883   -1.9598    5.8226 C   0  0  0  0  0  0  0  0  0  0  0  0
   -5.2894   -1.0804    6.8894 C   0  0  0  0  0  0  0  0  0  0  0  0
   -3.9024   -0.6743    7.2821 C   0  0  0  0  0  0  0  0  0  0  0  0
   -3.0170   -0.8690    6.2683 F   0  0  0  0  0  0  0  0  0  0  0  0
   -3.4155   -1.3636    8.3426 F   0  0  0  0  0  0  0  0  0  0  0  0
   -3.8035    0.6458    7.6018 F   0  0  0  0  0  0  0  0  0  0  0  0
   -6.4034   -0.5526    7.5548 C   0  0  0  0  0  0  0  0  0  0  0  0
  -10.1118   -0.8785    7.7036 C   0  0  0  0  0  0  0  0  0  0  0  0
  -11.0903   -0.2864    8.7398 C   0  0  0  0  0  0  0  0  0  0  0  0
  -14.3972    0.9417    8.7617 C   0  0  0  0  0  0  0  0  0  0  0  0
  -14.4020    1.3270    7.3283 C   0  0  0  0  0  0  0  0  0  0  0  0
  -15.1014    2.9550    7.1528 Cl  0  0  0  0  0  0  0  0  0  0  0  0
  1  2  1  0
  2  3  1  0
  3  4  2  0
  4  5  1  0
  5  6  1  0
  6  7  1  0
  7  8  1  0
  8  9  1  0
  9 10  1  0
 10 11  1  0
 11 12  2  0
 12 13  1  0
 13 14  1  0
 13 15  2  0
 15 16  1  0
 16 17  1  0
 17 18  1  0
 17 19  1  0
 17 20  1  0
 16 21  2  0
 10 22  1  0
 22 23  1  0
  5 24  2  0
 24 25  1  0
 25 26  1  0
 24  2  1  0
 23  7  1  0
 21 11  1  0
M  END
>  <ref_mols>  (1585) 
B0426a

>  <gnina_score>  (1585) 
5.748

>  <smina_score_min>  (1585) 
-5.089

>  <ref_pdb>  (1585) 
B0426a

>  <inspiration_score>  (1585) 
None

>  <inchikey>  (1585) 
BPMXRFUKWPIHRW-UHFFFAOYSA-N

>  <tags>  (1585) 
BulkDock Fragalysis export,openbind_d68ev3c_c2_elabs_scored,openbind_d68ev3c_c2_elabs_scored_4.5plus,openbind_d68ev3c_c2_elabs,openbind_d68ev3c_c2_elabs_scored_5plus,syndirella_product,openbind_d68ev3c_c2_elabs_scored_top80percent,syndirella_placed

>  <smiles>  (1585) 
Cn1ncc(CN2CCN(c3cc(Cl)cc(C(F)(F)F)c3)CC2)c1CCl

>  <subsites>  (1585) 
None

>  <rmsd(smina/fragmenstein)>  (1585) 
0.565

>  <alias>  (1585) 
None

>  <energy_score>  (1585) 
-53.143382

>  <HIPPO Pose ID>  (1585) 
131616

>  <distance_score>  (1585) 
0.53131

>  <HIPPO Compound ID>  (1585) 
157644

>  <gnina_score_min>  (1585) 
5.74

>  <name>  (1585) 
P131616

>  <exports>  (1585) 
['/opt/xchem-fragalysis-2/maxwin/BulkDock/OUTPUTS/openbind_d68ev3c_c2_elabs_1LOTQJ3.sdf', '/opt/xchem-fragalysis-2/maxwin/BulkDock/OUTPUTS/openbind_d68ev3c_c2_elabs_1LSYI5W.sdf']

$$$$
P131617
     RDKit          3D

 26 28  0  0  0  0  0  0  0  0999 V2000
  -12.8057    1.6988   13.1870 C   0  0  0  0  0  0  0  0  0  0  0  0
  -12.4237    1.7146   11.8153 O   0  0  0  0  0  0  0  0  0  0  0  0
  -13.3355    1.1761   10.9767 C   0  0  0  0  0  0  0  0  0  0  0  0
  -14.3894    0.5017   11.4409 N   0  0  0  0  0  0  0  0  0  0  0  0
  -15.0881    0.2270   10.3282 N   0  0  0  0  0  0  0  0  0  0  0  0
  -16.4097   -0.3248   10.4538 C   0  0  0  0  0  0  0  0  0  0  0  0
  -14.4777    0.6290    9.1813 C   0  0  0  0  0  0  0  0  0  0  0  0
  -13.3242    1.2868    9.5701 C   0  0  0  0  0  0  0  0  0  0  0  0
  -12.3763    2.0329    8.7036 C   0  0  0  0  0  0  0  0  0  0  0  0
  -11.2046    1.2893    8.2452 N   0  0  0  0  0  0  0  0  0  0  0  0
  -11.4628   -0.0931    7.8205 C   0  0  0  0  0  0  0  0  0  0  0  0
  -10.2391   -0.7163    7.1194 C   0  0  0  0  0  0  0  0  0  0  0  0
   -8.9549   -0.5578    7.8556 N   0  0  0  0  0  0  0  0  0  0  0  0
   -7.8041   -1.0608    7.2046 C   0  0  0  0  0  0  0  0  0  0  0  0
   -7.8849   -1.9482    6.1138 C   0  0  0  0  0  0  0  0  0  0  0  0
   -6.7475   -2.3737    5.4236 C   0  0  0  0  0  0  0  0  0  0  0  0
   -6.8941   -3.2492    3.9498 Cl  0  0  0  0  0  0  0  0  0  0  0  0
   -5.4839   -1.9956    5.8395 C   0  0  0  0  0  0  0  0  0  0  0  0
   -5.3494   -1.1383    6.9299 C   0  0  0  0  0  0  0  0  0  0  0  0
   -3.9855   -0.6559    7.3283 C   0  0  0  0  0  0  0  0  0  0  0  0
   -3.9605    0.6656    7.6555 F   0  0  0  0  0  0  0  0  0  0  0  0
   -3.4655   -1.3225    8.3880 F   0  0  0  0  0  0  0  0  0  0  0  0
   -3.0824   -0.7964    6.3193 F   0  0  0  0  0  0  0  0  0  0  0  0
   -6.5029   -0.7032    7.6100 C   0  0  0  0  0  0  0  0  0  0  0  0
   -8.8065    0.7444    8.5573 C   0  0  0  0  0  0  0  0  0  0  0  0
  -10.1062    1.2560    9.2175 C   0  0  0  0  0  0  0  0  0  0  0  0
  1  2  1  0
  2  3  1  0
  3  4  2  0
  4  5  1  0
  5  6  1  0
  5  7  1  0
  7  8  2  0
  8  9  1  0
  9 10  1  0
 10 11  1  0
 11 12  1  0
 12 13  1  0
 13 14  1  0
 14 15  2  0
 15 16  1  0
 16 17  1  0
 16 18  2  0
 18 19  1  0
 19 20  1  0
 20 21  1  0
 20 22  1  0
 20 23  1  0
 19 24  2  0
 13 25  1  0
 25 26  1  0
  8  3  1  0
 26 10  1  0
 24 14  1  0
M  END
>  <ref_mols>  (1586) 
B0426a

>  <gnina_score>  (1586) 
5.788

>  <smina_score_min>  (1586) 
-5.884

>  <ref_pdb>  (1586) 
B0426a

>  <inspiration_score>  (1586) 
None

>  <inchikey>  (1586) 
SXLXZELPPUHBPR-UHFFFAOYSA-N

>  <tags>  (1586) 
BulkDock Fragalysis export,openbind_d68ev3c_c2_elabs_scored,openbind_d68ev3c_c2_elabs_scored_4.5plus,openbind_d68ev3c_c2_elabs,openbind_d68ev3c_c2_elabs_scored_5plus,syndirella_product,openbind_d68ev3c_c2_elabs_scored_top80percent,syndirella_placed

>  <smiles>  (1586) 
COc1nn(C)cc1CN1CCN(c2cc(Cl)cc(C(F)(F)F)c2)CC1

>  <subsites>  (1586) 
None

>  <rmsd(smina/fragmenstein)>  (1586) 
0.714

>  <alias>  (1586) 
None

>  <energy_score>  (1586) 
-34.789004

>  <HIPPO Pose ID>  (1586) 
131617

>  <distance_score>  (1586) 
0.560694

>  <HIPPO Compound ID>  (1586) 
157645

>  <gnina_score_min>  (1586) 
5.752

>  <name>  (1586) 
P131617

>  <exports>  (1586) 
['/opt/xchem-fragalysis-2/maxwin/BulkDock/OUTPUTS/openbind_d68ev3c_c2_elabs_1LOTQJ3.sdf', '/opt/xchem-fragalysis-2/maxwin/BulkDock/OUTPUTS/openbind_d68ev3c_c2_elabs_1LSYI5W.sdf']

$$$$
P131618
     RDKit          3D

 26 28  0  0  0  0  0  0  0  0999 V2000
  -16.9178    0.0286    7.2991 C   0  0  0  0  0  0  0  0  0  0  0  0
  -16.6585   -0.0715    8.6107 C   0  0  0  0  0  0  0  0  0  0  0  0
  -15.4847    0.2771    9.2886 N   0  0  0  0  0  0  0  0  0  0  0  0
  -14.3666    0.8827    8.7366 C   0  0  0  0  0  0  0  0  0  0  0  0
  -13.4484    1.1033    9.7393 C   0  0  0  0  0  0  0  0  0  0  0  0
  -12.0984    1.7294    9.6806 C   0  0  0  0  0  0  0  0  0  0  0  0
  -11.2491    1.1727    8.6136 N   0  0  0  0  0  0  0  0  0  0  0  0
  -11.1102   -0.3028    8.7259 C   0  0  0  0  0  0  0  0  0  0  0  0
  -10.1387   -0.8834    7.6787 C   0  0  0  0  0  0  0  0  0  0  0  0
   -8.8003   -0.2773    7.8291 N   0  0  0  0  0  0  0  0  0  0  0  0
   -7.7397   -0.8751    7.1420 C   0  0  0  0  0  0  0  0  0  0  0  0
   -7.9132   -1.7751    6.0798 C   0  0  0  0  0  0  0  0  0  0  0  0
   -6.8184   -2.3140    5.3944 C   0  0  0  0  0  0  0  0  0  0  0  0
   -7.0193   -3.0928    4.2073 C   0  0  0  0  0  0  0  0  0  0  0  0
   -7.1611   -3.6878    3.2190 N   0  0  0  0  0  0  0  0  0  0  0  0
   -5.5230   -2.0009    5.8003 C   0  0  0  0  0  0  0  0  0  0  0  0
   -5.3160   -1.1076    6.8573 C   0  0  0  0  0  0  0  0  0  0  0  0
   -3.9255   -0.6956    7.2427 C   0  0  0  0  0  0  0  0  0  0  0  0
   -3.0514   -0.8732    6.2163 F   0  0  0  0  0  0  0  0  0  0  0  0
   -3.4249   -1.3966    8.2891 F   0  0  0  0  0  0  0  0  0  0  0  0
   -3.8314    0.6204    7.5785 F   0  0  0  0  0  0  0  0  0  0  0  0
   -6.4254   -0.5713    7.5238 C   0  0  0  0  0  0  0  0  0  0  0  0
   -8.8584    1.1993    7.7363 C   0  0  0  0  0  0  0  0  0  0  0  0
   -9.8926    1.7690    8.7355 C   0  0  0  0  0  0  0  0  0  0  0  0
  -14.0894    0.5969   10.8833 C   0  0  0  0  0  0  0  0  0  0  0  0
  -15.3013    0.1069   10.6321 N   0  0  0  0  0  0  0  0  0  0  0  0
  1  2  2  0
  2  3  1  0
  3  4  1  0
  4  5  2  0
  5  6  1  0
  6  7  1  0
  7  8  1  0
  8  9  1  0
  9 10  1  0
 10 11  1  0
 11 12  2  0
 12 13  1  0
 13 14  1  0
 14 15  3  0
 13 16  2  0
 16 17  1  0
 17 18  1  0
 18 19  1  0
 18 20  1  0
 18 21  1  0
 17 22  2  0
 10 23  1  0
 23 24  1  0
  5 25  1  0
 25 26  2  0
 26  3  1  0
 24  7  1  0
 22 11  1  0
M  END
>  <ref_mols>  (1587) 
B0426a

>  <gnina_score>  (1587) 
5.583

>  <smina_score_min>  (1587) 
-5.269

>  <ref_pdb>  (1587) 
B0426a

>  <inspiration_score>  (1587) 
None

>  <inchikey>  (1587) 
CGYKGSBBXTVGRM-UHFFFAOYSA-N

>  <tags>  (1587) 
BulkDock Fragalysis export,openbind_d68ev3c_c2_elabs_scored,openbind_d68ev3c_c2_elabs_scored_4.5plus,openbind_d68ev3c_c2_elabs,openbind_d68ev3c_c2_elabs_scored_5plus,syndirella_product,openbind_d68ev3c_c2_elabs_scored_top80percent,syndirella_placed

>  <smiles>  (1587) 
C=Cn1cc(CN2CCN(c3cc(C#N)cc(C(F)(F)F)c3)CC2)cn1

>  <subsites>  (1587) 
None

>  <rmsd(smina/fragmenstein)>  (1587) 
0.578

>  <alias>  (1587) 
None

>  <energy_score>  (1587) 
-46.076741

>  <HIPPO Pose ID>  (1587) 
131618

>  <distance_score>  (1587) 
0.531743

>  <HIPPO Compound ID>  (1587) 
157647

>  <gnina_score_min>  (1587) 
5.512

>  <name>  (1587) 
P131618

>  <exports>  (1587) 
['/opt/xchem-fragalysis-2/maxwin/BulkDock/OUTPUTS/openbind_d68ev3c_c2_elabs_1LOTQJ3.sdf', '/opt/xchem-fragalysis-2/maxwin/BulkDock/OUTPUTS/openbind_d68ev3c_c2_elabs_1LSYI5W.sdf']

$$$$
P131619
     RDKit          3D

 26 28  0  0  0  0  0  0  0  0999 V2000
  -16.6038   -0.1273    8.6716 C   0  0  0  0  0  0  0  0  0  0  0  0
  -15.3892    0.2849    9.3292 N   0  0  0  0  0  0  0  0  0  0  0  0
  -14.3166    0.8695    8.7252 C   0  0  0  0  0  0  0  0  0  0  0  0
  -13.4144    1.1617    9.7308 C   0  0  0  0  0  0  0  0  0  0  0  0
  -12.0691    1.7940    9.6346 C   0  0  0  0  0  0  0  0  0  0  0  0
  -11.2286    1.1991    8.5782 N   0  0  0  0  0  0  0  0  0  0  0  0
  -11.0704   -0.2695    8.7556 C   0  0  0  0  0  0  0  0  0  0  0  0
  -10.1083   -0.8833    7.7188 C   0  0  0  0  0  0  0  0  0  0  0  0
   -8.7763   -0.2575    7.8262 N   0  0  0  0  0  0  0  0  0  0  0  0
   -7.7218   -0.8688    7.1421 C   0  0  0  0  0  0  0  0  0  0  0  0
   -7.9019   -1.7728    6.0850 C   0  0  0  0  0  0  0  0  0  0  0  0
   -6.8099   -2.3177    5.4002 C   0  0  0  0  0  0  0  0  0  0  0  0
   -7.0148   -3.0960    4.2135 C   0  0  0  0  0  0  0  0  0  0  0  0
   -7.1604   -3.6876    3.2237 N   0  0  0  0  0  0  0  0  0  0  0  0
   -5.5129   -2.0081    5.8039 C   0  0  0  0  0  0  0  0  0  0  0  0
   -5.3012   -1.1105    6.8567 C   0  0  0  0  0  0  0  0  0  0  0  0
   -3.9096   -0.7008    7.2391 C   0  0  0  0  0  0  0  0  0  0  0  0
   -3.8127    0.6155    7.5732 F   0  0  0  0  0  0  0  0  0  0  0  0
   -3.0390   -0.8806    6.2105 F   0  0  0  0  0  0  0  0  0  0  0  0
   -3.4081   -1.4017    8.2848 F   0  0  0  0  0  0  0  0  0  0  0  0
   -6.4070   -0.5661    7.5209 C   0  0  0  0  0  0  0  0  0  0  0  0
   -8.8481    1.2126    7.6737 C   0  0  0  0  0  0  0  0  0  0  0  0
   -9.8764    1.8138    8.6595 C   0  0  0  0  0  0  0  0  0  0  0  0
  -14.0762    0.7338   10.9067 C   0  0  0  0  0  0  0  0  0  0  0  0
  -13.5088    0.8768   12.4991 Cl  0  0  0  0  0  0  0  0  0  0  0  0
  -15.2716    0.1909   10.6658 N   0  0  0  0  0  0  0  0  0  0  0  0
  1  2  1  0
  2  3  1  0
  3  4  2  0
  4  5  1  0
  5  6  1  0
  6  7  1  0
  7  8  1  0
  8  9  1  0
  9 10  1  0
 10 11  2  0
 11 12  1  0
 12 13  1  0
 13 14  3  0
 12 15  2  0
 15 16  1  0
 16 17  1  0
 17 18  1  0
 17 19  1  0
 17 20  1  0
 16 21  2  0
  9 22  1  0
 22 23  1  0
  4 24  1  0
 24 25  1  0
 24 26  2  0
 26  2  1  0
 23  6  1  0
 21 10  1  0
M  END
>  <ref_mols>  (1588) 
B0426a

>  <gnina_score>  (1588) 
5.78

>  <smina_score_min>  (1588) 
-5.866

>  <ref_pdb>  (1588) 
B0426a

>  <inspiration_score>  (1588) 
None

>  <inchikey>  (1588) 
OWMBDGDVQLSSNT-UHFFFAOYSA-N

>  <tags>  (1588) 
BulkDock Fragalysis export,openbind_d68ev3c_c2_elabs_scored,openbind_d68ev3c_c2_elabs_scored_4.5plus,openbind_d68ev3c_c2_elabs,openbind_d68ev3c_c2_elabs_scored_5plus,syndirella_product,openbind_d68ev3c_c2_elabs_scored_top80percent,syndirella_placed

>  <smiles>  (1588) 
Cn1cc(CN2CCN(c3cc(C#N)cc(C(F)(F)F)c3)CC2)c(Cl)n1

>  <subsites>  (1588) 
None

>  <rmsd(smina/fragmenstein)>  (1588) 
0.956

>  <alias>  (1588) 
None

>  <energy_score>  (1588) 
-52.715345

>  <HIPPO Pose ID>  (1588) 
131619

>  <distance_score>  (1588) 
0.539957

>  <HIPPO Compound ID>  (1588) 
157648

>  <gnina_score_min>  (1588) 
5.914

>  <name>  (1588) 
P131619

>  <exports>  (1588) 
['/opt/xchem-fragalysis-2/maxwin/BulkDock/OUTPUTS/openbind_d68ev3c_c2_elabs_1LOTQJ3.sdf', '/opt/xchem-fragalysis-2/maxwin/BulkDock/OUTPUTS/openbind_d68ev3c_c2_elabs_1LSYI5W.sdf']

$$$$
P131620
     RDKit          3D

 26 28  0  0  0  0  0  0  0  0999 V2000
  -12.3863    2.2211    9.4086 C   0  0  0  0  0  0  0  0  0  0  0  0
  -11.3489    1.6122    8.5846 N   0  0  0  0  0  0  0  0  0  0  0  0
  -11.5244    0.1474    8.5437 C   0  0  0  0  0  0  0  0  0  0  0  0
  -10.4520   -0.5292    7.6747 C   0  0  0  0  0  0  0  0  0  0  0  0
   -9.0697   -0.2174    8.1348 N   0  0  0  0  0  0  0  0  0  0  0  0
   -8.0401   -0.9263    7.4874 C   0  0  0  0  0  0  0  0  0  0  0  0
   -8.2902   -2.1025    6.7839 C   0  0  0  0  0  0  0  0  0  0  0  0
   -7.3176   -2.7134    5.9996 C   0  0  0  0  0  0  0  0  0  0  0  0
   -6.0161   -2.2198    5.9060 C   0  0  0  0  0  0  0  0  0  0  0  0
   -5.1664   -2.6410    4.8885 N   0  0  0  0  0  0  0  0  0  0  0  0
   -5.5841   -3.6189    3.8826 C   0  0  0  0  0  0  0  0  0  0  0  0
   -6.4694   -3.1563    2.7714 C   0  0  0  0  0  0  0  0  0  0  0  0
   -7.1733   -1.9728    2.6411 C   0  0  0  0  0  0  0  0  0  0  0  0
   -7.8582   -2.0571    1.4665 N   0  0  0  0  0  0  0  0  0  0  0  0
   -8.7433   -1.0657    0.9056 C   0  0  0  0  0  0  0  0  0  0  0  0
   -7.6657   -3.2179    0.8166 N   0  0  0  0  0  0  0  0  0  0  0  0
   -6.7898   -3.8625    1.5888 C   0  0  0  0  0  0  0  0  0  0  0  0
   -6.2334   -5.4024    1.1508 Cl  0  0  0  0  0  0  0  0  0  0  0  0
   -5.6773   -1.1595    6.7600 C   0  0  0  0  0  0  0  0  0  0  0  0
   -4.2643   -0.6560    6.9173 C   0  0  0  0  0  0  0  0  0  0  0  0
   -4.1901    0.6835    7.1777 F   0  0  0  0  0  0  0  0  0  0  0  0
   -3.4671   -0.8495    5.8259 F   0  0  0  0  0  0  0  0  0  0  0  0
   -3.6079   -1.2592    7.9506 F   0  0  0  0  0  0  0  0  0  0  0  0
   -6.6926   -0.5372    7.5351 C   0  0  0  0  0  0  0  0  0  0  0  0
   -8.8719    1.2433    8.3007 C   0  0  0  0  0  0  0  0  0  0  0  0
  -10.0050    1.8896    9.1342 C   0  0  0  0  0  0  0  0  0  0  0  0
  1  2  1  0
  2  3  1  0
  3  4  1  0
  4  5  1  0
  5  6  1  0
  6  7  2  0
  7  8  1  0
  8  9  2  0
  9 10  1  0
 10 11  1  0
 11 12  1  0
 12 13  2  0
 13 14  1  0
 14 15  1  0
 14 16  1  0
 16 17  2  0
 17 18  1  0
  9 19  1  0
 19 20  1  0
 20 21  1  0
 20 22  1  0
 20 23  1  0
 19 24  2  0
  5 25  1  0
 25 26  1  0
 26  2  1  0
 24  6  1  0
 17 12  1  0
M  END
>  <ref_mols>  (1589) 
B0426a

>  <gnina_score>  (1589) 
5.393

>  <smina_score_min>  (1589) 
-5.388

>  <ref_pdb>  (1589) 
B0426a

>  <inspiration_score>  (1589) 
None

>  <inchikey>  (1589) 
WPXGEPRXBBTODZ-UHFFFAOYSA-N

>  <tags>  (1589) 
BulkDock Fragalysis export,openbind_d68ev3c_c2_elabs_scored,openbind_d68ev3c_c2_elabs_scored_4.5plus,openbind_d68ev3c_c2_elabs,openbind_d68ev3c_c2_elabs_scored_5plus,syndirella_product,openbind_d68ev3c_c2_elabs_scored_top80percent,syndirella_placed

>  <smiles>  (1589) 
CN1CCN(c2ccc(NCc3cn(C)nc3Cl)c(C(F)(F)F)c2)CC1

>  <subsites>  (1589) 
None

>  <rmsd(smina/fragmenstein)>  (1589) 
0.922

>  <alias>  (1589) 
None

>  <energy_score>  (1589) 
-44.604858

>  <HIPPO Pose ID>  (1589) 
131620

>  <distance_score>  (1589) 
0.556926

>  <HIPPO Compound ID>  (1589) 
157649

>  <gnina_score_min>  (1589) 
5.321

>  <name>  (1589) 
P131620

>  <exports>  (1589) 
['/opt/xchem-fragalysis-2/maxwin/BulkDock/OUTPUTS/openbind_d68ev3c_c2_elabs_1LOTQJ3.sdf', '/opt/xchem-fragalysis-2/maxwin/BulkDock/OUTPUTS/openbind_d68ev3c_c2_elabs_1LSYI5W.sdf']

$$$$
P131621
     RDKit          3D

 26 28  0  0  0  0  0  0  0  0999 V2000
  -13.9485    1.4989    6.6739 C   0  0  0  0  0  0  0  0  0  0  0  0
  -15.0287    1.4005    7.5917 O   0  0  0  0  0  0  0  0  0  0  0  0
  -14.7068    1.1096    8.8564 C   0  0  0  0  0  0  0  0  0  0  0  0
  -13.6406    1.3907    9.6983 C   0  0  0  0  0  0  0  0  0  0  0  0
  -12.3925    2.1803    9.4773 C   0  0  0  0  0  0  0  0  0  0  0  0
  -11.4226    1.4462    8.6557 N   0  0  0  0  0  0  0  0  0  0  0  0
  -11.0829    0.1373    9.2533 C   0  0  0  0  0  0  0  0  0  0  0  0
  -10.0698   -0.6282    8.4061 C   0  0  0  0  0  0  0  0  0  0  0  0
   -8.8288    0.1496    8.1902 N   0  0  0  0  0  0  0  0  0  0  0  0
   -7.7715   -0.5597    7.6071 C   0  0  0  0  0  0  0  0  0  0  0  0
   -7.9374   -1.8610    7.1335 C   0  0  0  0  0  0  0  0  0  0  0  0
   -6.8612   -2.6097    6.6979 C   0  0  0  0  0  0  0  0  0  0  0  0
   -7.1342   -4.2261    6.3141 Cl  0  0  0  0  0  0  0  0  0  0  0  0
   -5.5836   -2.0977    6.6742 C   0  0  0  0  0  0  0  0  0  0  0  0
   -5.3749   -0.7982    7.1259 C   0  0  0  0  0  0  0  0  0  0  0  0
   -3.9691   -0.2914    7.1613 C   0  0  0  0  0  0  0  0  0  0  0  0
   -3.2238   -0.8774    8.1352 F   0  0  0  0  0  0  0  0  0  0  0  0
   -3.8683    1.0493    7.3555 F   0  0  0  0  0  0  0  0  0  0  0  0
   -3.3222   -0.5520    5.9915 F   0  0  0  0  0  0  0  0  0  0  0  0
   -6.4694   -0.0379    7.5807 C   0  0  0  0  0  0  0  0  0  0  0  0
   -9.0841    1.5058    7.6755 C   0  0  0  0  0  0  0  0  0  0  0  0
  -10.1679    2.2242    8.5208 C   0  0  0  0  0  0  0  0  0  0  0  0
  -13.9925    0.7641   10.9241 C   0  0  0  0  0  0  0  0  0  0  0  0
  -15.1726    0.1480   10.8804 N   0  0  0  0  0  0  0  0  0  0  0  0
  -15.5951    0.3952    9.6244 N   0  0  0  0  0  0  0  0  0  0  0  0
  -16.9053   -0.0379    9.2074 C   0  0  0  0  0  0  0  0  0  0  0  0
  1  2  1  0
  2  3  1  0
  3  4  2  0
  4  5  1  0
  5  6  1  0
  6  7  1  0
  7  8  1  0
  8  9  1  0
  9 10  1  0
 10 11  2  0
 11 12  1  0
 12 13  1  0
 12 14  2  0
 14 15  1  0
 15 16  1  0
 16 17  1  0
 16 18  1  0
 16 19  1  0
 15 20  2  0
  9 21  1  0
 21 22  1  0
  4 23  1  0
 23 24  2  0
 24 25  1  0
 25 26  1  0
 25  3  1  0
 22  6  1  0
 20 10  1  0
M  END
>  <ref_mols>  (1590) 
B0426a

>  <gnina_score>  (1590) 
5.68

>  <smina_score_min>  (1590) 
-5.899

>  <ref_pdb>  (1590) 
B0426a

>  <inspiration_score>  (1590) 
None

>  <inchikey>  (1590) 
QKYUOVRJYQXUQI-UHFFFAOYSA-N

>  <tags>  (1590) 
BulkDock Fragalysis export,openbind_d68ev3c_c2_elabs_scored,openbind_d68ev3c_c2_elabs_scored_4.5plus,openbind_d68ev3c_c2_elabs,openbind_d68ev3c_c2_elabs_scored_5plus,syndirella_product,openbind_d68ev3c_c2_elabs_scored_top80percent,syndirella_placed

>  <smiles>  (1590) 
COc1c(CN2CCN(c3cc(Cl)cc(C(F)(F)F)c3)CC2)cnn1C

>  <subsites>  (1590) 
None

>  <rmsd(smina/fragmenstein)>  (1590) 
1.461

>  <alias>  (1590) 
None

>  <energy_score>  (1590) 
-48.567143

>  <HIPPO Pose ID>  (1590) 
131621

>  <distance_score>  (1590) 
0.601985

>  <HIPPO Compound ID>  (1590) 
157650

>  <gnina_score_min>  (1590) 
5.681

>  <name>  (1590) 
P131621

>  <exports>  (1590) 
['/opt/xchem-fragalysis-2/maxwin/BulkDock/OUTPUTS/openbind_d68ev3c_c2_elabs_1LOTQJ3.sdf', '/opt/xchem-fragalysis-2/maxwin/BulkDock/OUTPUTS/openbind_d68ev3c_c2_elabs_1LSYI5W.sdf']

$$$$
P131622
     RDKit          3D

 26 28  0  0  0  0  0  0  0  0999 V2000
  -12.5266    2.0213    9.2538 C   0  0  0  0  0  0  0  0  0  0  0  0
  -11.3821    1.4689    8.5367 N   0  0  0  0  0  0  0  0  0  0  0  0
  -11.5991    0.0349    8.2506 C   0  0  0  0  0  0  0  0  0  0  0  0
  -10.4102   -0.5932    7.4957 C   0  0  0  0  0  0  0  0  0  0  0  0
   -9.1294   -0.4208    8.2391 N   0  0  0  0  0  0  0  0  0  0  0  0
   -8.0372   -1.1172    7.6902 C   0  0  0  0  0  0  0  0  0  0  0  0
   -8.2033   -2.4092    7.1793 C   0  0  0  0  0  0  0  0  0  0  0  0
   -7.2161   -3.0156    6.4142 C   0  0  0  0  0  0  0  0  0  0  0  0
   -6.0122   -2.3536    6.1648 C   0  0  0  0  0  0  0  0  0  0  0  0
   -5.3555   -2.6710    4.9455 N   0  0  0  0  0  0  0  0  0  0  0  0
   -6.1773   -2.1279    3.8313 C   0  0  0  0  0  0  0  0  0  0  0  0
   -6.6500   -3.1113    2.8188 C   0  0  0  0  0  0  0  0  0  0  0  0
   -6.0160   -4.2660    2.3990 C   0  0  0  0  0  0  0  0  0  0  0  0
   -6.7235   -4.7246    1.3328 N   0  0  0  0  0  0  0  0  0  0  0  0
   -6.3312   -5.7608    0.4131 C   0  0  0  0  0  0  0  0  0  0  0  0
   -7.8938   -4.0906    1.1624 N   0  0  0  0  0  0  0  0  0  0  0  0
   -7.8194   -3.0754    2.0256 C   0  0  0  0  0  0  0  0  0  0  0  0
   -9.1580   -1.7568    2.1336 Br  0  0  0  0  0  0  0  0  0  0  0  0
   -5.6984   -1.2083    6.9044 C   0  0  0  0  0  0  0  0  0  0  0  0
   -4.3115   -0.6268    6.9391 C   0  0  0  0  0  0  0  0  0  0  0  0
   -4.2839    0.7163    7.1809 F   0  0  0  0  0  0  0  0  0  0  0  0
   -3.5269   -1.1856    7.9031 F   0  0  0  0  0  0  0  0  0  0  0  0
   -3.6216   -0.7902    5.7688 F   0  0  0  0  0  0  0  0  0  0  0  0
   -6.7298   -0.5992    7.6481 C   0  0  0  0  0  0  0  0  0  0  0  0
   -8.9151    0.9847    8.6438 C   0  0  0  0  0  0  0  0  0  0  0  0
  -10.1518    1.5868    9.3462 C   0  0  0  0  0  0  0  0  0  0  0  0
  1  2  1  0
  2  3  1  0
  3  4  1  0
  4  5  1  0
  5  6  1  0
  6  7  2  0
  7  8  1  0
  8  9  2  0
  9 10  1  0
 10 11  1  0
 11 12  1  0
 12 13  2  0
 13 14  1  0
 14 15  1  0
 14 16  1  0
 16 17  2  0
 17 18  1  0
  9 19  1  0
 19 20  1  0
 20 21  1  0
 20 22  1  0
 20 23  1  0
 19 24  2  0
  5 25  1  0
 25 26  1  0
 26  2  1  0
 24  6  1  0
 17 12  1  0
M  END
>  <ref_mols>  (1591) 
B0426a

>  <gnina_score>  (1591) 
5.356

>  <smina_score_min>  (1591) 
-5.918

>  <ref_pdb>  (1591) 
B0426a

>  <inspiration_score>  (1591) 
None

>  <inchikey>  (1591) 
LQNCHFMHIDXURZ-UHFFFAOYSA-N

>  <tags>  (1591) 
BulkDock Fragalysis export,openbind_d68ev3c_c2_elabs_scored,openbind_d68ev3c_c2_elabs_scored_4.5plus,openbind_d68ev3c_c2_elabs,openbind_d68ev3c_c2_elabs_scored_5plus,syndirella_product,openbind_d68ev3c_c2_elabs_scored_top80percent,syndirella_placed

>  <smiles>  (1591) 
CN1CCN(c2ccc(NCc3cn(C)nc3Br)c(C(F)(F)F)c2)CC1

>  <subsites>  (1591) 
None

>  <rmsd(smina/fragmenstein)>  (1591) 
0.671

>  <alias>  (1591) 
None

>  <energy_score>  (1591) 
-37.037256

>  <HIPPO Pose ID>  (1591) 
131622

>  <distance_score>  (1591) 
0.458352

>  <HIPPO Compound ID>  (1591) 
157651

>  <gnina_score_min>  (1591) 
5.461

>  <name>  (1591) 
P131622

>  <exports>  (1591) 
['/opt/xchem-fragalysis-2/maxwin/BulkDock/OUTPUTS/openbind_d68ev3c_c2_elabs_1LOTQJ3.sdf', '/opt/xchem-fragalysis-2/maxwin/BulkDock/OUTPUTS/openbind_d68ev3c_c2_elabs_1LSYI5W.sdf']

$$$$
P131623
     RDKit          3D

 26 28  0  0  0  0  0  0  0  0999 V2000
  -16.5880   -0.1306    8.6901 C   0  0  0  0  0  0  0  0  0  0  0  0
  -15.3768    0.2865    9.3502 N   0  0  0  0  0  0  0  0  0  0  0  0
  -14.2961    0.8535    8.7445 C   0  0  0  0  0  0  0  0  0  0  0  0
  -13.4042    1.1766    9.7511 C   0  0  0  0  0  0  0  0  0  0  0  0
  -12.0598    1.8116    9.6364 C   0  0  0  0  0  0  0  0  0  0  0  0
  -11.2248    1.2063    8.5806 N   0  0  0  0  0  0  0  0  0  0  0  0
  -11.0589   -0.2590    8.7761 C   0  0  0  0  0  0  0  0  0  0  0  0
  -10.1017   -0.8813    7.7397 C   0  0  0  0  0  0  0  0  0  0  0  0
   -8.7717   -0.2487    7.8303 N   0  0  0  0  0  0  0  0  0  0  0  0
   -7.7202   -0.8629    7.1447 C   0  0  0  0  0  0  0  0  0  0  0  0
   -7.9039   -1.7675    6.0888 C   0  0  0  0  0  0  0  0  0  0  0  0
   -6.8136   -2.3142    5.4027 C   0  0  0  0  0  0  0  0  0  0  0  0
   -7.0208   -3.0925    4.2164 C   0  0  0  0  0  0  0  0  0  0  0  0
   -7.1669   -3.6840    3.2266 N   0  0  0  0  0  0  0  0  0  0  0  0
   -5.5154   -2.0063    5.8046 C   0  0  0  0  0  0  0  0  0  0  0  0
   -5.3008   -1.1080    6.8561 C   0  0  0  0  0  0  0  0  0  0  0  0
   -3.9082   -0.7004    7.2369 C   0  0  0  0  0  0  0  0  0  0  0  0
   -3.0389   -0.8820    6.2075 F   0  0  0  0  0  0  0  0  0  0  0  0
   -3.4067   -1.4020    8.2824 F   0  0  0  0  0  0  0  0  0  0  0  0
   -3.8085    0.6157    7.5708 F   0  0  0  0  0  0  0  0  0  0  0  0
   -6.4047   -0.5609    7.5208 C   0  0  0  0  0  0  0  0  0  0  0  0
   -8.8512    1.2190    7.6588 C   0  0  0  0  0  0  0  0  0  0  0  0
   -9.8753    1.8285    8.6438 C   0  0  0  0  0  0  0  0  0  0  0  0
  -14.0847    0.7826   10.9281 C   0  0  0  0  0  0  0  0  0  0  0  0
  -13.4365    1.0404   12.6790 Br  0  0  0  0  0  0  0  0  0  0  0  0
  -15.2737    0.2254   10.6898 N   0  0  0  0  0  0  0  0  0  0  0  0
  1  2  1  0
  2  3  1  0
  3  4  2  0
  4  5  1  0
  5  6  1  0
  6  7  1  0
  7  8  1  0
  8  9  1  0
  9 10  1  0
 10 11  2  0
 11 12  1  0
 12 13  1  0
 13 14  3  0
 12 15  2  0
 15 16  1  0
 16 17  1  0
 17 18  1  0
 17 19  1  0
 17 20  1  0
 16 21  2  0
  9 22  1  0
 22 23  1  0
  4 24  1  0
 24 25  1  0
 24 26  2  0
 26  2  1  0
 23  6  1  0
 21 10  1  0
M  END
>  <ref_mols>  (1592) 
B0426a

>  <gnina_score>  (1592) 
5.734

>  <smina_score_min>  (1592) 
-5.844

>  <ref_pdb>  (1592) 
B0426a

>  <inspiration_score>  (1592) 
None

>  <inchikey>  (1592) 
BIEPYSRXXWSPAG-UHFFFAOYSA-N

>  <tags>  (1592) 
BulkDock Fragalysis export,openbind_d68ev3c_c2_elabs_scored,openbind_d68ev3c_c2_elabs_scored_4.5plus,openbind_d68ev3c_c2_elabs,openbind_d68ev3c_c2_elabs_scored_5plus,syndirella_product,openbind_d68ev3c_c2_elabs_scored_top80percent,syndirella_placed

>  <smiles>  (1592) 
Cn1cc(CN2CCN(c3cc(C#N)cc(C(F)(F)F)c3)CC2)c(Br)n1

>  <subsites>  (1592) 
None

>  <rmsd(smina/fragmenstein)>  (1592) 
0.934

>  <alias>  (1592) 
None

>  <energy_score>  (1592) 
-54.048599

>  <HIPPO Pose ID>  (1592) 
131623

>  <distance_score>  (1592) 
0.546334

>  <HIPPO Compound ID>  (1592) 
157652

>  <gnina_score_min>  (1592) 
5.94

>  <name>  (1592) 
P131623

>  <exports>  (1592) 
['/opt/xchem-fragalysis-2/maxwin/BulkDock/OUTPUTS/openbind_d68ev3c_c2_elabs_1LOTQJ3.sdf', '/opt/xchem-fragalysis-2/maxwin/BulkDock/OUTPUTS/openbind_d68ev3c_c2_elabs_1LSYI5W.sdf']

$$$$
P131624
     RDKit          3D

 26 28  0  0  0  0  0  0  0  0999 V2000
  -13.7242    2.4667   12.9970 C   0  0  0  0  0  0  0  0  0  0  0  0
  -13.4739    1.0852   12.4133 C   0  0  0  0  0  0  0  0  0  0  0  0
  -14.0521    0.9262   11.0449 C   0  0  0  0  0  0  0  0  0  0  0  0
  -15.2274    0.3014   10.8844 N   0  0  0  0  0  0  0  0  0  0  0  0
  -15.4497    0.3689    9.5601 N   0  0  0  0  0  0  0  0  0  0  0  0
  -16.6997   -0.0857    9.0075 C   0  0  0  0  0  0  0  0  0  0  0  0
  -14.4537    0.9842    8.8686 C   0  0  0  0  0  0  0  0  0  0  0  0
  -13.5137    1.3719    9.8018 C   0  0  0  0  0  0  0  0  0  0  0  0
  -12.2241    2.0891    9.5689 C   0  0  0  0  0  0  0  0  0  0  0  0
  -11.3374    1.3094    8.6955 N   0  0  0  0  0  0  0  0  0  0  0  0
  -10.0610    2.0368    8.4977 C   0  0  0  0  0  0  0  0  0  0  0  0
   -9.0505    1.2660    7.6134 C   0  0  0  0  0  0  0  0  0  0  0  0
   -8.8174   -0.0968    8.1374 N   0  0  0  0  0  0  0  0  0  0  0  0
   -7.8499   -0.8207    7.4265 C   0  0  0  0  0  0  0  0  0  0  0  0
   -8.1404   -1.9589    6.6642 C   0  0  0  0  0  0  0  0  0  0  0  0
   -7.1550   -2.5964    5.9211 C   0  0  0  0  0  0  0  0  0  0  0  0
   -5.8512   -2.1161    5.9438 C   0  0  0  0  0  0  0  0  0  0  0  0
   -4.7592   -2.8370    4.8388 Cl  0  0  0  0  0  0  0  0  0  0  0  0
   -5.4978   -1.0493    6.7712 C   0  0  0  0  0  0  0  0  0  0  0  0
   -4.0813   -0.5913    6.9319 C   0  0  0  0  0  0  0  0  0  0  0  0
   -3.3545   -1.3939    7.7560 F   0  0  0  0  0  0  0  0  0  0  0  0
   -3.9773    0.6628    7.4643 F   0  0  0  0  0  0  0  0  0  0  0  0
   -3.3967   -0.5282    5.7593 F   0  0  0  0  0  0  0  0  0  0  0  0
   -6.5141   -0.4082    7.4972 C   0  0  0  0  0  0  0  0  0  0  0  0
  -10.0752   -0.8215    8.3918 C   0  0  0  0  0  0  0  0  0  0  0  0
  -11.0155   -0.0107    9.2897 C   0  0  0  0  0  0  0  0  0  0  0  0
  1  2  1  0
  2  3  1  0
  3  4  2  0
  4  5  1  0
  5  6  1  0
  5  7  1  0
  7  8  2  0
  8  9  1  0
  9 10  1  0
 10 11  1  0
 11 12  1  0
 12 13  1  0
 13 14  1  0
 14 15  2  0
 15 16  1  0
 16 17  2  0
 17 18  1  0
 17 19  1  0
 19 20  1  0
 20 21  1  0
 20 22  1  0
 20 23  1  0
 19 24  2  0
 13 25  1  0
 25 26  1  0
  8  3  1  0
 26 10  1  0
 24 14  1  0
M  END
>  <ref_mols>  (1593) 
B0426a

>  <gnina_score>  (1593) 
5.886

>  <smina_score_min>  (1593) 
-5.27

>  <ref_pdb>  (1593) 
B0426a

>  <inspiration_score>  (1593) 
None

>  <inchikey>  (1593) 
ZESVEVQPQIYBOY-UHFFFAOYSA-N

>  <tags>  (1593) 
BulkDock Fragalysis export,openbind_d68ev3c_c2_elabs_scored,openbind_d68ev3c_c2_elabs_scored_4.5plus,openbind_d68ev3c_c2_elabs,openbind_d68ev3c_c2_elabs_scored_5plus,syndirella_product,openbind_d68ev3c_c2_elabs_scored_top80percent,syndirella_placed

>  <smiles>  (1593) 
CCc1nn(C)cc1CN1CCN(c2ccc(Cl)c(C(F)(F)F)c2)CC1

>  <subsites>  (1593) 
None

>  <rmsd(smina/fragmenstein)>  (1593) 
0.128

>  <alias>  (1593) 
None

>  <energy_score>  (1593) 
-39.315941

>  <HIPPO Pose ID>  (1593) 
131624

>  <distance_score>  (1593) 
0.565358

>  <HIPPO Compound ID>  (1593) 
157653

>  <gnina_score_min>  (1593) 
5.957

>  <name>  (1593) 
P131624

>  <exports>  (1593) 
['/opt/xchem-fragalysis-2/maxwin/BulkDock/OUTPUTS/openbind_d68ev3c_c2_elabs_1LOTQJ3.sdf', '/opt/xchem-fragalysis-2/maxwin/BulkDock/OUTPUTS/openbind_d68ev3c_c2_elabs_1LSYI5W.sdf']

$$$$
P131625
     RDKit          3D

 26 28  0  0  0  0  0  0  0  0999 V2000
  -13.3028    1.7415   13.3431 C   0  0  0  0  0  0  0  0  0  0  0  0
  -12.6574    1.0937   12.1259 C   0  0  0  0  0  0  0  0  0  0  0  0
  -13.6010    0.9108   10.9825 C   0  0  0  0  0  0  0  0  0  0  0  0
  -14.7065    0.1686   11.1506 N   0  0  0  0  0  0  0  0  0  0  0  0
  -15.3478    0.2717    9.9787 N   0  0  0  0  0  0  0  0  0  0  0  0
  -16.7049   -0.1880    9.8545 C   0  0  0  0  0  0  0  0  0  0  0  0
  -14.6653    0.9769    9.0419 C   0  0  0  0  0  0  0  0  0  0  0  0
  -13.5272    1.4522    9.6652 C   0  0  0  0  0  0  0  0  0  0  0  0
  -12.5477    2.4056    9.0724 C   0  0  0  0  0  0  0  0  0  0  0  0
  -11.3636    1.8188    8.4547 N   0  0  0  0  0  0  0  0  0  0  0  0
  -10.1959    1.7695    9.3465 C   0  0  0  0  0  0  0  0  0  0  0  0
   -8.9135    1.4126    8.5671 C   0  0  0  0  0  0  0  0  0  0  0  0
   -9.0826    0.1476    7.8566 N   0  0  0  0  0  0  0  0  0  0  0  0
   -7.9785   -0.5870    7.4604 C   0  0  0  0  0  0  0  0  0  0  0  0
   -8.1598   -1.9329    7.1716 C   0  0  0  0  0  0  0  0  0  0  0  0
   -7.0934   -2.7370    6.8229 C   0  0  0  0  0  0  0  0  0  0  0  0
   -7.4113   -4.3835    6.6413 Cl  0  0  0  0  0  0  0  0  0  0  0  0
   -5.8029   -2.2440    6.7399 C   0  0  0  0  0  0  0  0  0  0  0  0
   -5.5686   -0.9083    7.0628 C   0  0  0  0  0  0  0  0  0  0  0  0
   -4.1535   -0.4037    7.0702 C   0  0  0  0  0  0  0  0  0  0  0  0
   -3.5152   -0.6433    5.8896 F   0  0  0  0  0  0  0  0  0  0  0  0
   -3.3907   -0.9988    8.0279 F   0  0  0  0  0  0  0  0  0  0  0  0
   -4.0443    0.9357    7.2853 F   0  0  0  0  0  0  0  0  0  0  0  0
   -6.6630   -0.0917    7.4163 C   0  0  0  0  0  0  0  0  0  0  0  0
  -10.2954    0.0831    7.0115 C   0  0  0  0  0  0  0  0  0  0  0  0
  -11.5498    0.5092    7.8056 C   0  0  0  0  0  0  0  0  0  0  0  0
  1  2  1  0
  2  3  1  0
  3  4  2  0
  4  5  1  0
  5  6  1  0
  5  7  1  0
  7  8  2  0
  8  9  1  0
  9 10  1  0
 10 11  1  0
 11 12  1  0
 12 13  1  0
 13 14  1  0
 14 15  2  0
 15 16  1  0
 16 17  1  0
 16 18  2  0
 18 19  1  0
 19 20  1  0
 20 21  1  0
 20 22  1  0
 20 23  1  0
 19 24  2  0
 13 25  1  0
 25 26  1  0
  8  3  1  0
 26 10  1  0
 24 14  1  0
M  END
>  <ref_mols>  (1594) 
B0426a

>  <gnina_score>  (1594) 
5.938

>  <smina_score_min>  (1594) 
-5.945

>  <ref_pdb>  (1594) 
B0426a

>  <inspiration_score>  (1594) 
None

>  <inchikey>  (1594) 
PFCSBCNXZSFHDN-UHFFFAOYSA-N

>  <tags>  (1594) 
BulkDock Fragalysis export,openbind_d68ev3c_c2_elabs_scored,openbind_d68ev3c_c2_elabs_scored_4.5plus,openbind_d68ev3c_c2_elabs,openbind_d68ev3c_c2_elabs_scored_5plus,syndirella_product,openbind_d68ev3c_c2_elabs_scored_top80percent,syndirella_placed

>  <smiles>  (1594) 
CCc1nn(C)cc1CN1CCN(c2cc(Cl)cc(C(F)(F)F)c2)CC1

>  <subsites>  (1594) 
None

>  <rmsd(smina/fragmenstein)>  (1594) 
0.645

>  <alias>  (1594) 
None

>  <energy_score>  (1594) 
-45.35728

>  <HIPPO Pose ID>  (1594) 
131625

>  <distance_score>  (1594) 
0.555535

>  <HIPPO Compound ID>  (1594) 
157654

>  <gnina_score_min>  (1594) 
5.941

>  <name>  (1594) 
P131625

>  <exports>  (1594) 
['/opt/xchem-fragalysis-2/maxwin/BulkDock/OUTPUTS/openbind_d68ev3c_c2_elabs_1LOTQJ3.sdf', '/opt/xchem-fragalysis-2/maxwin/BulkDock/OUTPUTS/openbind_d68ev3c_c2_elabs_1LSYI5W.sdf']

$$$$
P131626
     RDKit          3D

 26 28  0  0  0  0  0  0  0  0999 V2000
  -16.3076   -0.5821    6.9585 C   0  0  0  0  0  0  0  0  0  0  0  0
  -16.6029   -0.0735    8.3719 C   0  0  0  0  0  0  0  0  0  0  0  0
  -17.6027    1.0819    8.3344 C   0  0  0  0  0  0  0  0  0  0  0  0
  -15.4055    0.3067    9.1123 N   0  0  0  0  0  0  0  0  0  0  0  0
  -14.3275    0.9913    8.6326 C   0  0  0  0  0  0  0  0  0  0  0  0
  -13.4458    1.1259    9.6839 C   0  0  0  0  0  0  0  0  0  0  0  0
  -12.0840    1.7272    9.7006 C   0  0  0  0  0  0  0  0  0  0  0  0
  -11.2188    1.1913    8.6351 N   0  0  0  0  0  0  0  0  0  0  0  0
   -9.8581    1.7617    8.7968 C   0  0  0  0  0  0  0  0  0  0  0  0
   -8.8222    1.2065    7.7922 C   0  0  0  0  0  0  0  0  0  0  0  0
   -8.7788   -0.2719    7.8522 N   0  0  0  0  0  0  0  0  0  0  0  0
   -7.7139   -0.8615    7.1620 C   0  0  0  0  0  0  0  0  0  0  0  0
   -7.8783   -1.7427    6.0836 C   0  0  0  0  0  0  0  0  0  0  0  0
   -6.7746   -2.2623    5.4072 C   0  0  0  0  0  0  0  0  0  0  0  0
   -6.9873   -3.1662    3.9593 Cl  0  0  0  0  0  0  0  0  0  0  0  0
   -5.4849   -1.9617    5.8191 C   0  0  0  0  0  0  0  0  0  0  0  0
   -5.2869   -1.0876    6.8900 C   0  0  0  0  0  0  0  0  0  0  0  0
   -3.9006   -0.6801    7.2835 C   0  0  0  0  0  0  0  0  0  0  0  0
   -3.0144   -0.8708    6.2697 F   0  0  0  0  0  0  0  0  0  0  0  0
   -3.4125   -1.3698    8.3432 F   0  0  0  0  0  0  0  0  0  0  0  0
   -3.8045    0.6398    7.6058 F   0  0  0  0  0  0  0  0  0  0  0  0
   -6.4014   -0.5650    7.5592 C   0  0  0  0  0  0  0  0  0  0  0  0
  -10.1215   -0.8612    7.6629 C   0  0  0  0  0  0  0  0  0  0  0  0
  -11.1060   -0.2910    8.7046 C   0  0  0  0  0  0  0  0  0  0  0  0
  -14.1302    0.5448   10.7753 C   0  0  0  0  0  0  0  0  0  0  0  0
  -15.3306    0.0654   10.4415 N   0  0  0  0  0  0  0  0  0  0  0  0
  1  2  1  0
  2  3  1  0
  2  4  1  0
  4  5  1  0
  5  6  2  0
  6  7  1  0
  7  8  1  0
  8  9  1  0
  9 10  1  0
 10 11  1  0
 11 12  1  0
 12 13  2  0
 13 14  1  0
 14 15  1  0
 14 16  2  0
 16 17  1  0
 17 18  1  0
 18 19  1  0
 18 20  1  0
 18 21  1  0
 17 22  2  0
 11 23  1  0
 23 24  1  0
  6 25  1  0
 25 26  2  0
 26  4  1  0
 24  8  1  0
 22 12  1  0
M  END
>  <ref_mols>  (1595) 
B0426a

>  <gnina_score>  (1595) 
5.632

>  <smina_score_min>  (1595) 
-5.146

>  <ref_pdb>  (1595) 
B0426a

>  <inspiration_score>  (1595) 
None

>  <inchikey>  (1595) 
IYQMPGXTNLEKQB-UHFFFAOYSA-N

>  <tags>  (1595) 
BulkDock Fragalysis export,openbind_d68ev3c_c2_elabs_scored,openbind_d68ev3c_c2_elabs_scored_4.5plus,openbind_d68ev3c_c2_elabs,openbind_d68ev3c_c2_elabs_scored_5plus,syndirella_product,openbind_d68ev3c_c2_elabs_scored_top80percent,syndirella_placed

>  <smiles>  (1595) 
CC(C)n1cc(CN2CCN(c3cc(Cl)cc(C(F)(F)F)c3)CC2)cn1

>  <subsites>  (1595) 
None

>  <rmsd(smina/fragmenstein)>  (1595) 
0.441

>  <alias>  (1595) 
None

>  <energy_score>  (1595) 
-57.473561

>  <HIPPO Pose ID>  (1595) 
131626

>  <distance_score>  (1595) 
0.556086

>  <HIPPO Compound ID>  (1595) 
157655

>  <gnina_score_min>  (1595) 
5.623

>  <name>  (1595) 
P131626

>  <exports>  (1595) 
['/opt/xchem-fragalysis-2/maxwin/BulkDock/OUTPUTS/openbind_d68ev3c_c2_elabs_1LOTQJ3.sdf', '/opt/xchem-fragalysis-2/maxwin/BulkDock/OUTPUTS/openbind_d68ev3c_c2_elabs_1LSYI5W.sdf']

$$$$
P131627
     RDKit          3D

 26 28  0  0  0  0  0  0  0  0999 V2000
  -18.1445    0.6717    9.4485 C   0  0  0  0  0  0  0  0  0  0  0  0
  -16.9289    0.6045    8.5216 C   0  0  0  0  0  0  0  0  0  0  0  0
  -16.9976   -0.6118    7.6031 C   0  0  0  0  0  0  0  0  0  0  0  0
  -15.6566    0.6740    9.2325 N   0  0  0  0  0  0  0  0  0  0  0  0
  -14.5448    1.3286    8.7815 C   0  0  0  0  0  0  0  0  0  0  0  0
  -13.6149    1.2739    9.7972 C   0  0  0  0  0  0  0  0  0  0  0  0
  -12.2366    1.8372    9.8452 C   0  0  0  0  0  0  0  0  0  0  0  0
  -11.3830    1.3115    8.7692 N   0  0  0  0  0  0  0  0  0  0  0  0
  -11.3113   -0.1708    8.8183 C   0  0  0  0  0  0  0  0  0  0  0  0
  -10.3486   -0.7382    7.7680 C   0  0  0  0  0  0  0  0  0  0  0  0
   -8.9828   -0.2047    7.9606 N   0  0  0  0  0  0  0  0  0  0  0  0
   -7.9523   -0.8625    7.2833 C   0  0  0  0  0  0  0  0  0  0  0  0
   -8.1825   -1.9508    6.4296 C   0  0  0  0  0  0  0  0  0  0  0  0
   -7.1501   -2.5704    5.7386 C   0  0  0  0  0  0  0  0  0  0  0  0
   -5.8496   -2.1123    5.8834 C   0  0  0  0  0  0  0  0  0  0  0  0
   -4.6896   -2.8186    4.8450 Cl  0  0  0  0  0  0  0  0  0  0  0  0
   -5.5512   -1.0866    6.7789 C   0  0  0  0  0  0  0  0  0  0  0  0
   -4.1476   -0.6219    7.0265 C   0  0  0  0  0  0  0  0  0  0  0  0
   -3.4534   -1.4367    7.8659 F   0  0  0  0  0  0  0  0  0  0  0  0
   -4.0850    0.6208    7.5916 F   0  0  0  0  0  0  0  0  0  0  0  0
   -3.4022   -0.5206    5.8932 F   0  0  0  0  0  0  0  0  0  0  0  0
   -6.6148   -0.4868    7.4796 C   0  0  0  0  0  0  0  0  0  0  0  0
   -8.9742    1.2738    7.9414 C   0  0  0  0  0  0  0  0  0  0  0  0
  -10.0061    1.8399    8.9476 C   0  0  0  0  0  0  0  0  0  0  0  0
  -14.2720    0.5460   10.8160 C   0  0  0  0  0  0  0  0  0  0  0  0
  -15.5139    0.1859   10.4820 N   0  0  0  0  0  0  0  0  0  0  0  0
  1  2  1  0
  2  3  1  0
  2  4  1  0
  4  5  1  0
  5  6  2  0
  6  7  1  0
  7  8  1  0
  8  9  1  0
  9 10  1  0
 10 11  1  0
 11 12  1  0
 12 13  2  0
 13 14  1  0
 14 15  2  0
 15 16  1  0
 15 17  1  0
 17 18  1  0
 18 19  1  0
 18 20  1  0
 18 21  1  0
 17 22  2  0
 11 23  1  0
 23 24  1  0
  6 25  1  0
 25 26  2  0
 26  4  1  0
 24  8  1  0
 22 12  1  0
M  END
>  <ref_mols>  (1596) 
B0426a

>  <gnina_score>  (1596) 
5.607

>  <smina_score_min>  (1596) 
-5.644

>  <ref_pdb>  (1596) 
B0426a

>  <inspiration_score>  (1596) 
None

>  <inchikey>  (1596) 
YCNUBAHIRMFBDJ-UHFFFAOYSA-N

>  <tags>  (1596) 
BulkDock Fragalysis export,openbind_d68ev3c_c2_elabs_scored,openbind_d68ev3c_c2_elabs_scored_4.5plus,openbind_d68ev3c_c2_elabs,openbind_d68ev3c_c2_elabs_scored_5plus,syndirella_product,openbind_d68ev3c_c2_elabs_scored_top80percent,syndirella_placed

>  <smiles>  (1596) 
CC(C)n1cc(CN2CCN(c3ccc(Cl)c(C(F)(F)F)c3)CC2)cn1

>  <subsites>  (1596) 
None

>  <rmsd(smina/fragmenstein)>  (1596) 
0.748

>  <alias>  (1596) 
None

>  <energy_score>  (1596) 
-62.058502

>  <HIPPO Pose ID>  (1596) 
131627

>  <distance_score>  (1596) 
0.566984

>  <HIPPO Compound ID>  (1596) 
157656

>  <gnina_score_min>  (1596) 
5.705

>  <name>  (1596) 
P131627

>  <exports>  (1596) 
['/opt/xchem-fragalysis-2/maxwin/BulkDock/OUTPUTS/openbind_d68ev3c_c2_elabs_1LOTQJ3.sdf', '/opt/xchem-fragalysis-2/maxwin/BulkDock/OUTPUTS/openbind_d68ev3c_c2_elabs_1LSYI5W.sdf']

$$$$
P131628
     RDKit          3D

 26 28  0  0  0  0  0  0  0  0999 V2000
  -13.8399    1.4687    6.7086 C   0  0  0  0  0  0  0  0  0  0  0  0
  -14.9306    1.3700    7.6130 O   0  0  0  0  0  0  0  0  0  0  0  0
  -14.6283    1.0662    8.8797 C   0  0  0  0  0  0  0  0  0  0  0  0
  -13.5588    1.3035    9.7319 C   0  0  0  0  0  0  0  0  0  0  0  0
  -12.2764    2.0404    9.5279 C   0  0  0  0  0  0  0  0  0  0  0  0
  -11.3410    1.2821    8.6896 N   0  0  0  0  0  0  0  0  0  0  0  0
  -11.0345   -0.0491    9.2621 C   0  0  0  0  0  0  0  0  0  0  0  0
  -10.0751   -0.8378    8.3669 C   0  0  0  0  0  0  0  0  0  0  0  0
   -8.8141   -0.1088    8.1449 N   0  0  0  0  0  0  0  0  0  0  0  0
   -7.8425   -0.8228    7.4282 C   0  0  0  0  0  0  0  0  0  0  0  0
   -8.1283   -1.9617    6.6634 C   0  0  0  0  0  0  0  0  0  0  0  0
   -7.1421   -2.5964    5.9197 C   0  0  0  0  0  0  0  0  0  0  0  0
   -5.8404   -2.1131    5.9437 C   0  0  0  0  0  0  0  0  0  0  0  0
   -4.7468   -2.8330    4.8402 Cl  0  0  0  0  0  0  0  0  0  0  0  0
   -5.4904   -1.0460    6.7722 C   0  0  0  0  0  0  0  0  0  0  0  0
   -4.0748   -0.5859    6.9334 C   0  0  0  0  0  0  0  0  0  0  0  0
   -3.9735    0.6686    7.4654 F   0  0  0  0  0  0  0  0  0  0  0  0
   -3.3915   -0.5214    5.7603 F   0  0  0  0  0  0  0  0  0  0  0  0
   -3.3465   -1.3871    7.7571 F   0  0  0  0  0  0  0  0  0  0  0  0
   -6.5081   -0.4076    7.4993 C   0  0  0  0  0  0  0  0  0  0  0  0
   -9.0317    1.2713    7.6629 C   0  0  0  0  0  0  0  0  0  0  0  0
  -10.0629    2.0169    8.5469 C   0  0  0  0  0  0  0  0  0  0  0  0
  -13.9486    0.6951   10.9549 C   0  0  0  0  0  0  0  0  0  0  0  0
  -15.1518    0.1268   10.8999 N   0  0  0  0  0  0  0  0  0  0  0  0
  -15.5490    0.3824    9.6381 N   0  0  0  0  0  0  0  0  0  0  0  0
  -16.8654   -0.0147    9.2049 C   0  0  0  0  0  0  0  0  0  0  0  0
  1  2  1  0
  2  3  1  0
  3  4  2  0
  4  5  1  0
  5  6  1  0
  6  7  1  0
  7  8  1  0
  8  9  1  0
  9 10  1  0
 10 11  2  0
 11 12  1  0
 12 13  2  0
 13 14  1  0
 13 15  1  0
 15 16  1  0
 16 17  1  0
 16 18  1  0
 16 19  1  0
 15 20  2  0
  9 21  1  0
 21 22  1  0
  4 23  1  0
 23 24  2  0
 24 25  1  0
 25 26  1  0
 25  3  1  0
 22  6  1  0
 20 10  1  0
M  END
>  <ref_mols>  (1597) 
B0426a

>  <gnina_score>  (1597) 
5.572

>  <smina_score_min>  (1597) 
-5.976

>  <ref_pdb>  (1597) 
B0426a

>  <inspiration_score>  (1597) 
None

>  <inchikey>  (1597) 
RTPHOTDWRGVANP-UHFFFAOYSA-N

>  <tags>  (1597) 
BulkDock Fragalysis export,openbind_d68ev3c_c2_elabs_scored,openbind_d68ev3c_c2_elabs_scored_4.5plus,openbind_d68ev3c_c2_elabs,openbind_d68ev3c_c2_elabs_scored_5plus,syndirella_product,openbind_d68ev3c_c2_elabs_scored_top80percent,syndirella_placed

>  <smiles>  (1597) 
COc1c(CN2CCN(c3ccc(Cl)c(C(F)(F)F)c3)CC2)cnn1C

>  <subsites>  (1597) 
None

>  <rmsd(smina/fragmenstein)>  (1597) 
1.038

>  <alias>  (1597) 
None

>  <energy_score>  (1597) 
-54.453627

>  <HIPPO Pose ID>  (1597) 
131628

>  <distance_score>  (1597) 
0.530835

>  <HIPPO Compound ID>  (1597) 
157657

>  <gnina_score_min>  (1597) 
5.772

>  <name>  (1597) 
P131628

>  <exports>  (1597) 
['/opt/xchem-fragalysis-2/maxwin/BulkDock/OUTPUTS/openbind_d68ev3c_c2_elabs_1LOTQJ3.sdf', '/opt/xchem-fragalysis-2/maxwin/BulkDock/OUTPUTS/openbind_d68ev3c_c2_elabs_1LSYI5W.sdf']

$$$$
P131629
     RDKit          3D

 26 28  0  0  0  0  0  0  0  0999 V2000
  -13.3375    0.8952   12.3285 C   0  0  0  0  0  0  0  0  0  0  0  0
  -13.9945    0.8298   10.9970 C   0  0  0  0  0  0  0  0  0  0  0  0
  -15.1761    0.2127   10.8636 N   0  0  0  0  0  0  0  0  0  0  0  0
  -15.4716    0.3661    9.5564 N   0  0  0  0  0  0  0  0  0  0  0  0
  -16.7497   -0.0707    9.0557 C   0  0  0  0  0  0  0  0  0  0  0  0
  -14.5090    1.0298    8.8572 C   0  0  0  0  0  0  0  0  0  0  0  0
  -14.5309    1.4415    6.9983 Br  0  0  0  0  0  0  0  0  0  0  0  0
  -13.5182    1.3575    9.7581 C   0  0  0  0  0  0  0  0  0  0  0  0
  -12.2344    2.0854    9.5304 C   0  0  0  0  0  0  0  0  0  0  0  0
  -11.3224    1.3018    8.6904 N   0  0  0  0  0  0  0  0  0  0  0  0
  -10.0505    2.0329    8.4954 C   0  0  0  0  0  0  0  0  0  0  0  0
   -9.0375    1.2606    7.6158 C   0  0  0  0  0  0  0  0  0  0  0  0
   -8.8044   -0.1018    8.1431 N   0  0  0  0  0  0  0  0  0  0  0  0
   -7.8395   -0.8265    7.4291 C   0  0  0  0  0  0  0  0  0  0  0  0
   -8.1332   -1.9624    6.6646 C   0  0  0  0  0  0  0  0  0  0  0  0
   -7.1503   -2.5995    5.9184 C   0  0  0  0  0  0  0  0  0  0  0  0
   -5.8461   -2.1207    5.9396 C   0  0  0  0  0  0  0  0  0  0  0  0
   -4.7579   -2.8406    4.8303 Cl  0  0  0  0  0  0  0  0  0  0  0  0
   -5.4897   -1.0561    6.7687 C   0  0  0  0  0  0  0  0  0  0  0  0
   -4.0729   -0.5990    6.9275 C   0  0  0  0  0  0  0  0  0  0  0  0
   -3.3897   -0.5373    5.7540 F   0  0  0  0  0  0  0  0  0  0  0  0
   -3.9671    0.6554    7.4588 F   0  0  0  0  0  0  0  0  0  0  0  0
   -3.3456   -1.4015    7.7513 F   0  0  0  0  0  0  0  0  0  0  0  0
   -6.5033   -0.4158    7.4984 C   0  0  0  0  0  0  0  0  0  0  0  0
  -10.0640   -0.8259    8.3941 C   0  0  0  0  0  0  0  0  0  0  0  0
  -11.0061   -0.0147    9.2889 C   0  0  0  0  0  0  0  0  0  0  0  0
  1  2  1  0
  2  3  2  0
  3  4  1  0
  4  5  1  0
  4  6  1  0
  6  7  1  0
  6  8  2  0
  8  9  1  0
  9 10  1  0
 10 11  1  0
 11 12  1  0
 12 13  1  0
 13 14  1  0
 14 15  2  0
 15 16  1  0
 16 17  2  0
 17 18  1  0
 17 19  1  0
 19 20  1  0
 20 21  1  0
 20 22  1  0
 20 23  1  0
 19 24  2  0
 13 25  1  0
 25 26  1  0
  8  2  1  0
 26 10  1  0
 24 14  1  0
M  END
>  <ref_mols>  (1598) 
B0426a

>  <gnina_score>  (1598) 
5.806

>  <smina_score_min>  (1598) 
-5.492

>  <ref_pdb>  (1598) 
B0426a

>  <inspiration_score>  (1598) 
None

>  <inchikey>  (1598) 
SMDSFYUKLMTWIQ-UHFFFAOYSA-N

>  <tags>  (1598) 
BulkDock Fragalysis export,openbind_d68ev3c_c2_elabs_scored,openbind_d68ev3c_c2_elabs_scored_4.5plus,openbind_d68ev3c_c2_elabs,openbind_d68ev3c_c2_elabs_scored_5plus,syndirella_product,openbind_d68ev3c_c2_elabs_scored_top80percent,syndirella_placed

>  <smiles>  (1598) 
Cc1nn(C)c(Br)c1CN1CCN(c2ccc(Cl)c(C(F)(F)F)c2)CC1

>  <subsites>  (1598) 
None

>  <rmsd(smina/fragmenstein)>  (1598) 
0.162

>  <alias>  (1598) 
None

>  <energy_score>  (1598) 
-42.441696

>  <HIPPO Pose ID>  (1598) 
131629

>  <distance_score>  (1598) 
0.550411

>  <HIPPO Compound ID>  (1598) 
157658

>  <gnina_score_min>  (1598) 
5.864

>  <name>  (1598) 
P131629

>  <exports>  (1598) 
['/opt/xchem-fragalysis-2/maxwin/BulkDock/OUTPUTS/openbind_d68ev3c_c2_elabs_1LOTQJ3.sdf', '/opt/xchem-fragalysis-2/maxwin/BulkDock/OUTPUTS/openbind_d68ev3c_c2_elabs_1LSYI5W.sdf']

$$$$
P131630
     RDKit          3D

 26 28  0  0  0  0  0  0  0  0999 V2000
  -13.3791    0.9461   12.2852 C   0  0  0  0  0  0  0  0  0  0  0  0
  -14.0481    0.8836   10.9595 C   0  0  0  0  0  0  0  0  0  0  0  0
  -15.2081    0.2265   10.8274 N   0  0  0  0  0  0  0  0  0  0  0  0
  -15.5215    0.3887    9.5255 N   0  0  0  0  0  0  0  0  0  0  0  0
  -16.7882   -0.0856    9.0299 C   0  0  0  0  0  0  0  0  0  0  0  0
  -14.5904    1.0968    8.8276 C   0  0  0  0  0  0  0  0  0  0  0  0
  -14.6417    1.5309    6.9743 Br  0  0  0  0  0  0  0  0  0  0  0  0
  -13.6053    1.4505    9.7246 C   0  0  0  0  0  0  0  0  0  0  0  0
  -12.3520    2.2296    9.4924 C   0  0  0  0  0  0  0  0  0  0  0  0
  -11.4036    1.4739    8.6661 N   0  0  0  0  0  0  0  0  0  0  0  0
  -11.0582    0.1765    9.2829 C   0  0  0  0  0  0  0  0  0  0  0  0
  -10.0644   -0.6086    8.4302 C   0  0  0  0  0  0  0  0  0  0  0  0
   -8.8218    0.1613    8.1889 N   0  0  0  0  0  0  0  0  0  0  0  0
   -7.7721   -0.5582    7.6061 C   0  0  0  0  0  0  0  0  0  0  0  0
   -7.9471   -1.8606    7.1409 C   0  0  0  0  0  0  0  0  0  0  0  0
   -6.8754   -2.6167    6.7073 C   0  0  0  0  0  0  0  0  0  0  0  0
   -7.1573   -4.2362    6.3404 Cl  0  0  0  0  0  0  0  0  0  0  0  0
   -5.5949   -2.1100    6.6759 C   0  0  0  0  0  0  0  0  0  0  0  0
   -5.3782   -0.8087    7.1193 C   0  0  0  0  0  0  0  0  0  0  0  0
   -3.9707   -0.3061    7.1501 C   0  0  0  0  0  0  0  0  0  0  0  0
   -3.8641    1.0342    7.3452 F   0  0  0  0  0  0  0  0  0  0  0  0
   -3.3269   -0.5680    5.9786 F   0  0  0  0  0  0  0  0  0  0  0  0
   -3.2240   -0.8946    8.1218 F   0  0  0  0  0  0  0  0  0  0  0  0
   -6.4680   -0.0417    7.5729 C   0  0  0  0  0  0  0  0  0  0  0  0
   -9.0863    1.5033    7.6395 C   0  0  0  0  0  0  0  0  0  0  0  0
  -10.1525    2.2457    8.4852 C   0  0  0  0  0  0  0  0  0  0  0  0
  1  2  1  0
  2  3  2  0
  3  4  1  0
  4  5  1  0
  4  6  1  0
  6  7  1  0
  6  8  2  0
  8  9  1  0
  9 10  1  0
 10 11  1  0
 11 12  1  0
 12 13  1  0
 13 14  1  0
 14 15  2  0
 15 16  1  0
 16 17  1  0
 16 18  2  0
 18 19  1  0
 19 20  1  0
 20 21  1  0
 20 22  1  0
 20 23  1  0
 19 24  2  0
 13 25  1  0
 25 26  1  0
  8  2  1  0
 26 10  1  0
 24 14  1  0
M  END
>  <ref_mols>  (1599) 
B0426a

>  <gnina_score>  (1599) 
5.959

>  <smina_score_min>  (1599) 
-6.031

>  <ref_pdb>  (1599) 
B0426a

>  <inspiration_score>  (1599) 
None

>  <inchikey>  (1599) 
ZIPXLWPRFHAUTO-UHFFFAOYSA-N

>  <tags>  (1599) 
BulkDock Fragalysis export,openbind_d68ev3c_c2_elabs_scored,openbind_d68ev3c_c2_elabs_scored_4.5plus,openbind_d68ev3c_c2_elabs,openbind_d68ev3c_c2_elabs_scored_5plus,syndirella_product,openbind_d68ev3c_c2_elabs_scored_top80percent,syndirella_placed

>  <smiles>  (1599) 
Cc1nn(C)c(Br)c1CN1CCN(c2cc(Cl)cc(C(F)(F)F)c2)CC1

>  <subsites>  (1599) 
None

>  <rmsd(smina/fragmenstein)>  (1599) 
0.982

>  <alias>  (1599) 
None

>  <energy_score>  (1599) 
-39.628843

>  <HIPPO Pose ID>  (1599) 
131630

>  <distance_score>  (1599) 
0.620545

>  <HIPPO Compound ID>  (1599) 
157659

>  <gnina_score_min>  (1599) 
5.805

>  <name>  (1599) 
P131630

>  <exports>  (1599) 
['/opt/xchem-fragalysis-2/maxwin/BulkDock/OUTPUTS/openbind_d68ev3c_c2_elabs_1LOTQJ3.sdf', '/opt/xchem-fragalysis-2/maxwin/BulkDock/OUTPUTS/openbind_d68ev3c_c2_elabs_1LSYI5W.sdf']

$$$$
P131631
     RDKit          3D

 26 28  0  0  0  0  0  0  0  0999 V2000
  -16.6998   -0.0933    8.9632 C   0  0  0  0  0  0  0  0  0  0  0  0
  -15.4068    0.2687    9.4863 N   0  0  0  0  0  0  0  0  0  0  0  0
  -14.4076    0.8895    8.7887 C   0  0  0  0  0  0  0  0  0  0  0  0
  -13.4016    1.1593    9.7007 C   0  0  0  0  0  0  0  0  0  0  0  0
  -12.0992    1.8592    9.5312 C   0  0  2  0  0  0  0  0  0  0  0  0
  -12.3472    3.1857    9.0887 O   0  0  0  0  0  0  0  0  0  0  0  0
  -11.2292    1.2358    8.5273 N   0  0  0  0  0  0  0  0  0  0  0  0
  -11.0956   -0.2348    8.7172 C   0  0  0  0  0  0  0  0  0  0  0  0
  -10.1052   -0.8637    7.7122 C   0  0  0  0  0  0  0  0  0  0  0  0
   -8.7686   -0.2551    7.8571 N   0  0  0  0  0  0  0  0  0  0  0  0
   -7.7077   -0.8638    7.1748 C   0  0  0  0  0  0  0  0  0  0  0  0
   -7.8772   -1.7504    6.1024 C   0  0  0  0  0  0  0  0  0  0  0  0
   -6.7752   -2.2716    5.4245 C   0  0  0  0  0  0  0  0  0  0  0  0
   -6.9926   -3.1719    3.9755 Cl  0  0  0  0  0  0  0  0  0  0  0  0
   -5.4840   -1.9709    5.8321 C   0  0  0  0  0  0  0  0  0  0  0  0
   -5.2823   -1.0925    6.8989 C   0  0  0  0  0  0  0  0  0  0  0  0
   -3.8945   -0.6827    7.2855 C   0  0  0  0  0  0  0  0  0  0  0  0
   -3.0138   -0.8722    6.2670 F   0  0  0  0  0  0  0  0  0  0  0  0
   -3.4009   -1.3717    8.3428 F   0  0  0  0  0  0  0  0  0  0  0  0
   -3.7995    0.6374    7.6067 F   0  0  0  0  0  0  0  0  0  0  0  0
   -6.3944   -0.5655    7.5678 C   0  0  0  0  0  0  0  0  0  0  0  0
   -8.8166    1.2159    7.7156 C   0  0  0  0  0  0  0  0  0  0  0  0
   -9.8643    1.8209    8.6743 C   0  0  0  0  0  0  0  0  0  0  0  0
  -13.9222    0.6432   10.8937 C   0  0  0  0  0  0  0  0  0  0  0  0
  -13.3958    0.6422   12.1146 O   0  0  0  0  0  0  0  0  0  0  0  0
  -15.1246    0.0949   10.7960 N   0  0  0  0  0  0  0  0  0  0  0  0
  1  2  1  0
  2  3  1  0
  3  4  2  0
  4  5  1  0
  5  6  1  6
  5  7  1  0
  7  8  1  0
  8  9  1  0
  9 10  1  0
 10 11  1  0
 11 12  2  0
 12 13  1  0
 13 14  1  0
 13 15  2  0
 15 16  1  0
 16 17  1  0
 17 18  1  0
 17 19  1  0
 17 20  1  0
 16 21  2  0
 10 22  1  0
 22 23  1  0
  4 24  1  0
 24 25  1  0
 24 26  2  0
 26  2  1  0
 23  7  1  0
 21 11  1  0
M  END
>  <ref_mols>  (1600) 
B0426a

>  <gnina_score>  (1600) 
5.488

>  <smina_score_min>  (1600) 
-5.602

>  <ref_pdb>  (1600) 
B0426a

>  <inspiration_score>  (1600) 
None

>  <inchikey>  (1600) 
JQKFEQDKWMSSLI-HNNXBMFYSA-N

>  <tags>  (1600) 
BulkDock Fragalysis export,openbind_d68ev3c_c2_elabs_scored,openbind_d68ev3c_c2_elabs_scored_4.5plus,openbind_d68ev3c_c2_elabs,openbind_d68ev3c_c2_elabs_scored_5plus,syndirella_product,openbind_d68ev3c_c2_elabs_scored_top80percent,syndirella_placed

>  <smiles>  (1600) 
Cn1cc([C@H](O)N2CCN(c3cc(Cl)cc(C(F)(F)F)c3)CC2)c(O)n1

>  <subsites>  (1600) 
None

>  <rmsd(smina/fragmenstein)>  (1600) 
0.519

>  <alias>  (1600) 
None

>  <energy_score>  (1600) 
-63.602777

>  <HIPPO Pose ID>  (1600) 
131631

>  <distance_score>  (1600) 
0.51004

>  <HIPPO Compound ID>  (1600) 
157660

>  <gnina_score_min>  (1600) 
5.426

>  <name>  (1600) 
P131631

>  <exports>  (1600) 
['/opt/xchem-fragalysis-2/maxwin/BulkDock/OUTPUTS/openbind_d68ev3c_c2_elabs_1LOTQJ3.sdf', '/opt/xchem-fragalysis-2/maxwin/BulkDock/OUTPUTS/openbind_d68ev3c_c2_elabs_1LSYI5W.sdf']

$$$$
P131633
     RDKit          3D

 26 28  0  0  0  0  0  0  0  0999 V2000
  -16.7699   -0.0721    9.2206 C   0  0  0  0  0  0  0  0  0  0  0  0
  -15.4637    0.3412    9.6661 N   0  0  0  0  0  0  0  0  0  0  0  0
  -14.5368    1.0048    8.9119 C   0  0  0  0  0  0  0  0  0  0  0  0
  -13.5028    1.3420    9.7687 C   0  0  0  0  0  0  0  0  0  0  0  0
  -12.2419    2.0930    9.5056 C   0  0  2  0  0  0  0  0  0  0  0  0
  -12.5571    3.2993    8.8258 O   0  0  0  0  0  0  0  0  0  0  0  0
  -11.3368    1.3298    8.6443 N   0  0  0  0  0  0  0  0  0  0  0  0
  -11.0524   -0.0123    9.2163 C   0  0  0  0  0  0  0  0  0  0  0  0
  -10.0882   -0.8141    8.3364 C   0  0  0  0  0  0  0  0  0  0  0  0
   -8.8134   -0.1065    8.1370 N   0  0  0  0  0  0  0  0  0  0  0  0
   -7.8398   -0.8283    7.4309 C   0  0  0  0  0  0  0  0  0  0  0  0
   -8.1248   -1.9721    6.6733 C   0  0  0  0  0  0  0  0  0  0  0  0
   -7.1391   -2.6079    5.9296 C   0  0  0  0  0  0  0  0  0  0  0  0
   -5.8381   -2.1219    5.9480 C   0  0  0  0  0  0  0  0  0  0  0  0
   -4.7477   -2.8382    4.8391 Cl  0  0  0  0  0  0  0  0  0  0  0  0
   -5.4873   -1.0539    6.7746 C   0  0  0  0  0  0  0  0  0  0  0  0
   -4.0718   -0.5920    6.9327 C   0  0  0  0  0  0  0  0  0  0  0  0
   -3.9707    0.6625    7.4645 F   0  0  0  0  0  0  0  0  0  0  0  0
   -3.3907   -0.5272    5.7584 F   0  0  0  0  0  0  0  0  0  0  0  0
   -3.3414   -1.3925    7.7553 F   0  0  0  0  0  0  0  0  0  0  0  0
   -6.5044   -0.4151    7.5018 C   0  0  0  0  0  0  0  0  0  0  0  0
   -8.9990    1.2811    7.6668 C   0  0  0  0  0  0  0  0  0  0  0  0
  -10.0288    2.0337    8.5427 C   0  0  0  0  0  0  0  0  0  0  0  0
  -13.9231    0.7952   10.9879 C   0  0  0  0  0  0  0  0  0  0  0  0
  -13.3173    0.8037   12.1714 O   0  0  0  0  0  0  0  0  0  0  0  0
  -15.0947    0.1762   10.9550 N   0  0  0  0  0  0  0  0  0  0  0  0
  1  2  1  0
  2  3  1  0
  3  4  2  0
  4  5  1  0
  5  6  1  6
  5  7  1  0
  7  8  1  0
  8  9  1  0
  9 10  1  0
 10 11  1  0
 11 12  2  0
 12 13  1  0
 13 14  2  0
 14 15  1  0
 14 16  1  0
 16 17  1  0
 17 18  1  0
 17 19  1  0
 17 20  1  0
 16 21  2  0
 10 22  1  0
 22 23  1  0
  4 24  1  0
 24 25  1  0
 24 26  2  0
 26  2  1  0
 23  7  1  0
 21 11  1  0
M  END
>  <ref_mols>  (1601) 
B0426a

>  <gnina_score>  (1601) 
5.342

>  <smina_score_min>  (1601) 
-5.29

>  <ref_pdb>  (1601) 
B0426a

>  <inspiration_score>  (1601) 
None

>  <inchikey>  (1601) 
XVDUQDVDDXQTNP-HNNXBMFYSA-N

>  <tags>  (1601) 
BulkDock Fragalysis export,openbind_d68ev3c_c2_elabs_scored,openbind_d68ev3c_c2_elabs_scored_4.5plus,openbind_d68ev3c_c2_elabs,openbind_d68ev3c_c2_elabs_scored_5plus,syndirella_product,openbind_d68ev3c_c2_elabs_scored_top80percent,syndirella_placed

>  <smiles>  (1601) 
Cn1cc([C@H](O)N2CCN(c3ccc(Cl)c(C(F)(F)F)c3)CC2)c(O)n1

>  <subsites>  (1601) 
None

>  <rmsd(smina/fragmenstein)>  (1601) 
0.111

>  <alias>  (1601) 
None

>  <energy_score>  (1601) 
-74.693521

>  <HIPPO Pose ID>  (1601) 
131633

>  <distance_score>  (1601) 
0.519826

>  <HIPPO Compound ID>  (1601) 
157661

>  <gnina_score_min>  (1601) 
5.372

>  <name>  (1601) 
P131633

>  <exports>  (1601) 
['/opt/xchem-fragalysis-2/maxwin/BulkDock/OUTPUTS/openbind_d68ev3c_c2_elabs_1LOTQJ3.sdf', '/opt/xchem-fragalysis-2/maxwin/BulkDock/OUTPUTS/openbind_d68ev3c_c2_elabs_1LSYI5W.sdf']

$$$$
P131635
     RDKit          3D

 26 28  0  0  0  0  0  0  0  0999 V2000
  -13.3586    0.7714   12.2861 C   0  0  0  0  0  0  0  0  0  0  0  0
  -13.9530    0.7094   10.9250 C   0  0  0  0  0  0  0  0  0  0  0  0
  -15.1596    0.1535   10.7441 N   0  0  0  0  0  0  0  0  0  0  0  0
  -15.3919    0.3117    9.4209 N   0  0  0  0  0  0  0  0  0  0  0  0
  -16.6642   -0.0838    8.8711 C   0  0  0  0  0  0  0  0  0  0  0  0
  -14.3677    0.9351    8.7778 C   0  0  0  0  0  0  0  0  0  0  0  0
  -14.4494    1.2637    7.1090 Cl  0  0  0  0  0  0  0  0  0  0  0  0
  -13.3927    1.2008    9.7071 C   0  0  0  0  0  0  0  0  0  0  0  0
  -12.0743    1.8724    9.5430 C   0  0  0  0  0  0  0  0  0  0  0  0
  -11.2057    1.2253    8.5473 N   0  0  0  0  0  0  0  0  0  0  0  0
   -9.8633    1.8551    8.6105 C   0  0  0  0  0  0  0  0  0  0  0  0
   -8.8310    1.2271    7.6481 C   0  0  0  0  0  0  0  0  0  0  0  0
   -8.7450   -0.2349    7.8591 N   0  0  0  0  0  0  0  0  0  0  0  0
   -7.6915   -0.8495    7.1725 C   0  0  0  0  0  0  0  0  0  0  0  0
   -7.8682   -1.7378    6.1032 C   0  0  0  0  0  0  0  0  0  0  0  0
   -6.7694   -2.2658    5.4261 C   0  0  0  0  0  0  0  0  0  0  0  0
   -6.9913   -3.1710    3.9810 Cl  0  0  0  0  0  0  0  0  0  0  0  0
   -5.4765   -1.9691    5.8322 C   0  0  0  0  0  0  0  0  0  0  0  0
   -5.2697   -1.0862    6.8946 C   0  0  0  0  0  0  0  0  0  0  0  0
   -3.8810   -0.6819    7.2805 C   0  0  0  0  0  0  0  0  0  0  0  0
   -3.0011   -0.8790    6.2631 F   0  0  0  0  0  0  0  0  0  0  0  0
   -3.3910   -1.3703    8.3401 F   0  0  0  0  0  0  0  0  0  0  0  0
   -3.7790    0.6386    7.5982 F   0  0  0  0  0  0  0  0  0  0  0  0
   -6.3780   -0.5502    7.5610 C   0  0  0  0  0  0  0  0  0  0  0  0
  -10.0727   -0.8753    7.7647 C   0  0  0  0  0  0  0  0  0  0  0  0
  -11.0467   -0.2334    8.7755 C   0  0  0  0  0  0  0  0  0  0  0  0
  1  2  1  0
  2  3  2  0
  3  4  1  0
  4  5  1  0
  4  6  1  0
  6  7  1  0
  6  8  2  0
  8  9  1  0
  9 10  1  0
 10 11  1  0
 11 12  1  0
 12 13  1  0
 13 14  1  0
 14 15  2  0
 15 16  1  0
 16 17  1  0
 16 18  2  0
 18 19  1  0
 19 20  1  0
 20 21  1  0
 20 22  1  0
 20 23  1  0
 19 24  2  0
 13 25  1  0
 25 26  1  0
  8  2  1  0
 26 10  1  0
 24 14  1  0
M  END
>  <ref_mols>  (1602) 
B0426a

>  <gnina_score>  (1602) 
5.9

>  <smina_score_min>  (1602) 
-5.932

>  <ref_pdb>  (1602) 
B0426a

>  <inspiration_score>  (1602) 
None

>  <inchikey>  (1602) 
WCPQITOKZLTJSJ-UHFFFAOYSA-N

>  <tags>  (1602) 
BulkDock Fragalysis export,openbind_d68ev3c_c2_elabs_scored,openbind_d68ev3c_c2_elabs_scored_4.5plus,openbind_d68ev3c_c2_elabs,openbind_d68ev3c_c2_elabs_scored_5plus,syndirella_product,openbind_d68ev3c_c2_elabs_scored_top80percent,syndirella_placed

>  <smiles>  (1602) 
Cc1nn(C)c(Cl)c1CN1CCN(c2cc(Cl)cc(C(F)(F)F)c2)CC1

>  <subsites>  (1602) 
None

>  <rmsd(smina/fragmenstein)>  (1602) 
0.975

>  <alias>  (1602) 
None

>  <energy_score>  (1602) 
-32.678222

>  <HIPPO Pose ID>  (1602) 
131635

>  <distance_score>  (1602) 
0.538249

>  <HIPPO Compound ID>  (1602) 
157662

>  <gnina_score_min>  (1602) 
6.052

>  <name>  (1602) 
P131635

>  <exports>  (1602) 
['/opt/xchem-fragalysis-2/maxwin/BulkDock/OUTPUTS/openbind_d68ev3c_c2_elabs_1LOTQJ3.sdf', '/opt/xchem-fragalysis-2/maxwin/BulkDock/OUTPUTS/openbind_d68ev3c_c2_elabs_1LSYI5W.sdf']

$$$$
P131636
     RDKit          3D

 26 28  0  0  0  0  0  0  0  0999 V2000
  -13.3391    0.8874   12.3347 C   0  0  0  0  0  0  0  0  0  0  0  0
  -13.9920    0.8284   11.0008 C   0  0  0  0  0  0  0  0  0  0  0  0
  -15.1751    0.2120   10.8603 N   0  0  0  0  0  0  0  0  0  0  0  0
  -15.4681    0.3706    9.5494 N   0  0  0  0  0  0  0  0  0  0  0  0
  -16.7465   -0.0689    9.0499 C   0  0  0  0  0  0  0  0  0  0  0  0
  -14.4981    1.0395    8.8708 C   0  0  0  0  0  0  0  0  0  0  0  0
  -14.6461    1.3528    7.2039 Cl  0  0  0  0  0  0  0  0  0  0  0  0
  -13.5098    1.3620    9.7674 C   0  0  0  0  0  0  0  0  0  0  0  0
  -12.2304    2.0887    9.5319 C   0  0  0  0  0  0  0  0  0  0  0  0
  -11.3229    1.3026    8.6895 N   0  0  0  0  0  0  0  0  0  0  0  0
  -10.0512    2.0335    8.4886 C   0  0  0  0  0  0  0  0  0  0  0  0
   -9.0392    1.2592    7.6095 C   0  0  0  0  0  0  0  0  0  0  0  0
   -8.8044   -0.1011    8.1410 N   0  0  0  0  0  0  0  0  0  0  0  0
   -7.8394   -0.8266    7.4278 C   0  0  0  0  0  0  0  0  0  0  0  0
   -8.1334   -1.9624    6.6633 C   0  0  0  0  0  0  0  0  0  0  0  0
   -7.1503   -2.5998    5.9175 C   0  0  0  0  0  0  0  0  0  0  0  0
   -5.8460   -2.1212    5.9391 C   0  0  0  0  0  0  0  0  0  0  0  0
   -4.7576   -2.8412    4.8299 Cl  0  0  0  0  0  0  0  0  0  0  0  0
   -5.4895   -1.0567    6.7682 C   0  0  0  0  0  0  0  0  0  0  0  0
   -4.0727   -0.5997    6.9274 C   0  0  0  0  0  0  0  0  0  0  0  0
   -3.9671    0.6547    7.4588 F   0  0  0  0  0  0  0  0  0  0  0  0
   -3.3458   -1.4022    7.7516 F   0  0  0  0  0  0  0  0  0  0  0  0
   -3.3892   -0.5381    5.7541 F   0  0  0  0  0  0  0  0  0  0  0  0
   -6.5033   -0.4162    7.4976 C   0  0  0  0  0  0  0  0  0  0  0  0
  -10.0628   -0.8257    8.3948 C   0  0  0  0  0  0  0  0  0  0  0  0
  -11.0035   -0.0128    9.2899 C   0  0  0  0  0  0  0  0  0  0  0  0
  1  2  1  0
  2  3  2  0
  3  4  1  0
  4  5  1  0
  4  6  1  0
  6  7  1  0
  6  8  2  0
  8  9  1  0
  9 10  1  0
 10 11  1  0
 11 12  1  0
 12 13  1  0
 13 14  1  0
 14 15  2  0
 15 16  1  0
 16 17  2  0
 17 18  1  0
 17 19  1  0
 19 20  1  0
 20 21  1  0
 20 22  1  0
 20 23  1  0
 19 24  2  0
 13 25  1  0
 25 26  1  0
  8  2  1  0
 26 10  1  0
 24 14  1  0
M  END
>  <ref_mols>  (1603) 
B0426a

>  <gnina_score>  (1603) 
5.818

>  <smina_score_min>  (1603) 
-5.501

>  <ref_pdb>  (1603) 
B0426a

>  <inspiration_score>  (1603) 
None

>  <inchikey>  (1603) 
JPPMAWHQASYCER-UHFFFAOYSA-N

>  <tags>  (1603) 
BulkDock Fragalysis export,openbind_d68ev3c_c2_elabs_scored,openbind_d68ev3c_c2_elabs_scored_4.5plus,openbind_d68ev3c_c2_elabs,openbind_d68ev3c_c2_elabs_scored_5plus,syndirella_product,openbind_d68ev3c_c2_elabs_scored_top80percent,syndirella_placed

>  <smiles>  (1603) 
Cc1nn(C)c(Cl)c1CN1CCN(c2ccc(Cl)c(C(F)(F)F)c2)CC1

>  <subsites>  (1603) 
None

>  <rmsd(smina/fragmenstein)>  (1603) 
0.173

>  <alias>  (1603) 
None

>  <energy_score>  (1603) 
-41.740487

>  <HIPPO Pose ID>  (1603) 
131636

>  <distance_score>  (1603) 
0.552668

>  <HIPPO Compound ID>  (1603) 
157663

>  <gnina_score_min>  (1603) 
5.883

>  <name>  (1603) 
P131636

>  <exports>  (1603) 
['/opt/xchem-fragalysis-2/maxwin/BulkDock/OUTPUTS/openbind_d68ev3c_c2_elabs_1LOTQJ3.sdf', '/opt/xchem-fragalysis-2/maxwin/BulkDock/OUTPUTS/openbind_d68ev3c_c2_elabs_1LSYI5W.sdf']

$$$$
P131637
     RDKit          3D

 27 29  0  0  0  0  0  0  0  0999 V2000
  -14.4412    1.1898    7.2844 C   0  0  0  0  0  0  0  0  0  0  0  0
  -14.4083    0.8890    8.7387 C   0  0  0  0  0  0  0  0  0  0  0  0
  -13.4417    1.1244    9.7072 C   0  0  0  0  0  0  0  0  0  0  0  0
  -12.1041    1.7902    9.6206 C   0  0  2  0  0  0  0  0  0  0  0  0
  -12.2875    3.1645    9.3235 O   0  0  0  0  0  0  0  0  0  0  0  0
  -11.2343    1.2185    8.5897 N   0  0  0  0  0  0  0  0  0  0  0  0
  -11.1362   -0.2626    8.6900 C   0  0  0  0  0  0  0  0  0  0  0  0
  -10.1551   -0.8553    7.6572 C   0  0  0  0  0  0  0  0  0  0  0  0
   -8.8037   -0.2853    7.8422 N   0  0  0  0  0  0  0  0  0  0  0  0
   -7.7455   -0.8894    7.1546 C   0  0  0  0  0  0  0  0  0  0  0  0
   -7.9238   -1.7854    6.0897 C   0  0  0  0  0  0  0  0  0  0  0  0
   -6.8319   -2.3215    5.3971 C   0  0  0  0  0  0  0  0  0  0  0  0
   -7.0375   -3.0937    4.2063 C   0  0  0  0  0  0  0  0  0  0  0  0
   -7.1785   -3.6845    3.2150 N   0  0  0  0  0  0  0  0  0  0  0  0
   -5.5342   -2.0105    5.7980 C   0  0  0  0  0  0  0  0  0  0  0  0
   -5.3218   -1.1238    6.8591 C   0  0  0  0  0  0  0  0  0  0  0  0
   -3.9299   -0.7091    7.2376 C   0  0  0  0  0  0  0  0  0  0  0  0
   -3.0622   -0.8763    6.2035 F   0  0  0  0  0  0  0  0  0  0  0  0
   -3.8377    0.6052    7.5810 F   0  0  0  0  0  0  0  0  0  0  0  0
   -3.4185   -1.4149    8.2755 F   0  0  0  0  0  0  0  0  0  0  0  0
   -6.4283   -0.5933    7.5349 C   0  0  0  0  0  0  0  0  0  0  0  0
   -8.8246    1.1937    7.7803 C   0  0  0  0  0  0  0  0  0  0  0  0
   -9.8625    1.7680    8.7695 C   0  0  0  0  0  0  0  0  0  0  0  0
  -14.0056    0.5901   10.8907 C   0  0  0  0  0  0  0  0  0  0  0  0
  -15.2105    0.0533   10.7010 N   0  0  0  0  0  0  0  0  0  0  0  0
  -15.4396    0.2578    9.3884 N   0  0  0  0  0  0  0  0  0  0  0  0
  -16.7122   -0.1171    8.8201 C   0  0  0  0  0  0  0  0  0  0  0  0
  1  2  1  0
  2  3  2  0
  3  4  1  0
  4  5  1  6
  4  6  1  0
  6  7  1  0
  7  8  1  0
  8  9  1  0
  9 10  1  0
 10 11  2  0
 11 12  1  0
 12 13  1  0
 13 14  3  0
 12 15  2  0
 15 16  1  0
 16 17  1  0
 17 18  1  0
 17 19  1  0
 17 20  1  0
 16 21  2  0
  9 22  1  0
 22 23  1  0
  3 24  1  0
 24 25  2  0
 25 26  1  0
 26 27  1  0
 26  2  1  0
 23  6  1  0
 21 10  1  0
M  END
>  <ref_mols>  (1604) 
B0426a

>  <gnina_score>  (1604) 
5.596

>  <smina_score_min>  (1604) 
-5.457

>  <ref_pdb>  (1604) 
B0426a

>  <inspiration_score>  (1604) 
None

>  <inchikey>  (1604) 
PIFZWIRPOHUQNH-KRWDZBQOSA-N

>  <tags>  (1604) 
BulkDock Fragalysis export,openbind_d68ev3c_c2_elabs_scored,openbind_d68ev3c_c2_elabs_scored_4.5plus,openbind_d68ev3c_c2_elabs,openbind_d68ev3c_c2_elabs_scored_5plus,syndirella_product,openbind_d68ev3c_c2_elabs_scored_top80percent,syndirella_placed

>  <smiles>  (1604) 
Cc1c([C@H](O)N2CCN(c3cc(C#N)cc(C(F)(F)F)c3)CC2)cnn1C

>  <subsites>  (1604) 
None

>  <rmsd(smina/fragmenstein)>  (1604) 
0.474

>  <alias>  (1604) 
None

>  <energy_score>  (1604) 
-40.579569

>  <HIPPO Pose ID>  (1604) 
131637

>  <distance_score>  (1604) 
0.502853

>  <HIPPO Compound ID>  (1604) 
157664

>  <gnina_score_min>  (1604) 
5.402

>  <name>  (1604) 
P131637

>  <exports>  (1604) 
['/opt/xchem-fragalysis-2/maxwin/BulkDock/OUTPUTS/openbind_d68ev3c_c2_elabs_1LOTQJ3.sdf', '/opt/xchem-fragalysis-2/maxwin/BulkDock/OUTPUTS/openbind_d68ev3c_c2_elabs_1LSYI5W.sdf']

$$$$
P131639
     RDKit          3D

 27 29  0  0  0  0  0  0  0  0999 V2000
  -13.3611    0.7756   12.2923 C   0  0  0  0  0  0  0  0  0  0  0  0
  -13.9547    0.7141   10.9308 C   0  0  0  0  0  0  0  0  0  0  0  0
  -15.1601    0.1559   10.7488 N   0  0  0  0  0  0  0  0  0  0  0  0
  -15.3933    0.3166    9.4261 N   0  0  0  0  0  0  0  0  0  0  0  0
  -16.6654   -0.0797    8.8760 C   0  0  0  0  0  0  0  0  0  0  0  0
  -14.3694    0.9413    8.7837 C   0  0  0  0  0  0  0  0  0  0  0  0
  -14.4500    1.2698    7.1150 Cl  0  0  0  0  0  0  0  0  0  0  0  0
  -13.3945    1.2067    9.7134 C   0  0  0  0  0  0  0  0  0  0  0  0
  -12.0752    1.8769    9.5495 C   0  0  0  0  0  0  0  0  0  0  0  0
  -11.2074    1.2268    8.5548 N   0  0  0  0  0  0  0  0  0  0  0  0
   -9.8615    1.8482    8.6209 C   0  0  0  0  0  0  0  0  0  0  0  0
   -8.8341    1.2191    7.6532 C   0  0  0  0  0  0  0  0  0  0  0  0
   -8.7596   -0.2467    7.8487 N   0  0  0  0  0  0  0  0  0  0  0  0
   -7.7133   -0.8682    7.1598 C   0  0  0  0  0  0  0  0  0  0  0  0
   -7.9036   -1.7702    6.1031 C   0  0  0  0  0  0  0  0  0  0  0  0
   -6.8171   -2.3164    5.4109 C   0  0  0  0  0  0  0  0  0  0  0  0
   -7.0295   -3.0901    4.2225 C   0  0  0  0  0  0  0  0  0  0  0  0
   -7.1766   -3.6781    3.2306 N   0  0  0  0  0  0  0  0  0  0  0  0
   -5.5165   -2.0109    5.8078 C   0  0  0  0  0  0  0  0  0  0  0  0
   -5.2958   -1.1154    6.8604 C   0  0  0  0  0  0  0  0  0  0  0  0
   -3.9019   -0.7075    7.2346 C   0  0  0  0  0  0  0  0  0  0  0  0
   -3.8010    0.6079    7.5711 F   0  0  0  0  0  0  0  0  0  0  0  0
   -3.0380   -0.8859    6.2001 F   0  0  0  0  0  0  0  0  0  0  0  0
   -3.3941   -1.4112    8.2757 F   0  0  0  0  0  0  0  0  0  0  0  0
   -6.3958   -0.5693    7.5316 C   0  0  0  0  0  0  0  0  0  0  0  0
  -10.0937   -0.8746    7.7604 C   0  0  0  0  0  0  0  0  0  0  0  0
  -11.0566   -0.2324    8.7802 C   0  0  0  0  0  0  0  0  0  0  0  0
  1  2  1  0
  2  3  2  0
  3  4  1  0
  4  5  1  0
  4  6  1  0
  6  7  1  0
  6  8  2  0
  8  9  1  0
  9 10  1  0
 10 11  1  0
 11 12  1  0
 12 13  1  0
 13 14  1  0
 14 15  2  0
 15 16  1  0
 16 17  1  0
 17 18  3  0
 16 19  2  0
 19 20  1  0
 20 21  1  0
 21 22  1  0
 21 23  1  0
 21 24  1  0
 20 25  2  0
 13 26  1  0
 26 27  1  0
  8  2  1  0
 27 10  1  0
 25 14  1  0
M  END
>  <ref_mols>  (1605) 
B0426a

>  <gnina_score>  (1605) 
5.904

>  <smina_score_min>  (1605) 
-5.724

>  <ref_pdb>  (1605) 
B0426a

>  <inspiration_score>  (1605) 
None

>  <inchikey>  (1605) 
YZLYGAKDFVWWKS-UHFFFAOYSA-N

>  <tags>  (1605) 
BulkDock Fragalysis export,openbind_d68ev3c_c2_elabs_scored,openbind_d68ev3c_c2_elabs_scored_4.5plus,openbind_d68ev3c_c2_elabs,openbind_d68ev3c_c2_elabs_scored_5plus,syndirella_product,openbind_d68ev3c_c2_elabs_scored_top80percent,syndirella_placed

>  <smiles>  (1605) 
Cc1nn(C)c(Cl)c1CN1CCN(c2cc(C#N)cc(C(F)(F)F)c2)CC1

>  <subsites>  (1605) 
None

>  <rmsd(smina/fragmenstein)>  (1605) 
0.453

>  <alias>  (1605) 
None

>  <energy_score>  (1605) 
-35.815014

>  <HIPPO Pose ID>  (1605) 
131639

>  <distance_score>  (1605) 
0.528414

>  <HIPPO Compound ID>  (1605) 
157666

>  <gnina_score_min>  (1605) 
5.855

>  <name>  (1605) 
P131639

>  <exports>  (1605) 
['/opt/xchem-fragalysis-2/maxwin/BulkDock/OUTPUTS/openbind_d68ev3c_c2_elabs_1LOTQJ3.sdf', '/opt/xchem-fragalysis-2/maxwin/BulkDock/OUTPUTS/openbind_d68ev3c_c2_elabs_1LSYI5W.sdf']

$$$$
P131640
     RDKit          3D

 27 29  0  0  0  0  0  0  0  0999 V2000
  -13.3265    0.8169   12.3249 C   0  0  0  0  0  0  0  0  0  0  0  0
  -13.9263    0.7113   10.9696 C   0  0  0  0  0  0  0  0  0  0  0  0
  -15.1192    0.1247   10.8053 N   0  0  0  0  0  0  0  0  0  0  0  0
  -15.3714    0.2718    9.4931 N   0  0  0  0  0  0  0  0  0  0  0  0
  -16.6528   -0.1039    8.9520 C   0  0  0  0  0  0  0  0  0  0  0  0
  -14.3642    0.8773    8.8064 C   0  0  0  0  0  0  0  0  0  0  0  0
  -13.3878    1.1825    9.7361 C   0  0  0  0  0  0  0  0  0  0  0  0
  -12.0784    1.8800    9.5446 C   0  0  2  0  0  0  0  0  0  0  0  0
  -12.3242    3.2088    9.1159 O   0  0  0  0  0  0  0  0  0  0  0  0
  -11.2262    1.2457    8.5345 N   0  0  0  0  0  0  0  0  0  0  0  0
  -11.0916   -0.2223    8.7371 C   0  0  0  0  0  0  0  0  0  0  0  0
  -10.1195   -0.8612    7.7221 C   0  0  0  0  0  0  0  0  0  0  0  0
   -8.7791   -0.2552    7.8420 N   0  0  0  0  0  0  0  0  0  0  0  0
   -7.7274   -0.8765    7.1595 C   0  0  0  0  0  0  0  0  0  0  0  0
   -7.9120   -1.7791    6.1021 C   0  0  0  0  0  0  0  0  0  0  0  0
   -6.8222   -2.3219    5.4114 C   0  0  0  0  0  0  0  0  0  0  0  0
   -7.0308   -3.0941    4.2213 C   0  0  0  0  0  0  0  0  0  0  0  0
   -7.1778   -3.6803    3.2285 N   0  0  0  0  0  0  0  0  0  0  0  0
   -5.5231   -2.0134    5.8102 C   0  0  0  0  0  0  0  0  0  0  0  0
   -5.3068   -1.1194    6.8645 C   0  0  0  0  0  0  0  0  0  0  0  0
   -3.9137   -0.7072    7.2397 C   0  0  0  0  0  0  0  0  0  0  0  0
   -3.4042   -1.4104    8.2802 F   0  0  0  0  0  0  0  0  0  0  0  0
   -3.8182    0.6081    7.5783 F   0  0  0  0  0  0  0  0  0  0  0  0
   -3.0483   -0.8808    6.2055 F   0  0  0  0  0  0  0  0  0  0  0  0
   -6.4102   -0.5780    7.5354 C   0  0  0  0  0  0  0  0  0  0  0  0
   -8.8273    1.2147    7.6813 C   0  0  0  0  0  0  0  0  0  0  0  0
   -9.8607    1.8347    8.6463 C   0  0  0  0  0  0  0  0  0  0  0  0
  1  2  1  0
  2  3  2  0
  3  4  1  0
  4  5  1  0
  4  6  1  0
  6  7  2  0
  7  8  1  0
  8  9  1  6
  8 10  1  0
 10 11  1  0
 11 12  1  0
 12 13  1  0
 13 14  1  0
 14 15  2  0
 15 16  1  0
 16 17  1  0
 17 18  3  0
 16 19  2  0
 19 20  1  0
 20 21  1  0
 21 22  1  0
 21 23  1  0
 21 24  1  0
 20 25  2  0
 13 26  1  0
 26 27  1  0
  7  2  1  0
 27 10  1  0
 25 14  1  0
M  END
>  <ref_mols>  (1606) 
B0426a

>  <gnina_score>  (1606) 
5.573

>  <smina_score_min>  (1606) 
-5.739

>  <ref_pdb>  (1606) 
B0426a

>  <inspiration_score>  (1606) 
None

>  <inchikey>  (1606) 
CPMAHKPAAJMHFH-KRWDZBQOSA-N

>  <tags>  (1606) 
BulkDock Fragalysis export,openbind_d68ev3c_c2_elabs_scored,openbind_d68ev3c_c2_elabs_scored_4.5plus,openbind_d68ev3c_c2_elabs,openbind_d68ev3c_c2_elabs_scored_5plus,syndirella_product,openbind_d68ev3c_c2_elabs_scored_top80percent,syndirella_placed

>  <smiles>  (1606) 
Cc1nn(C)cc1[C@H](O)N1CCN(c2cc(C#N)cc(C(F)(F)F)c2)CC1

>  <subsites>  (1606) 
None

>  <rmsd(smina/fragmenstein)>  (1606) 
0.443

>  <alias>  (1606) 
None

>  <energy_score>  (1606) 
-48.104465

>  <HIPPO Pose ID>  (1606) 
131640

>  <distance_score>  (1606) 
0.510413

>  <HIPPO Compound ID>  (1606) 
157667

>  <gnina_score_min>  (1606) 
5.636

>  <name>  (1606) 
P131640

>  <exports>  (1606) 
['/opt/xchem-fragalysis-2/maxwin/BulkDock/OUTPUTS/openbind_d68ev3c_c2_elabs_1LOTQJ3.sdf', '/opt/xchem-fragalysis-2/maxwin/BulkDock/OUTPUTS/openbind_d68ev3c_c2_elabs_1LSYI5W.sdf']

$$$$
P131642
     RDKit          3D

 27 29  0  0  0  0  0  0  0  0999 V2000
   -4.9080    0.2587    3.4735 C   0  0  0  0  0  0  0  0  0  0  0  0
   -6.2235   -0.4025    3.2979 C   0  0  0  0  0  0  0  0  0  0  0  0
   -6.6450   -1.7150    3.4894 C   0  0  0  0  0  0  0  0  0  0  0  0
   -5.8963   -2.9295    3.9518 C   0  0  2  0  0  0  0  0  0  0  0  0
   -6.6500   -4.1069    3.7646 O   0  0  0  0  0  0  0  0  0  0  0  0
   -5.3000   -2.9594    5.2924 N   0  0  0  0  0  0  0  0  0  0  0  0
   -6.1154   -2.4059    6.2963 C   0  0  0  0  0  0  0  0  0  0  0  0
   -7.3570   -2.9921    6.5418 C   0  0  0  0  0  0  0  0  0  0  0  0
   -8.3391   -2.3117    7.2436 C   0  0  0  0  0  0  0  0  0  0  0  0
   -8.1421   -1.0064    7.6954 C   0  0  0  0  0  0  0  0  0  0  0  0
   -9.2183   -0.2769    8.2211 N   0  0  0  0  0  0  0  0  0  0  0  0
  -10.4999   -0.4395    7.4778 C   0  0  0  0  0  0  0  0  0  0  0  0
  -11.6787    0.1789    8.2534 C   0  0  0  0  0  0  0  0  0  0  0  0
  -11.4581    1.6091    8.5550 N   0  0  0  0  0  0  0  0  0  0  0  0
  -12.5890    2.1470    9.3021 C   0  0  0  0  0  0  0  0  0  0  0  0
  -10.2096    1.7276    9.3370 C   0  0  0  0  0  0  0  0  0  0  0  0
   -8.9874    1.1277    8.6072 C   0  0  0  0  0  0  0  0  0  0  0  0
   -6.8223   -0.5280    7.6407 C   0  0  0  0  0  0  0  0  0  0  0  0
   -5.7893   -1.2221    6.9726 C   0  0  0  0  0  0  0  0  0  0  0  0
   -4.3860   -0.6772    7.0408 C   0  0  0  0  0  0  0  0  0  0  0  0
   -3.6821   -1.1550    8.1055 F   0  0  0  0  0  0  0  0  0  0  0  0
   -3.6251   -0.9790    5.9444 F   0  0  0  0  0  0  0  0  0  0  0  0
   -4.3264    0.6829    7.1451 F   0  0  0  0  0  0  0  0  0  0  0  0
   -8.0214   -1.6776    3.1555 C   0  0  0  0  0  0  0  0  0  0  0  0
   -8.4351   -0.4712    2.7719 N   0  0  0  0  0  0  0  0  0  0  0  0
   -7.3391    0.2919    2.8914 N   0  0  0  0  0  0  0  0  0  0  0  0
   -7.4316    1.7016    2.5883 C   0  0  0  0  0  0  0  0  0  0  0  0
  1  2  1  0
  2  3  2  0
  3  4  1  0
  4  5  1  1
  4  6  1  0
  6  7  1  0
  7  8  2  0
  8  9  1  0
  9 10  2  0
 10 11  1  0
 11 12  1  0
 12 13  1  0
 13 14  1  0
 14 15  1  0
 14 16  1  0
 16 17  1  0
 10 18  1  0
 18 19  2  0
 19 20  1  0
 20 21  1  0
 20 22  1  0
 20 23  1  0
  3 24  1  0
 24 25  2  0
 25 26  1  0
 26 27  1  0
 26  2  1  0
 19  7  1  0
 17 11  1  0
M  END
>  <ref_mols>  (1607) 
B0426a

>  <gnina_score>  (1607) 
5.39

>  <smina_score_min>  (1607) 
-5.736

>  <ref_pdb>  (1607) 
B0426a

>  <inspiration_score>  (1607) 
None

>  <inchikey>  (1607) 
SLYLCRLANXZRKX-KRWDZBQOSA-N

>  <tags>  (1607) 
BulkDock Fragalysis export,openbind_d68ev3c_c2_elabs_scored,openbind_d68ev3c_c2_elabs_scored_4.5plus,openbind_d68ev3c_c2_elabs,openbind_d68ev3c_c2_elabs_scored_5plus,syndirella_product,openbind_d68ev3c_c2_elabs_scored_top80percent,syndirella_placed

>  <smiles>  (1607) 
Cc1c([C@H](O)Nc2ccc(N3CCN(C)CC3)cc2C(F)(F)F)cnn1C

>  <subsites>  (1607) 
None

>  <rmsd(smina/fragmenstein)>  (1607) 
0.47

>  <alias>  (1607) 
None

>  <energy_score>  (1607) 
-129.450512

>  <HIPPO Pose ID>  (1607) 
131642

>  <distance_score>  (1607) 
0.521339

>  <HIPPO Compound ID>  (1607) 
157668

>  <gnina_score_min>  (1607) 
5.556

>  <name>  (1607) 
P131642

>  <exports>  (1607) 
['/opt/xchem-fragalysis-2/maxwin/BulkDock/OUTPUTS/openbind_d68ev3c_c2_elabs_1LOTQJ3.sdf', '/opt/xchem-fragalysis-2/maxwin/BulkDock/OUTPUTS/openbind_d68ev3c_c2_elabs_1LSYI5W.sdf']

$$$$
P131644
     RDKit          3D

 27 29  0  0  0  0  0  0  0  0999 V2000
   -6.5077    2.3919    2.2361 C   0  0  0  0  0  0  0  0  0  0  0  0
   -6.7649    0.9504    1.9858 C   0  0  0  0  0  0  0  0  0  0  0  0
   -7.6522    0.5912    1.0501 N   0  0  0  0  0  0  0  0  0  0  0  0
   -7.6191   -0.7494    1.0640 N   0  0  0  0  0  0  0  0  0  0  0  0
   -8.4543   -1.4902    0.1509 C   0  0  0  0  0  0  0  0  0  0  0  0
   -6.7464   -1.2580    1.9747 C   0  0  0  0  0  0  0  0  0  0  0  0
   -6.1723   -0.1804    2.6247 C   0  0  0  0  0  0  0  0  0  0  0  0
   -5.1216   -0.1818    3.6968 C   0  0  1  0  0  0  0  0  0  0  0  0
   -5.2799    0.9158    4.5850 O   0  0  0  0  0  0  0  0  0  0  0  0
   -4.9052   -1.4234    4.4788 N   0  0  0  0  0  0  0  0  0  0  0  0
   -5.7794   -1.5627    5.5898 C   0  0  0  0  0  0  0  0  0  0  0  0
   -7.0548   -2.0718    5.3582 C   0  0  0  0  0  0  0  0  0  0  0  0
   -8.1050   -1.7843    6.2270 C   0  0  0  0  0  0  0  0  0  0  0  0
   -7.9197   -0.9548    7.3365 C   0  0  0  0  0  0  0  0  0  0  0  0
   -8.9883   -0.4000    8.0717 N   0  0  0  0  0  0  0  0  0  0  0  0
   -8.8631    1.0719    8.2709 C   0  0  0  0  0  0  0  0  0  0  0  0
  -10.0107    1.6393    9.1382 C   0  0  0  0  0  0  0  0  0  0  0  0
  -11.3437    1.3075    8.5928 N   0  0  0  0  0  0  0  0  0  0  0  0
  -12.4027    1.8538    9.4332 C   0  0  0  0  0  0  0  0  0  0  0  0
  -11.4457   -0.1672    8.5188 C   0  0  0  0  0  0  0  0  0  0  0  0
  -10.3540   -0.7614    7.6071 C   0  0  0  0  0  0  0  0  0  0  0  0
   -6.5910   -0.6697    7.6845 C   0  0  0  0  0  0  0  0  0  0  0  0
   -5.5115   -0.9644    6.8310 C   0  0  0  0  0  0  0  0  0  0  0  0
   -4.1288   -0.5457    7.2461 C   0  0  0  0  0  0  0  0  0  0  0  0
   -4.0323    0.7831    7.5295 F   0  0  0  0  0  0  0  0  0  0  0  0
   -3.6861   -1.1945    8.3577 F   0  0  0  0  0  0  0  0  0  0  0  0
   -3.1807   -0.7872    6.2928 F   0  0  0  0  0  0  0  0  0  0  0  0
  1  2  1  0
  2  3  2  0
  3  4  1  0
  4  5  1  0
  4  6  1  0
  6  7  2  0
  7  8  1  0
  8  9  1  1
  8 10  1  0
 10 11  1  0
 11 12  2  0
 12 13  1  0
 13 14  2  0
 14 15  1  0
 15 16  1  0
 16 17  1  0
 17 18  1  0
 18 19  1  0
 18 20  1  0
 20 21  1  0
 14 22  1  0
 22 23  2  0
 23 24  1  0
 24 25  1  0
 24 26  1  0
 24 27  1  0
  7  2  1  0
 23 11  1  0
 21 15  1  0
M  END
>  <ref_mols>  (1608) 
B0426a

>  <gnina_score>  (1608) 
5.326

>  <smina_score_min>  (1608) 
-5.066

>  <ref_pdb>  (1608) 
B0426a

>  <inspiration_score>  (1608) 
None

>  <inchikey>  (1608) 
YRKKPGAPMGCVTQ-QGZVFWFLSA-N

>  <tags>  (1608) 
BulkDock Fragalysis export,openbind_d68ev3c_c2_elabs_scored,openbind_d68ev3c_c2_elabs_scored_4.5plus,openbind_d68ev3c_c2_elabs,openbind_d68ev3c_c2_elabs_scored_5plus,syndirella_product,openbind_d68ev3c_c2_elabs_scored_top80percent,syndirella_placed

>  <smiles>  (1608) 
Cc1nn(C)cc1[C@@H](O)Nc1ccc(N2CCN(C)CC2)cc1C(F)(F)F

>  <subsites>  (1608) 
None

>  <rmsd(smina/fragmenstein)>  (1608) 
1.429

>  <alias>  (1608) 
None

>  <energy_score>  (1608) 
-34.875878

>  <HIPPO Pose ID>  (1608) 
131644

>  <distance_score>  (1608) 
0.734083

>  <HIPPO Compound ID>  (1608) 
157669

>  <gnina_score_min>  (1608) 
5.179

>  <name>  (1608) 
P131644

>  <exports>  (1608) 
['/opt/xchem-fragalysis-2/maxwin/BulkDock/OUTPUTS/openbind_d68ev3c_c2_elabs_1LOTQJ3.sdf', '/opt/xchem-fragalysis-2/maxwin/BulkDock/OUTPUTS/openbind_d68ev3c_c2_elabs_1LSYI5W.sdf']

$$$$
P131645
     RDKit          3D

 27 29  0  0  0  0  0  0  0  0999 V2000
   -7.1737   -3.6815    3.2208 N   0  0  0  0  0  0  0  0  0  0  0  0
   -7.0297   -3.0899    4.2108 C   0  0  0  0  0  0  0  0  0  0  0  0
   -6.8257   -2.3128    5.3985 C   0  0  0  0  0  0  0  0  0  0  0  0
   -7.9186   -1.7704    6.0846 C   0  0  0  0  0  0  0  0  0  0  0  0
   -7.7411   -0.8690    7.1447 C   0  0  0  0  0  0  0  0  0  0  0  0
   -8.7984   -0.2633    7.8299 N   0  0  0  0  0  0  0  0  0  0  0  0
  -10.1396   -0.8649    7.6874 C   0  0  0  0  0  0  0  0  0  0  0  0
  -11.1059   -0.2724    8.7338 C   0  0  0  0  0  0  0  0  0  0  0  0
  -11.2365    1.2042    8.6164 N   0  0  0  0  0  0  0  0  0  0  0  0
  -12.0717    1.7741    9.6883 C   0  0  0  0  0  0  0  0  0  0  0  0
  -13.4166    1.1401    9.7764 C   0  0  0  0  0  0  0  0  0  0  0  0
  -13.9849    0.5351   10.9217 C   0  0  0  0  0  0  0  0  0  0  0  0
  -15.2059    0.0448   10.6979 N   0  0  0  0  0  0  0  0  0  0  0  0
  -15.4253    0.3351    9.4001 N   0  0  0  0  0  0  0  0  0  0  0  0
  -16.6881   -0.0067    8.7777 C   0  0  0  0  0  0  0  0  0  0  0  0
  -17.8751    0.4790    9.5892 C   0  0  0  0  0  0  0  0  0  0  0  0
  -19.3979    0.0801    8.7489 Cl  0  0  0  0  0  0  0  0  0  0  0  0
  -14.3909    0.9992    8.8101 C   0  0  0  0  0  0  0  0  0  0  0  0
   -9.8757    1.7937    8.7248 C   0  0  0  0  0  0  0  0  0  0  0  0
   -8.8507    1.2122    7.7240 C   0  0  0  0  0  0  0  0  0  0  0  0
   -6.4254   -0.5688    7.5249 C   0  0  0  0  0  0  0  0  0  0  0  0
   -5.3181   -1.1088    6.8580 C   0  0  0  0  0  0  0  0  0  0  0  0
   -3.9262   -0.6983    7.2405 C   0  0  0  0  0  0  0  0  0  0  0  0
   -3.8307    0.6173    7.5777 F   0  0  0  0  0  0  0  0  0  0  0  0
   -3.4235   -1.4007    8.2850 F   0  0  0  0  0  0  0  0  0  0  0  0
   -3.0546   -0.8748    6.2117 F   0  0  0  0  0  0  0  0  0  0  0  0
   -5.5288   -2.0028    5.8025 C   0  0  0  0  0  0  0  0  0  0  0  0
  1  2  3  0
  2  3  1  0
  3  4  2  0
  4  5  1  0
  5  6  1  0
  6  7  1  0
  7  8  1  0
  8  9  1  0
  9 10  1  0
 10 11  1  0
 11 12  1  0
 12 13  2  0
 13 14  1  0
 14 15  1  0
 15 16  1  0
 16 17  1  0
 14 18  1  0
  9 19  1  0
 19 20  1  0
  5 21  2  0
 21 22  1  0
 22 23  1  0
 23 24  1  0
 23 25  1  0
 23 26  1  0
 22 27  2  0
 27  3  1  0
 20  6  1  0
 18 11  2  0
M  END
>  <ref_mols>  (1609) 
B0426a

>  <gnina_score>  (1609) 
5.612

>  <smina_score_min>  (1609) 
-5.164

>  <ref_pdb>  (1609) 
B0426a

>  <inspiration_score>  (1609) 
None

>  <inchikey>  (1609) 
SIZGUZAGUKCUER-UHFFFAOYSA-N

>  <tags>  (1609) 
BulkDock Fragalysis export,openbind_d68ev3c_c2_elabs_scored,openbind_d68ev3c_c2_elabs_scored_4.5plus,openbind_d68ev3c_c2_elabs,openbind_d68ev3c_c2_elabs_scored_5plus,syndirella_product,openbind_d68ev3c_c2_elabs_scored_top80percent,syndirella_placed

>  <smiles>  (1609) 
N#Cc1cc(N2CCN(Cc3cnn(CCCl)c3)CC2)cc(C(F)(F)F)c1

>  <subsites>  (1609) 
None

>  <rmsd(smina/fragmenstein)>  (1609) 
0.632

>  <alias>  (1609) 
None

>  <energy_score>  (1609) 
-39.934578

>  <HIPPO Pose ID>  (1609) 
131645

>  <distance_score>  (1609) 
0.528638

>  <HIPPO Compound ID>  (1609) 
157672

>  <gnina_score_min>  (1609) 
5.581

>  <name>  (1609) 
P131645

>  <exports>  (1609) 
['/opt/xchem-fragalysis-2/maxwin/BulkDock/OUTPUTS/openbind_d68ev3c_c2_elabs_1LOTQJ3.sdf', '/opt/xchem-fragalysis-2/maxwin/BulkDock/OUTPUTS/openbind_d68ev3c_c2_elabs_1LSYI5W.sdf']

$$$$
P131646
     RDKit          3D

 27 29  0  0  0  0  0  0  0  0999 V2000
  -13.8958    3.1243    7.0900 C   0  0  0  0  0  0  0  0  0  0  0  0
  -14.5150    1.4315    7.0781 S   0  0  0  0  0  0  0  0  0  0  0  0
  -14.4226    0.9902    8.7600 C   0  0  0  0  0  0  0  0  0  0  0  0
  -13.4411    1.1434    9.7219 C   0  0  0  0  0  0  0  0  0  0  0  0
  -12.0843    1.7585    9.6738 C   0  0  0  0  0  0  0  0  0  0  0  0
  -11.2202    1.1988    8.6230 N   0  0  0  0  0  0  0  0  0  0  0  0
   -9.8565    1.7643    8.7756 C   0  0  0  0  0  0  0  0  0  0  0  0
   -8.8272    1.1965    7.7720 C   0  0  0  0  0  0  0  0  0  0  0  0
   -8.7950   -0.2824    7.8365 N   0  0  0  0  0  0  0  0  0  0  0  0
   -7.7367   -0.8842    7.1491 C   0  0  0  0  0  0  0  0  0  0  0  0
   -7.9135   -1.7814    6.0852 C   0  0  0  0  0  0  0  0  0  0  0  0
   -6.8206   -2.3200    5.3961 C   0  0  0  0  0  0  0  0  0  0  0  0
   -7.0243   -3.0944    4.2067 C   0  0  0  0  0  0  0  0  0  0  0  0
   -7.1655   -3.6853    3.2157 N   0  0  0  0  0  0  0  0  0  0  0  0
   -5.5237   -2.0092    5.7993 C   0  0  0  0  0  0  0  0  0  0  0  0
   -5.3133   -1.1201    6.8588 C   0  0  0  0  0  0  0  0  0  0  0  0
   -3.9222   -0.7064    7.2403 C   0  0  0  0  0  0  0  0  0  0  0  0
   -3.0518   -0.8773    6.2096 F   0  0  0  0  0  0  0  0  0  0  0  0
   -3.8303    0.6089    7.5803 F   0  0  0  0  0  0  0  0  0  0  0  0
   -3.4153   -1.4094    8.2822 F   0  0  0  0  0  0  0  0  0  0  0  0
   -6.4206   -0.5868    7.5307 C   0  0  0  0  0  0  0  0  0  0  0  0
  -10.1438   -0.8625    7.6631 C   0  0  0  0  0  0  0  0  0  0  0  0
  -11.1172   -0.2811    8.7084 C   0  0  0  0  0  0  0  0  0  0  0  0
  -14.0091    0.5554   10.8804 C   0  0  0  0  0  0  0  0  0  0  0  0
  -15.2298    0.0629   10.6777 N   0  0  0  0  0  0  0  0  0  0  0  0
  -15.4513    0.3111    9.3673 N   0  0  0  0  0  0  0  0  0  0  0  0
  -16.7168   -0.0752    8.7894 C   0  0  0  0  0  0  0  0  0  0  0  0
  1  2  1  0
  2  3  1  0
  3  4  2  0
  4  5  1  0
  5  6  1  0
  6  7  1  0
  7  8  1  0
  8  9  1  0
  9 10  1  0
 10 11  2  0
 11 12  1  0
 12 13  1  0
 13 14  3  0
 12 15  2  0
 15 16  1  0
 16 17  1  0
 17 18  1  0
 17 19  1  0
 17 20  1  0
 16 21  2  0
  9 22  1  0
 22 23  1  0
  4 24  1  0
 24 25  2  0
 25 26  1  0
 26 27  1  0
 26  3  1  0
 23  6  1  0
 21 10  1  0
M  END
>  <ref_mols>  (1610) 
B0426a

>  <gnina_score>  (1610) 
5.759

>  <smina_score_min>  (1610) 
-5.161

>  <ref_pdb>  (1610) 
B0426a

>  <inspiration_score>  (1610) 
None

>  <inchikey>  (1610) 
UUGUOFODWFQUBY-UHFFFAOYSA-N

>  <tags>  (1610) 
BulkDock Fragalysis export,openbind_d68ev3c_c2_elabs_scored,openbind_d68ev3c_c2_elabs_scored_4.5plus,openbind_d68ev3c_c2_elabs,openbind_d68ev3c_c2_elabs_scored_5plus,syndirella_product,openbind_d68ev3c_c2_elabs_scored_top80percent,syndirella_placed

>  <smiles>  (1610) 
CSc1c(CN2CCN(c3cc(C#N)cc(C(F)(F)F)c3)CC2)cnn1C

>  <subsites>  (1610) 
None

>  <rmsd(smina/fragmenstein)>  (1610) 
0.474

>  <alias>  (1610) 
None

>  <energy_score>  (1610) 
-57.680561

>  <HIPPO Pose ID>  (1610) 
131646

>  <distance_score>  (1610) 
0.52091

>  <HIPPO Compound ID>  (1610) 
157673

>  <gnina_score_min>  (1610) 
5.693

>  <name>  (1610) 
P131646

>  <exports>  (1610) 
['/opt/xchem-fragalysis-2/maxwin/BulkDock/OUTPUTS/openbind_d68ev3c_c2_elabs_1LOTQJ3.sdf', '/opt/xchem-fragalysis-2/maxwin/BulkDock/OUTPUTS/openbind_d68ev3c_c2_elabs_1LSYI5W.sdf']

$$$$
P131647
     RDKit          3D

 27 29  0  0  0  0  0  0  0  0999 V2000
  -17.4638    1.0791    8.3163 C   0  0  0  0  0  0  0  0  0  0  0  0
  -16.5688   -0.0895    8.6912 C   0  0  0  0  0  0  0  0  0  0  0  0
  -15.3537    0.3356    9.3522 N   0  0  0  0  0  0  0  0  0  0  0  0
  -14.2731    0.9002    8.7492 C   0  0  0  0  0  0  0  0  0  0  0  0
  -13.3771    1.1967    9.7549 C   0  0  0  0  0  0  0  0  0  0  0  0
  -12.0275    1.8220    9.6533 C   0  0  0  0  0  0  0  0  0  0  0  0
  -11.1927    1.2169    8.6001 N   0  0  0  0  0  0  0  0  0  0  0  0
  -11.0485   -0.2524    8.7786 C   0  0  0  0  0  0  0  0  0  0  0  0
  -10.0940   -0.8744    7.7395 C   0  0  0  0  0  0  0  0  0  0  0  0
   -8.7572   -0.2564    7.8407 N   0  0  0  0  0  0  0  0  0  0  0  0
   -7.7092   -0.8725    7.1517 C   0  0  0  0  0  0  0  0  0  0  0  0
   -7.8969   -1.7738    6.0940 C   0  0  0  0  0  0  0  0  0  0  0  0
   -6.8091   -2.3195    5.4033 C   0  0  0  0  0  0  0  0  0  0  0  0
   -7.0199   -3.0946    4.2156 C   0  0  0  0  0  0  0  0  0  0  0  0
   -7.1675   -3.6845    3.2250 N   0  0  0  0  0  0  0  0  0  0  0  0
   -5.5094   -2.0134    5.8020 C   0  0  0  0  0  0  0  0  0  0  0  0
   -5.2910   -1.1189    6.8558 C   0  0  0  0  0  0  0  0  0  0  0  0
   -3.8982   -0.7103    7.2332 C   0  0  0  0  0  0  0  0  0  0  0  0
   -3.3927   -1.4134    8.2758 F   0  0  0  0  0  0  0  0  0  0  0  0
   -3.0321   -0.8881    6.2008 F   0  0  0  0  0  0  0  0  0  0  0  0
   -3.7995    0.6053    7.5700 F   0  0  0  0  0  0  0  0  0  0  0  0
   -6.3923   -0.5744    7.5261 C   0  0  0  0  0  0  0  0  0  0  0  0
   -8.8223    1.2139    7.6833 C   0  0  0  0  0  0  0  0  0  0  0  0
   -9.8388    1.8229    8.6749 C   0  0  0  0  0  0  0  0  0  0  0  0
  -14.0394    0.7803   10.9457 C   0  0  0  0  0  0  0  0  0  0  0  0
  -13.5522    0.8934   12.3444 C   0  0  0  0  0  0  0  0  0  0  0  0
  -15.2385    0.2417   10.6898 N   0  0  0  0  0  0  0  0  0  0  0  0
  1  2  1  0
  2  3  1  0
  3  4  1  0
  4  5  2  0
  5  6  1  0
  6  7  1  0
  7  8  1  0
  8  9  1  0
  9 10  1  0
 10 11  1  0
 11 12  2  0
 12 13  1  0
 13 14  1  0
 14 15  3  0
 13 16  2  0
 16 17  1  0
 17 18  1  0
 18 19  1  0
 18 20  1  0
 18 21  1  0
 17 22  2  0
 10 23  1  0
 23 24  1  0
  5 25  1  0
 25 26  1  0
 25 27  2  0
 27  3  1  0
 24  7  1  0
 22 11  1  0
M  END
>  <ref_mols>  (1611) 
B0426a

>  <gnina_score>  (1611) 
5.816

>  <smina_score_min>  (1611) 
-5.752

>  <ref_pdb>  (1611) 
B0426a

>  <inspiration_score>  (1611) 
None

>  <inchikey>  (1611) 
DPQZRHFXRSOCLW-UHFFFAOYSA-N

>  <tags>  (1611) 
BulkDock Fragalysis export,openbind_d68ev3c_c2_elabs_scored,openbind_d68ev3c_c2_elabs_scored_4.5plus,openbind_d68ev3c_c2_elabs,openbind_d68ev3c_c2_elabs_scored_5plus,syndirella_product,openbind_d68ev3c_c2_elabs_scored_top80percent,syndirella_placed

>  <smiles>  (1611) 
CCn1cc(CN2CCN(c3cc(C#N)cc(C(F)(F)F)c3)CC2)c(C)n1

>  <subsites>  (1611) 
None

>  <rmsd(smina/fragmenstein)>  (1611) 
0.962

>  <alias>  (1611) 
None

>  <energy_score>  (1611) 
-29.087349

>  <HIPPO Pose ID>  (1611) 
131647

>  <distance_score>  (1611) 
0.549265

>  <HIPPO Compound ID>  (1611) 
157674

>  <gnina_score_min>  (1611) 
5.98

>  <name>  (1611) 
P131647

>  <exports>  (1611) 
['/opt/xchem-fragalysis-2/maxwin/BulkDock/OUTPUTS/openbind_d68ev3c_c2_elabs_1LOTQJ3.sdf', '/opt/xchem-fragalysis-2/maxwin/BulkDock/OUTPUTS/openbind_d68ev3c_c2_elabs_1LSYI5W.sdf']

$$$$
P131648
     RDKit          3D

 27 29  0  0  0  0  0  0  0  0999 V2000
  -16.6616   -0.1094    8.8776 C   0  0  0  0  0  0  0  0  0  0  0  0
  -15.3856    0.2731    9.4284 N   0  0  0  0  0  0  0  0  0  0  0  0
  -14.3800    0.8963    8.7513 C   0  0  0  0  0  0  0  0  0  0  0  0
  -13.4017    1.1850    9.6873 C   0  0  0  0  0  0  0  0  0  0  0  0
  -12.0979    1.8859    9.5103 C   0  0  2  0  0  0  0  0  0  0  0  0
  -12.3491    3.2037    9.0494 O   0  0  0  0  0  0  0  0  0  0  0  0
  -11.2287    1.2455    8.5177 N   0  0  0  0  0  0  0  0  0  0  0  0
  -11.0950   -0.2225    8.7256 C   0  0  0  0  0  0  0  0  0  0  0  0
  -10.1171   -0.8624    7.7169 C   0  0  0  0  0  0  0  0  0  0  0  0
   -8.7775   -0.2578    7.8433 N   0  0  0  0  0  0  0  0  0  0  0  0
   -7.7243   -0.8787    7.1620 C   0  0  0  0  0  0  0  0  0  0  0  0
   -7.9077   -1.7817    6.1044 C   0  0  0  0  0  0  0  0  0  0  0  0
   -6.8176   -2.3240    5.4138 C   0  0  0  0  0  0  0  0  0  0  0  0
   -7.0263   -3.0956    4.2234 C   0  0  0  0  0  0  0  0  0  0  0  0
   -7.1753   -3.6803    3.2299 N   0  0  0  0  0  0  0  0  0  0  0  0
   -5.5190   -2.0148    5.8127 C   0  0  0  0  0  0  0  0  0  0  0  0
   -5.3036   -1.1209    6.8674 C   0  0  0  0  0  0  0  0  0  0  0  0
   -3.9106   -0.7076    7.2423 C   0  0  0  0  0  0  0  0  0  0  0  0
   -3.0459   -0.8806    6.2074 F   0  0  0  0  0  0  0  0  0  0  0  0
   -3.8166    0.6079    7.5800 F   0  0  0  0  0  0  0  0  0  0  0  0
   -3.4001   -1.4102    8.2824 F   0  0  0  0  0  0  0  0  0  0  0  0
   -6.4073   -0.5803    7.5385 C   0  0  0  0  0  0  0  0  0  0  0  0
   -8.8197    1.2131    7.6925 C   0  0  0  0  0  0  0  0  0  0  0  0
   -9.8620    1.8308    8.6501 C   0  0  0  0  0  0  0  0  0  0  0  0
  -13.9396    0.6853   10.8965 C   0  0  0  0  0  0  0  0  0  0  0  0
  -13.2304    0.7690   12.4354 Cl  0  0  0  0  0  0  0  0  0  0  0  0
  -15.1342    0.1096   10.7392 N   0  0  0  0  0  0  0  0  0  0  0  0
  1  2  1  0
  2  3  1  0
  3  4  2  0
  4  5  1  0
  5  6  1  6
  5  7  1  0
  7  8  1  0
  8  9  1  0
  9 10  1  0
 10 11  1  0
 11 12  2  0
 12 13  1  0
 13 14  1  0
 14 15  3  0
 13 16  2  0
 16 17  1  0
 17 18  1  0
 18 19  1  0
 18 20  1  0
 18 21  1  0
 17 22  2  0
 10 23  1  0
 23 24  1  0
  4 25  1  0
 25 26  1  0
 25 27  2  0
 27  2  1  0
 24  7  1  0
 22 11  1  0
M  END
>  <ref_mols>  (1612) 
B0426a

>  <gnina_score>  (1612) 
5.727

>  <smina_score_min>  (1612) 
-5.735

>  <ref_pdb>  (1612) 
B0426a

>  <inspiration_score>  (1612) 
None

>  <inchikey>  (1612) 
OEABWPWSSXGZEC-INIZCTEOSA-N

>  <tags>  (1612) 
BulkDock Fragalysis export,openbind_d68ev3c_c2_elabs_scored,openbind_d68ev3c_c2_elabs_scored_4.5plus,openbind_d68ev3c_c2_elabs,openbind_d68ev3c_c2_elabs_scored_5plus,syndirella_product,openbind_d68ev3c_c2_elabs_scored_top80percent,syndirella_placed

>  <smiles>  (1612) 
Cn1cc([C@H](O)N2CCN(c3cc(C#N)cc(C(F)(F)F)c3)CC2)c(Cl)n1

>  <subsites>  (1612) 
None

>  <rmsd(smina/fragmenstein)>  (1612) 
0.466

>  <alias>  (1612) 
None

>  <energy_score>  (1612) 
-61.071524

>  <HIPPO Pose ID>  (1612) 
131648

>  <distance_score>  (1612) 
0.505489

>  <HIPPO Compound ID>  (1612) 
157675

>  <gnina_score_min>  (1612) 
5.798

>  <name>  (1612) 
P131648

>  <exports>  (1612) 
['/opt/xchem-fragalysis-2/maxwin/BulkDock/OUTPUTS/openbind_d68ev3c_c2_elabs_1LOTQJ3.sdf', '/opt/xchem-fragalysis-2/maxwin/BulkDock/OUTPUTS/openbind_d68ev3c_c2_elabs_1LSYI5W.sdf']

$$$$
P131650
     RDKit          3D

 27 29  0  0  0  0  0  0  0  0999 V2000
  -12.4807    2.0345    9.2789 C   0  0  0  0  0  0  0  0  0  0  0  0
  -11.3510    1.4682    8.5492 N   0  0  0  0  0  0  0  0  0  0  0  0
  -10.1068    1.5853    9.3373 C   0  0  0  0  0  0  0  0  0  0  0  0
   -8.8845    0.9707    8.6192 C   0  0  0  0  0  0  0  0  0  0  0  0
   -9.1129   -0.4367    8.2251 N   0  0  0  0  0  0  0  0  0  0  0  0
   -8.0353   -1.1373    7.6522 C   0  0  0  0  0  0  0  0  0  0  0  0
   -8.2197   -2.4201    7.1263 C   0  0  0  0  0  0  0  0  0  0  0  0
   -7.2527   -3.0205    6.3305 C   0  0  0  0  0  0  0  0  0  0  0  0
   -6.0482   -2.3673    6.0654 C   0  0  0  0  0  0  0  0  0  0  0  0
   -5.4111   -2.6835    4.8337 N   0  0  0  0  0  0  0  0  0  0  0  0
   -6.2434   -2.1424    3.7280 C   0  0  0  0  0  0  0  0  0  0  0  0
   -6.8533   -3.1300    2.7899 C   0  0  0  0  0  0  0  0  0  0  0  0
   -8.2153   -3.2141    2.4160 C   0  0  0  0  0  0  0  0  0  0  0  0
   -8.4422   -4.1799    1.5209 N   0  0  0  0  0  0  0  0  0  0  0  0
   -7.2115   -4.6505    1.2411 N   0  0  0  0  0  0  0  0  0  0  0  0
   -7.0305   -5.5922    0.1480 C   0  0  0  0  0  0  0  0  0  0  0  0
   -7.3920   -4.9594   -1.1910 C   0  0  0  0  0  0  0  0  0  0  0  0
   -8.8037   -4.8028   -1.3319 O   0  0  0  0  0  0  0  0  0  0  0  0
   -6.2526   -4.1381    2.0610 C   0  0  0  0  0  0  0  0  0  0  0  0
   -5.7105   -1.2398    6.8234 C   0  0  0  0  0  0  0  0  0  0  0  0
   -4.3168   -0.6728    6.8622 C   0  0  0  0  0  0  0  0  0  0  0  0
   -3.6272   -0.8393    5.6934 F   0  0  0  0  0  0  0  0  0  0  0  0
   -4.2770    0.6690    7.1105 F   0  0  0  0  0  0  0  0  0  0  0  0
   -3.5421   -1.2430    7.8282 F   0  0  0  0  0  0  0  0  0  0  0  0
   -6.7237   -0.6333    7.5968 C   0  0  0  0  0  0  0  0  0  0  0  0
  -10.4100   -0.6049    7.5080 C   0  0  0  0  0  0  0  0  0  0  0  0
  -11.5812    0.0335    8.2807 C   0  0  0  0  0  0  0  0  0  0  0  0
  1  2  1  0
  2  3  1  0
  3  4  1  0
  4  5  1  0
  5  6  1  0
  6  7  2  0
  7  8  1  0
  8  9  2  0
  9 10  1  0
 10 11  1  0
 11 12  1  0
 12 13  1  0
 13 14  2  0
 14 15  1  0
 15 16  1  0
 16 17  1  0
 17 18  1  0
 15 19  1  0
  9 20  1  0
 20 21  1  0
 21 22  1  0
 21 23  1  0
 21 24  1  0
 20 25  2  0
  5 26  1  0
 26 27  1  0
 27  2  1  0
 25  6  1  0
 19 12  2  0
M  END
>  <ref_mols>  (1613) 
B0426a

>  <gnina_score>  (1613) 
5.208

>  <smina_score_min>  (1613) 
-5.671

>  <ref_pdb>  (1613) 
B0426a

>  <inspiration_score>  (1613) 
None

>  <inchikey>  (1613) 
XSVIYSHKJKJJLU-UHFFFAOYSA-N

>  <tags>  (1613) 
BulkDock Fragalysis export,openbind_d68ev3c_c2_elabs_scored,openbind_d68ev3c_c2_elabs_scored_4.5plus,openbind_d68ev3c_c2_elabs,openbind_d68ev3c_c2_elabs_scored_5plus,syndirella_product,openbind_d68ev3c_c2_elabs_scored_top80percent,syndirella_placed

>  <smiles>  (1613) 
CN1CCN(c2ccc(NCc3cnn(CCO)c3)c(C(F)(F)F)c2)CC1

>  <subsites>  (1613) 
None

>  <rmsd(smina/fragmenstein)>  (1613) 
0.605

>  <alias>  (1613) 
None

>  <energy_score>  (1613) 
-44.407158

>  <HIPPO Pose ID>  (1613) 
131650

>  <distance_score>  (1613) 
0.580505

>  <HIPPO Compound ID>  (1613) 
157676

>  <gnina_score_min>  (1613) 
5.342

>  <name>  (1613) 
P131650

>  <exports>  (1613) 
['/opt/xchem-fragalysis-2/maxwin/BulkDock/OUTPUTS/openbind_d68ev3c_c2_elabs_1LOTQJ3.sdf', '/opt/xchem-fragalysis-2/maxwin/BulkDock/OUTPUTS/openbind_d68ev3c_c2_elabs_1LSYI5W.sdf']

$$$$
P131651
     RDKit          3D

 27 29  0  0  0  0  0  0  0  0999 V2000
  -16.6310   -0.1448    8.5025 C   0  0  0  0  0  0  0  0  0  0  0  0
  -15.4312    0.2813    9.1841 N   0  0  0  0  0  0  0  0  0  0  0  0
  -15.3163    0.0764   10.5138 N   0  0  0  0  0  0  0  0  0  0  0  0
  -14.1123    0.5679   10.8024 C   0  0  0  0  0  0  0  0  0  0  0  0
  -13.4618    1.1263    9.6790 C   0  0  0  0  0  0  0  0  0  0  0  0
  -12.1054    1.7485    9.6768 C   0  0  0  0  0  0  0  0  0  0  0  0
  -11.2311    1.1924    8.6330 N   0  0  0  0  0  0  0  0  0  0  0  0
  -11.1031   -0.2858    8.7432 C   0  0  0  0  0  0  0  0  0  0  0  0
  -10.1396   -0.8648    7.6893 C   0  0  0  0  0  0  0  0  0  0  0  0
   -8.7939   -0.2702    7.8477 N   0  0  0  0  0  0  0  0  0  0  0  0
   -7.7399   -0.8690    7.1514 C   0  0  0  0  0  0  0  0  0  0  0  0
   -7.9230   -1.7649    6.0871 C   0  0  0  0  0  0  0  0  0  0  0  0
   -6.8342   -2.3062    5.3944 C   0  0  0  0  0  0  0  0  0  0  0  0
   -7.0433   -3.0829    4.2071 C   0  0  0  0  0  0  0  0  0  0  0  0
   -7.1832   -3.6787    3.2185 N   0  0  0  0  0  0  0  0  0  0  0  0
   -5.5352   -1.9987    5.7942 C   0  0  0  0  0  0  0  0  0  0  0  0
   -5.3187   -1.1096    6.8529 C   0  0  0  0  0  0  0  0  0  0  0  0
   -3.9254   -0.7024    7.2326 C   0  0  0  0  0  0  0  0  0  0  0  0
   -3.0569   -0.8784    6.2007 F   0  0  0  0  0  0  0  0  0  0  0  0
   -3.8253    0.6123    7.5723 F   0  0  0  0  0  0  0  0  0  0  0  0
   -3.4201   -1.4083    8.2736 F   0  0  0  0  0  0  0  0  0  0  0  0
   -6.4223   -0.5722    7.5275 C   0  0  0  0  0  0  0  0  0  0  0  0
   -8.8422    1.2081    7.7716 C   0  0  0  0  0  0  0  0  0  0  0  0
   -9.8750    1.7770    8.7737 C   0  0  0  0  0  0  0  0  0  0  0  0
  -14.3635    0.9503    8.6388 C   0  0  0  0  0  0  0  0  0  0  0  0
  -14.2779    1.3449    7.2080 C   0  0  0  0  0  0  0  0  0  0  0  0
  -13.8835   -0.0443    6.1784 Cl  0  0  0  0  0  0  0  0  0  0  0  0
  1  2  1  0
  2  3  1  0
  3  4  2  0
  4  5  1  0
  5  6  1  0
  6  7  1  0
  7  8  1  0
  8  9  1  0
  9 10  1  0
 10 11  1  0
 11 12  2  0
 12 13  1  0
 13 14  1  0
 14 15  3  0
 13 16  2  0
 16 17  1  0
 17 18  1  0
 18 19  1  0
 18 20  1  0
 18 21  1  0
 17 22  2  0
 10 23  1  0
 23 24  1  0
  5 25  2  0
 25 26  1  0
 26 27  1  0
 25  2  1  0
 24  7  1  0
 22 11  1  0
M  END
>  <ref_mols>  (1614) 
B0426a

>  <gnina_score>  (1614) 
5.786

>  <smina_score_min>  (1614) 
-5.206

>  <ref_pdb>  (1614) 
B0426a

>  <inspiration_score>  (1614) 
None

>  <inchikey>  (1614) 
LHBRHPFYDJYCED-UHFFFAOYSA-N

>  <tags>  (1614) 
BulkDock Fragalysis export,openbind_d68ev3c_c2_elabs_scored,openbind_d68ev3c_c2_elabs_scored_4.5plus,openbind_d68ev3c_c2_elabs,openbind_d68ev3c_c2_elabs_scored_5plus,syndirella_product,openbind_d68ev3c_c2_elabs_scored_top80percent,syndirella_placed

>  <smiles>  (1614) 
Cn1ncc(CN2CCN(c3cc(C#N)cc(C(F)(F)F)c3)CC2)c1CCl

>  <subsites>  (1614) 
None

>  <rmsd(smina/fragmenstein)>  (1614) 
0.518

>  <alias>  (1614) 
None

>  <energy_score>  (1614) 
-59.178229

>  <HIPPO Pose ID>  (1614) 
131651

>  <distance_score>  (1614) 
0.537766

>  <HIPPO Compound ID>  (1614) 
157677

>  <gnina_score_min>  (1614) 
5.712

>  <name>  (1614) 
P131651

>  <exports>  (1614) 
['/opt/xchem-fragalysis-2/maxwin/BulkDock/OUTPUTS/openbind_d68ev3c_c2_elabs_1LOTQJ3.sdf', '/opt/xchem-fragalysis-2/maxwin/BulkDock/OUTPUTS/openbind_d68ev3c_c2_elabs_1LSYI5W.sdf']

$$$$
P131652
     RDKit          3D

 27 29  0  0  0  0  0  0  0  0999 V2000
  -13.3189    0.7644   12.2809 C   0  0  0  0  0  0  0  0  0  0  0  0
  -13.9359    0.7100   10.9298 C   0  0  0  0  0  0  0  0  0  0  0  0
  -15.1409    0.1493   10.7661 N   0  0  0  0  0  0  0  0  0  0  0  0
  -15.3963    0.3182    9.4524 N   0  0  0  0  0  0  0  0  0  0  0  0
  -16.6748   -0.0738    8.9156 C   0  0  0  0  0  0  0  0  0  0  0  0
  -14.3919    0.9503    8.7818 C   0  0  0  0  0  0  0  0  0  0  0  0
  -14.3685    1.4014    6.9318 Br  0  0  0  0  0  0  0  0  0  0  0  0
  -13.4007    1.2112    9.7039 C   0  0  0  0  0  0  0  0  0  0  0  0
  -12.0817    1.8871    9.5344 C   0  0  0  0  0  0  0  0  0  0  0  0
  -11.2070    1.2293    8.5509 N   0  0  0  0  0  0  0  0  0  0  0  0
  -11.0547   -0.2273    8.7882 C   0  0  0  0  0  0  0  0  0  0  0  0
  -10.0912   -0.8744    7.7721 C   0  0  0  0  0  0  0  0  0  0  0  0
   -8.7577   -0.2437    7.8542 N   0  0  0  0  0  0  0  0  0  0  0  0
   -7.7129   -0.8665    7.1640 C   0  0  0  0  0  0  0  0  0  0  0  0
   -7.9053   -1.7682    6.1074 C   0  0  0  0  0  0  0  0  0  0  0  0
   -6.8199   -2.3148    5.4137 C   0  0  0  0  0  0  0  0  0  0  0  0
   -7.0341   -3.0877    4.2250 C   0  0  0  0  0  0  0  0  0  0  0  0
   -7.1819   -3.6748    3.2327 N   0  0  0  0  0  0  0  0  0  0  0  0
   -5.5186   -2.0100    5.8089 C   0  0  0  0  0  0  0  0  0  0  0  0
   -5.2961   -1.1146    6.8613 C   0  0  0  0  0  0  0  0  0  0  0  0
   -3.9015   -0.7074    7.2338 C   0  0  0  0  0  0  0  0  0  0  0  0
   -3.7993    0.6079    7.5702 F   0  0  0  0  0  0  0  0  0  0  0  0
   -3.0390   -0.8863    6.1981 F   0  0  0  0  0  0  0  0  0  0  0  0
   -3.3927   -1.4116    8.2741 F   0  0  0  0  0  0  0  0  0  0  0  0
   -6.3949   -0.5679    7.5338 C   0  0  0  0  0  0  0  0  0  0  0  0
   -8.8347    1.2209    7.6514 C   0  0  0  0  0  0  0  0  0  0  0  0
   -9.8632    1.8539    8.6152 C   0  0  0  0  0  0  0  0  0  0  0  0
  1  2  1  0
  2  3  2  0
  3  4  1  0
  4  5  1  0
  4  6  1  0
  6  7  1  0
  6  8  2  0
  8  9  1  0
  9 10  1  0
 10 11  1  0
 11 12  1  0
 12 13  1  0
 13 14  1  0
 14 15  2  0
 15 16  1  0
 16 17  1  0
 17 18  3  0
 16 19  2  0
 19 20  1  0
 20 21  1  0
 21 22  1  0
 21 23  1  0
 21 24  1  0
 20 25  2  0
 13 26  1  0
 26 27  1  0
  8  2  1  0
 27 10  1  0
 25 14  1  0
M  END
>  <ref_mols>  (1615) 
B0426a

>  <gnina_score>  (1615) 
5.9

>  <smina_score_min>  (1615) 
-5.73

>  <ref_pdb>  (1615) 
B0426a

>  <inspiration_score>  (1615) 
None

>  <inchikey>  (1615) 
XOYQWBDHUVOEHB-UHFFFAOYSA-N

>  <tags>  (1615) 
BulkDock Fragalysis export,openbind_d68ev3c_c2_elabs_scored,openbind_d68ev3c_c2_elabs_scored_4.5plus,openbind_d68ev3c_c2_elabs,openbind_d68ev3c_c2_elabs_scored_5plus,syndirella_product,openbind_d68ev3c_c2_elabs_scored_top80percent,syndirella_placed

>  <smiles>  (1615) 
Cc1nn(C)c(Br)c1CN1CCN(c2cc(C#N)cc(C(F)(F)F)c2)CC1

>  <subsites>  (1615) 
None

>  <rmsd(smina/fragmenstein)>  (1615) 
0.445

>  <alias>  (1615) 
None

>  <energy_score>  (1615) 
-43.365676

>  <HIPPO Pose ID>  (1615) 
131652

>  <distance_score>  (1615) 
0.525859

>  <HIPPO Compound ID>  (1615) 
157679

>  <gnina_score_min>  (1615) 
5.876

>  <name>  (1615) 
P131652

>  <exports>  (1615) 
['/opt/xchem-fragalysis-2/maxwin/BulkDock/OUTPUTS/openbind_d68ev3c_c2_elabs_1LOTQJ3.sdf', '/opt/xchem-fragalysis-2/maxwin/BulkDock/OUTPUTS/openbind_d68ev3c_c2_elabs_1LSYI5W.sdf']

$$$$
P131653
     RDKit          3D

 27 29  0  0  0  0  0  0  0  0999 V2000
   -7.1117   -3.7394    3.1929 N   0  0  0  0  0  0  0  0  0  0  0  0
   -6.9977   -3.1677    4.1988 C   0  0  0  0  0  0  0  0  0  0  0  0
   -6.8280   -2.4178    5.4089 C   0  0  0  0  0  0  0  0  0  0  0  0
   -7.9441   -1.9682    6.1278 C   0  0  0  0  0  0  0  0  0  0  0  0
   -7.8311   -1.0701    7.2063 C   0  0  0  0  0  0  0  0  0  0  0  0
   -8.9634   -0.5526    7.8730 N   0  0  0  0  0  0  0  0  0  0  0  0
   -8.7772    0.7122    8.6248 C   0  0  0  0  0  0  0  0  0  0  0  0
  -10.0508    1.2029    9.3413 C   0  0  0  0  0  0  0  0  0  0  0  0
  -11.1608    1.3287    8.3951 N   0  0  0  0  0  0  0  0  0  0  0  0
  -12.2910    2.0920    8.9150 C   0  0  0  0  0  0  0  0  0  0  0  0
  -13.4190    1.2998    9.4716 C   0  0  0  0  0  0  0  0  0  0  0  0
  -13.5322    0.6317   10.7109 C   0  0  0  0  0  0  0  0  0  0  0  0
  -14.7472    0.1055   10.9038 N   0  0  0  0  0  0  0  0  0  0  0  0
  -15.4110    0.4144    9.7731 N   0  0  0  0  0  0  0  0  0  0  0  0
  -16.8391    0.2050    9.6957 C   0  0  0  0  0  0  0  0  0  0  0  0
  -17.3195   -0.3636    8.3652 C   0  0  0  0  0  0  0  0  0  0  0  0
  -18.7474   -0.4335    8.3250 O   0  0  0  0  0  0  0  0  0  0  0  0
  -14.6563    1.1212    8.8870 C   0  0  0  0  0  0  0  0  0  0  0  0
  -11.4627   -0.0113    7.8694 C   0  0  0  0  0  0  0  0  0  0  0  0
  -10.2584   -0.6426    7.1374 C   0  0  0  0  0  0  0  0  0  0  0  0
   -6.5184   -0.7223    7.5805 C   0  0  0  0  0  0  0  0  0  0  0  0
   -5.3828   -1.1746    6.8834 C   0  0  0  0  0  0  0  0  0  0  0  0
   -4.0083   -0.6964    7.2607 C   0  0  0  0  0  0  0  0  0  0  0  0
   -3.9751    0.6197    7.6081 F   0  0  0  0  0  0  0  0  0  0  0  0
   -3.4653   -1.3801    8.2981 F   0  0  0  0  0  0  0  0  0  0  0  0
   -3.1293   -0.8219    6.2284 F   0  0  0  0  0  0  0  0  0  0  0  0
   -5.5491   -2.0414    5.8022 C   0  0  0  0  0  0  0  0  0  0  0  0
  1  2  3  0
  2  3  1  0
  3  4  2  0
  4  5  1  0
  5  6  1  0
  6  7  1  0
  7  8  1  0
  8  9  1  0
  9 10  1  0
 10 11  1  0
 11 12  1  0
 12 13  2  0
 13 14  1  0
 14 15  1  0
 15 16  1  0
 16 17  1  0
 14 18  1  0
  9 19  1  0
 19 20  1  0
  5 21  2  0
 21 22  1  0
 22 23  1  0
 23 24  1  0
 23 25  1  0
 23 26  1  0
 22 27  2  0
 27  3  1  0
 20  6  1  0
 18 11  2  0
M  END
>  <ref_mols>  (1616) 
B0426a

>  <gnina_score>  (1616) 
5.636

>  <smina_score_min>  (1616) 
-5.699

>  <ref_pdb>  (1616) 
B0426a

>  <inspiration_score>  (1616) 
None

>  <inchikey>  (1616) 
KYIWYAHPRMMSND-UHFFFAOYSA-N

>  <tags>  (1616) 
BulkDock Fragalysis export,openbind_d68ev3c_c2_elabs_scored,openbind_d68ev3c_c2_elabs_scored_4.5plus,openbind_d68ev3c_c2_elabs,openbind_d68ev3c_c2_elabs_scored_5plus,syndirella_product,openbind_d68ev3c_c2_elabs_scored_top80percent,syndirella_placed

>  <smiles>  (1616) 
N#Cc1cc(N2CCN(Cc3cnn(CCO)c3)CC2)cc(C(F)(F)F)c1

>  <subsites>  (1616) 
None

>  <rmsd(smina/fragmenstein)>  (1616) 
0.623

>  <alias>  (1616) 
None

>  <energy_score>  (1616) 
-39.380568

>  <HIPPO Pose ID>  (1616) 
131653

>  <distance_score>  (1616) 
0.486325

>  <HIPPO Compound ID>  (1616) 
157681

>  <gnina_score_min>  (1616) 
5.551

>  <name>  (1616) 
P131653

>  <exports>  (1616) 
['/opt/xchem-fragalysis-2/maxwin/BulkDock/OUTPUTS/openbind_d68ev3c_c2_elabs_1LOTQJ3.sdf', '/opt/xchem-fragalysis-2/maxwin/BulkDock/OUTPUTS/openbind_d68ev3c_c2_elabs_1LSYI5W.sdf']

$$$$
P131654
     RDKit          3D

 27 29  0  0  0  0  0  0  0  0999 V2000
  -12.6007    1.9727    9.2171 C   0  0  0  0  0  0  0  0  0  0  0  0
  -11.4348    1.4361    8.5226 N   0  0  0  0  0  0  0  0  0  0  0  0
  -11.6285    0.0017    8.2239 C   0  0  0  0  0  0  0  0  0  0  0  0
  -10.4175   -0.6081    7.4879 C   0  0  0  0  0  0  0  0  0  0  0  0
   -9.1519   -0.4218    8.2497 N   0  0  0  0  0  0  0  0  0  0  0  0
   -8.0320   -1.0845    7.7123 C   0  0  0  0  0  0  0  0  0  0  0  0
   -8.1565   -2.3653    7.1568 C   0  0  0  0  0  0  0  0  0  0  0  0
   -7.1293   -2.9404    6.4173 C   0  0  0  0  0  0  0  0  0  0  0  0
   -5.9290   -2.2493    6.2463 C   0  0  0  0  0  0  0  0  0  0  0  0
   -5.1876   -2.4643    5.0533 N   0  0  0  0  0  0  0  0  0  0  0  0
   -5.8922   -1.7625    3.9651 C   0  0  1  0  0  0  0  0  0  0  0  0
   -4.8768   -1.0308    3.3104 O   0  0  0  0  0  0  0  0  0  0  0  0
   -6.6912   -2.6004    3.0270 C   0  0  0  0  0  0  0  0  0  0  0  0
   -7.8890   -2.3090    2.3948 C   0  0  0  0  0  0  0  0  0  0  0  0
   -8.2716   -3.4433    1.7320 N   0  0  0  0  0  0  0  0  0  0  0  0
   -9.4698   -3.6302    0.9492 C   0  0  0  0  0  0  0  0  0  0  0  0
   -7.4277   -4.4837    1.9271 N   0  0  0  0  0  0  0  0  0  0  0  0
   -6.4558   -3.9182    2.6312 C   0  0  0  0  0  0  0  0  0  0  0  0
   -5.4682   -4.7355    2.9782 O   0  0  0  0  0  0  0  0  0  0  0  0
   -5.6695   -1.1076    7.0104 C   0  0  0  0  0  0  0  0  0  0  0  0
   -4.2910   -0.4986    7.0570 C   0  0  0  0  0  0  0  0  0  0  0  0
   -3.6789   -0.4013    5.8376 F   0  0  0  0  0  0  0  0  0  0  0  0
   -4.2817    0.7780    7.5450 F   0  0  0  0  0  0  0  0  0  0  0  0
   -3.4286   -1.1924    7.8520 F   0  0  0  0  0  0  0  0  0  0  0  0
   -6.7355   -0.5364    7.7266 C   0  0  0  0  0  0  0  0  0  0  0  0
   -8.9676    0.9792    8.6870 C   0  0  0  0  0  0  0  0  0  0  0  0
  -10.2270    1.5591    9.3643 C   0  0  0  0  0  0  0  0  0  0  0  0
  1  2  1  0
  2  3  1  0
  3  4  1  0
  4  5  1  0
  5  6  1  0
  6  7  2  0
  7  8  1  0
  8  9  2  0
  9 10  1  0
 10 11  1  0
 11 12  1  6
 11 13  1  0
 13 14  2  0
 14 15  1  0
 15 16  1  0
 15 17  1  0
 17 18  2  0
 18 19  1  0
  9 20  1  0
 20 21  1  0
 21 22  1  0
 21 23  1  0
 21 24  1  0
 20 25  2  0
  5 26  1  0
 26 27  1  0
 27  2  1  0
 25  6  1  0
 18 13  1  0
M  END
>  <ref_mols>  (1617) 
B0426a

>  <gnina_score>  (1617) 
5.43

>  <smina_score_min>  (1617) 
-6.274

>  <ref_pdb>  (1617) 
B0426a

>  <inspiration_score>  (1617) 
None

>  <inchikey>  (1617) 
MUUJEOQBBZWRTO-HNNXBMFYSA-N

>  <tags>  (1617) 
BulkDock Fragalysis export,openbind_d68ev3c_c2_elabs_scored,openbind_d68ev3c_c2_elabs_scored_4.5plus,openbind_d68ev3c_c2_elabs,openbind_d68ev3c_c2_elabs_scored_5plus,syndirella_product,openbind_d68ev3c_c2_elabs_scored_top80percent,syndirella_placed

>  <smiles>  (1617) 
CN1CCN(c2ccc(N[C@@H](O)c3cn(C)nc3O)c(C(F)(F)F)c2)CC1

>  <subsites>  (1617) 
None

>  <rmsd(smina/fragmenstein)>  (1617) 
0.548

>  <alias>  (1617) 
None

>  <energy_score>  (1617) 
-67.405897

>  <HIPPO Pose ID>  (1617) 
131654

>  <distance_score>  (1617) 
0.433666

>  <HIPPO Compound ID>  (1617) 
157682

>  <gnina_score_min>  (1617) 
5.428

>  <name>  (1617) 
P131654

>  <exports>  (1617) 
['/opt/xchem-fragalysis-2/maxwin/BulkDock/OUTPUTS/openbind_d68ev3c_c2_elabs_1LOTQJ3.sdf', '/opt/xchem-fragalysis-2/maxwin/BulkDock/OUTPUTS/openbind_d68ev3c_c2_elabs_1LSYI5W.sdf']

$$$$
P131655
     RDKit          3D

 27 29  0  0  0  0  0  0  0  0999 V2000
  -14.7119    1.1509   13.1000 C   0  0  0  0  0  0  0  0  0  0  0  0
  -13.6936    0.8182   12.1628 O   0  0  0  0  0  0  0  0  0  0  0  0
  -14.1479    0.7397   10.8950 C   0  0  0  0  0  0  0  0  0  0  0  0
  -15.3483    0.2171   10.6421 N   0  0  0  0  0  0  0  0  0  0  0  0
  -15.4278    0.2894    9.2997 N   0  0  0  0  0  0  0  0  0  0  0  0
  -16.6278   -0.1222    8.6166 C   0  0  0  0  0  0  0  0  0  0  0  0
  -14.3282    0.8439    8.7132 C   0  0  0  0  0  0  0  0  0  0  0  0
  -13.4426    1.1254    9.7354 C   0  0  0  0  0  0  0  0  0  0  0  0
  -12.0816    1.7258    9.6900 C   0  0  0  0  0  0  0  0  0  0  0  0
  -11.2378    1.1726    8.6119 N   0  0  0  0  0  0  0  0  0  0  0  0
  -11.0943   -0.3019    8.7375 C   0  0  0  0  0  0  0  0  0  0  0  0
  -10.1268   -0.8868    7.6896 C   0  0  0  0  0  0  0  0  0  0  0  0
   -8.7892   -0.2772    7.8291 N   0  0  0  0  0  0  0  0  0  0  0  0
   -7.7305   -0.8762    7.1418 C   0  0  0  0  0  0  0  0  0  0  0  0
   -7.9057   -1.7771    6.0808 C   0  0  0  0  0  0  0  0  0  0  0  0
   -6.8119   -2.3168    5.3948 C   0  0  0  0  0  0  0  0  0  0  0  0
   -7.0140   -3.0953    4.2078 C   0  0  0  0  0  0  0  0  0  0  0  0
   -7.1565   -3.6891    3.2188 N   0  0  0  0  0  0  0  0  0  0  0  0
   -5.5161   -2.0042    5.7997 C   0  0  0  0  0  0  0  0  0  0  0  0
   -5.3078   -1.1102    6.8559 C   0  0  0  0  0  0  0  0  0  0  0  0
   -3.9174   -0.6986    7.2409 C   0  0  0  0  0  0  0  0  0  0  0  0
   -3.8221    0.6175    7.5759 F   0  0  0  0  0  0  0  0  0  0  0  0
   -3.0441   -0.8771    6.2140 F   0  0  0  0  0  0  0  0  0  0  0  0
   -3.4165   -1.3995    8.2872 F   0  0  0  0  0  0  0  0  0  0  0  0
   -6.4161   -0.5725    7.5224 C   0  0  0  0  0  0  0  0  0  0  0  0
   -8.8490    1.1992    7.7350 C   0  0  0  0  0  0  0  0  0  0  0  0
   -9.8818    1.7704    8.7341 C   0  0  0  0  0  0  0  0  0  0  0  0
  1  2  1  0
  2  3  1  0
  3  4  2  0
  4  5  1  0
  5  6  1  0
  5  7  1  0
  7  8  2  0
  8  9  1  0
  9 10  1  0
 10 11  1  0
 11 12  1  0
 12 13  1  0
 13 14  1  0
 14 15  2  0
 15 16  1  0
 16 17  1  0
 17 18  3  0
 16 19  2  0
 19 20  1  0
 20 21  1  0
 21 22  1  0
 21 23  1  0
 21 24  1  0
 20 25  2  0
 13 26  1  0
 26 27  1  0
  8  3  1  0
 27 10  1  0
 25 14  1  0
M  END
>  <ref_mols>  (1618) 
B0426a

>  <gnina_score>  (1618) 
5.715

>  <smina_score_min>  (1618) 
-5.581

>  <ref_pdb>  (1618) 
B0426a

>  <inspiration_score>  (1618) 
None

>  <inchikey>  (1618) 
OTJDQPSXNJXCNZ-UHFFFAOYSA-N

>  <tags>  (1618) 
BulkDock Fragalysis export,openbind_d68ev3c_c2_elabs_scored,openbind_d68ev3c_c2_elabs_scored_4.5plus,openbind_d68ev3c_c2_elabs,openbind_d68ev3c_c2_elabs_scored_5plus,syndirella_product,openbind_d68ev3c_c2_elabs_scored_top80percent,syndirella_placed

>  <smiles>  (1618) 
COc1nn(C)cc1CN1CCN(c2cc(C#N)cc(C(F)(F)F)c2)CC1

>  <subsites>  (1618) 
None

>  <rmsd(smina/fragmenstein)>  (1618) 
0.669

>  <alias>  (1618) 
None

>  <energy_score>  (1618) 
-43.617078

>  <HIPPO Pose ID>  (1618) 
131655

>  <distance_score>  (1618) 
0.544557

>  <HIPPO Compound ID>  (1618) 
157683

>  <gnina_score_min>  (1618) 
5.736

>  <name>  (1618) 
P131655

>  <exports>  (1618) 
['/opt/xchem-fragalysis-2/maxwin/BulkDock/OUTPUTS/openbind_d68ev3c_c2_elabs_1LOTQJ3.sdf', '/opt/xchem-fragalysis-2/maxwin/BulkDock/OUTPUTS/openbind_d68ev3c_c2_elabs_1LSYI5W.sdf']

$$$$
P131656
     RDKit          3D

 27 29  0  0  0  0  0  0  0  0999 V2000
  -13.7696    1.8318    6.7458 C   0  0  0  0  0  0  0  0  0  0  0  0
  -14.8457    1.4679    7.5950 O   0  0  0  0  0  0  0  0  0  0  0  0
  -14.5388    1.0446    8.8263 C   0  0  0  0  0  0  0  0  0  0  0  0
  -13.4513    1.1497    9.6838 C   0  0  0  0  0  0  0  0  0  0  0  0
  -12.1284    1.8270    9.5566 C   0  0  0  0  0  0  0  0  0  0  0  0
  -11.2345    1.2098    8.5634 N   0  0  0  0  0  0  0  0  0  0  0  0
   -9.8806    1.8026    8.7036 C   0  0  0  0  0  0  0  0  0  0  0  0
   -8.8350    1.2070    7.7329 C   0  0  0  0  0  0  0  0  0  0  0  0
   -8.7879   -0.2681    7.8496 N   0  0  0  0  0  0  0  0  0  0  0  0
   -7.7319   -0.8770    7.1625 C   0  0  0  0  0  0  0  0  0  0  0  0
   -7.9121   -1.7781    6.1024 C   0  0  0  0  0  0  0  0  0  0  0  0
   -6.8210   -2.3176    5.4113 C   0  0  0  0  0  0  0  0  0  0  0  0
   -7.0273   -3.0913    4.2218 C   0  0  0  0  0  0  0  0  0  0  0  0
   -7.1712   -3.6786    3.2291 N   0  0  0  0  0  0  0  0  0  0  0  0
   -5.5233   -2.0061    5.8109 C   0  0  0  0  0  0  0  0  0  0  0  0
   -5.3101   -1.1134    6.8671 C   0  0  0  0  0  0  0  0  0  0  0  0
   -3.9177   -0.7006    7.2445 C   0  0  0  0  0  0  0  0  0  0  0  0
   -3.0500   -0.8760    6.2122 F   0  0  0  0  0  0  0  0  0  0  0  0
   -3.8231    0.6154    7.5803 F   0  0  0  0  0  0  0  0  0  0  0  0
   -3.4099   -1.4017    8.2871 F   0  0  0  0  0  0  0  0  0  0  0  0
   -6.4154   -0.5760    7.5390 C   0  0  0  0  0  0  0  0  0  0  0  0
  -10.1286   -0.8727    7.7063 C   0  0  0  0  0  0  0  0  0  0  0  0
  -11.1110   -0.2608    8.7266 C   0  0  0  0  0  0  0  0  0  0  0  0
  -13.8740    0.4797   10.8628 C   0  0  0  0  0  0  0  0  0  0  0  0
  -15.1066   -0.0139   10.7768 N   0  0  0  0  0  0  0  0  0  0  0  0
  -15.4846    0.3354    9.5322 N   0  0  0  0  0  0  0  0  0  0  0  0
  -16.8076   -0.0003    9.0663 C   0  0  0  0  0  0  0  0  0  0  0  0
  1  2  1  0
  2  3  1  0
  3  4  2  0
  4  5  1  0
  5  6  1  0
  6  7  1  0
  7  8  1  0
  8  9  1  0
  9 10  1  0
 10 11  2  0
 11 12  1  0
 12 13  1  0
 13 14  3  0
 12 15  2  0
 15 16  1  0
 16 17  1  0
 17 18  1  0
 17 19  1  0
 17 20  1  0
 16 21  2  0
  9 22  1  0
 22 23  1  0
  4 24  1  0
 24 25  2  0
 25 26  1  0
 26 27  1  0
 26  3  1  0
 23  6  1  0
 21 10  1  0
M  END
>  <ref_mols>  (1619) 
B0426a

>  <gnina_score>  (1619) 
5.671

>  <smina_score_min>  (1619) 
-5.246

>  <ref_pdb>  (1619) 
B0426a

>  <inspiration_score>  (1619) 
None

>  <inchikey>  (1619) 
WHDWPFFBMOCJEP-UHFFFAOYSA-N

>  <tags>  (1619) 
BulkDock Fragalysis export,openbind_d68ev3c_c2_elabs_scored,openbind_d68ev3c_c2_elabs_scored_4.5plus,openbind_d68ev3c_c2_elabs,openbind_d68ev3c_c2_elabs_scored_5plus,syndirella_product,openbind_d68ev3c_c2_elabs_scored_top80percent,syndirella_placed

>  <smiles>  (1619) 
COc1c(CN2CCN(c3cc(C#N)cc(C(F)(F)F)c3)CC2)cnn1C

>  <subsites>  (1619) 
None

>  <rmsd(smina/fragmenstein)>  (1619) 
0.457

>  <alias>  (1619) 
None

>  <energy_score>  (1619) 
-50.722731

>  <HIPPO Pose ID>  (1619) 
131656

>  <distance_score>  (1619) 
0.502856

>  <HIPPO Compound ID>  (1619) 
157685

>  <gnina_score_min>  (1619) 
5.644

>  <name>  (1619) 
P131656

>  <exports>  (1619) 
['/opt/xchem-fragalysis-2/maxwin/BulkDock/OUTPUTS/openbind_d68ev3c_c2_elabs_1LOTQJ3.sdf', '/opt/xchem-fragalysis-2/maxwin/BulkDock/OUTPUTS/openbind_d68ev3c_c2_elabs_1LSYI5W.sdf']

$$$$
P131657
     RDKit          3D

 27 29  0  0  0  0  0  0  0  0999 V2000
  -13.6470    2.4088   12.8812 C   0  0  0  0  0  0  0  0  0  0  0  0
  -13.5868    0.9680   12.3976 C   0  0  0  0  0  0  0  0  0  0  0  0
  -14.0631    0.8078   10.9895 C   0  0  0  0  0  0  0  0  0  0  0  0
  -15.2619    0.2580   10.7515 N   0  0  0  0  0  0  0  0  0  0  0  0
  -15.3811    0.3114    9.4136 N   0  0  0  0  0  0  0  0  0  0  0  0
  -16.6043   -0.1007    8.7738 C   0  0  0  0  0  0  0  0  0  0  0  0
  -14.3057    0.8632    8.7903 C   0  0  0  0  0  0  0  0  0  0  0  0
  -13.4015    1.1844    9.7823 C   0  0  0  0  0  0  0  0  0  0  0  0
  -12.0535    1.8133    9.6570 C   0  0  0  0  0  0  0  0  0  0  0  0
  -11.2236    1.2104    8.5977 N   0  0  0  0  0  0  0  0  0  0  0  0
   -9.8715    1.8252    8.6649 C   0  0  0  0  0  0  0  0  0  0  0  0
   -8.8510    1.2187    7.6751 C   0  0  0  0  0  0  0  0  0  0  0  0
   -8.7774   -0.2506    7.8368 N   0  0  0  0  0  0  0  0  0  0  0  0
   -7.7266   -0.8639    7.1490 C   0  0  0  0  0  0  0  0  0  0  0  0
   -7.9115   -1.7667    6.0919 C   0  0  0  0  0  0  0  0  0  0  0  0
   -6.8220   -2.3122    5.4034 C   0  0  0  0  0  0  0  0  0  0  0  0
   -7.0304   -3.0890    4.2164 C   0  0  0  0  0  0  0  0  0  0  0  0
   -7.1762   -3.6803    3.2263 N   0  0  0  0  0  0  0  0  0  0  0  0
   -5.5231   -2.0047    5.8037 C   0  0  0  0  0  0  0  0  0  0  0  0
   -5.3068   -1.1083    6.8564 C   0  0  0  0  0  0  0  0  0  0  0  0
   -3.9137   -0.7008    7.2355 C   0  0  0  0  0  0  0  0  0  0  0  0
   -3.8134    0.6148    7.5712 F   0  0  0  0  0  0  0  0  0  0  0  0
   -3.4106   -1.4038    8.2794 F   0  0  0  0  0  0  0  0  0  0  0  0
   -3.0454   -0.8810    6.2048 F   0  0  0  0  0  0  0  0  0  0  0  0
   -6.4102   -0.5629    7.5238 C   0  0  0  0  0  0  0  0  0  0  0  0
  -10.1115   -0.8752    7.7389 C   0  0  0  0  0  0  0  0  0  0  0  0
  -11.0680   -0.2569    8.7792 C   0  0  0  0  0  0  0  0  0  0  0  0
  1  2  1  0
  2  3  1  0
  3  4  2  0
  4  5  1  0
  5  6  1  0
  5  7  1  0
  7  8  2  0
  8  9  1  0
  9 10  1  0
 10 11  1  0
 11 12  1  0
 12 13  1  0
 13 14  1  0
 14 15  2  0
 15 16  1  0
 16 17  1  0
 17 18  3  0
 16 19  2  0
 19 20  1  0
 20 21  1  0
 21 22  1  0
 21 23  1  0
 21 24  1  0
 20 25  2  0
 13 26  1  0
 26 27  1  0
  8  3  1  0
 27 10  1  0
 25 14  1  0
M  END
>  <ref_mols>  (1620) 
B0426a

>  <gnina_score>  (1620) 
5.81

>  <smina_score_min>  (1620) 
-5.835

>  <ref_pdb>  (1620) 
B0426a

>  <inspiration_score>  (1620) 
None

>  <inchikey>  (1620) 
NYVKVXDMPLMGGT-UHFFFAOYSA-N

>  <tags>  (1620) 
BulkDock Fragalysis export,openbind_d68ev3c_c2_elabs_scored,openbind_d68ev3c_c2_elabs_scored_4.5plus,openbind_d68ev3c_c2_elabs,openbind_d68ev3c_c2_elabs_scored_5plus,syndirella_product,openbind_d68ev3c_c2_elabs_scored_top80percent,syndirella_placed

>  <smiles>  (1620) 
CCc1nn(C)cc1CN1CCN(c2cc(C#N)cc(C(F)(F)F)c2)CC1

>  <subsites>  (1620) 
None

>  <rmsd(smina/fragmenstein)>  (1620) 
0.603

>  <alias>  (1620) 
None

>  <energy_score>  (1620) 
-56.401062

>  <HIPPO Pose ID>  (1620) 
131657

>  <distance_score>  (1620) 
0.547677

>  <HIPPO Compound ID>  (1620) 
157687

>  <gnina_score_min>  (1620) 
5.933

>  <name>  (1620) 
P131657

>  <exports>  (1620) 
['/opt/xchem-fragalysis-2/maxwin/BulkDock/OUTPUTS/openbind_d68ev3c_c2_elabs_1LOTQJ3.sdf', '/opt/xchem-fragalysis-2/maxwin/BulkDock/OUTPUTS/openbind_d68ev3c_c2_elabs_1LSYI5W.sdf']

$$$$
P131658
     RDKit          3D

 27 29  0  0  0  0  0  0  0  0999 V2000
   -9.8973   -1.1173    2.5852 C   0  0  0  0  0  0  0  0  0  0  0  0
   -9.5393   -2.4112    3.2999 C   0  0  0  0  0  0  0  0  0  0  0  0
   -8.4151   -3.1337    2.6321 C   0  0  0  0  0  0  0  0  0  0  0  0
   -8.6908   -4.0852    1.7283 N   0  0  0  0  0  0  0  0  0  0  0  0
   -7.4932   -4.4437    1.2514 N   0  0  0  0  0  0  0  0  0  0  0  0
   -7.4169   -5.3295    0.1172 C   0  0  0  0  0  0  0  0  0  0  0  0
   -6.4604   -3.9089    1.9529 C   0  0  0  0  0  0  0  0  0  0  0  0
   -7.0084   -2.9826    2.8201 C   0  0  0  0  0  0  0  0  0  0  0  0
   -6.2943   -2.0142    3.7095 C   0  0  0  0  0  0  0  0  0  0  0  0
   -5.4563   -2.5828    4.7978 N   0  0  0  0  0  0  0  0  0  0  0  0
   -6.0317   -2.2300    6.0494 C   0  0  0  0  0  0  0  0  0  0  0  0
   -7.2630   -2.8105    6.3564 C   0  0  0  0  0  0  0  0  0  0  0  0
   -8.1620   -2.1537    7.1889 C   0  0  0  0  0  0  0  0  0  0  0  0
   -7.8651   -0.8955    7.7275 C   0  0  0  0  0  0  0  0  0  0  0  0
   -8.8214   -0.0832    8.3748 N   0  0  0  0  0  0  0  0  0  0  0  0
  -10.1568   -0.7035    8.5247 C   0  0  0  0  0  0  0  0  0  0  0  0
  -11.1813    0.2056    9.2183 C   0  0  0  0  0  0  0  0  0  0  0  0
  -11.2928    1.5204    8.5561 N   0  0  0  0  0  0  0  0  0  0  0  0
  -12.2820    2.3475    9.2361 C   0  0  0  0  0  0  0  0  0  0  0  0
   -9.9563    2.1488    8.5856 C   0  0  0  0  0  0  0  0  0  0  0  0
   -8.8897    1.3019    7.8497 C   0  0  0  0  0  0  0  0  0  0  0  0
   -6.5360   -0.4681    7.6178 C   0  0  0  0  0  0  0  0  0  0  0  0
   -5.5984   -1.1288    6.8009 C   0  0  0  0  0  0  0  0  0  0  0  0
   -4.1794   -0.6382    6.7957 C   0  0  0  0  0  0  0  0  0  0  0  0
   -3.4042   -1.2374    7.7412 F   0  0  0  0  0  0  0  0  0  0  0  0
   -3.5386   -0.8444    5.6065 F   0  0  0  0  0  0  0  0  0  0  0  0
   -4.0675    0.7028    7.0298 F   0  0  0  0  0  0  0  0  0  0  0  0
  1  2  1  0
  2  3  1  0
  3  4  2  0
  4  5  1  0
  5  6  1  0
  5  7  1  0
  7  8  2  0
  8  9  1  0
  9 10  1  0
 10 11  1  0
 11 12  2  0
 12 13  1  0
 13 14  2  0
 14 15  1  0
 15 16  1  0
 16 17  1  0
 17 18  1  0
 18 19  1  0
 18 20  1  0
 20 21  1  0
 14 22  1  0
 22 23  2  0
 23 24  1  0
 24 25  1  0
 24 26  1  0
 24 27  1  0
  8  3  1  0
 23 11  1  0
 21 15  1  0
M  END
>  <ref_mols>  (1621) 
B0426a

>  <gnina_score>  (1621) 
5.397

>  <smina_score_min>  (1621) 
-5.719

>  <ref_pdb>  (1621) 
B0426a

>  <inspiration_score>  (1621) 
None

>  <inchikey>  (1621) 
SZMZZWQLZJCEMZ-UHFFFAOYSA-N

>  <tags>  (1621) 
BulkDock Fragalysis export,openbind_d68ev3c_c2_elabs_scored,openbind_d68ev3c_c2_elabs_scored_4.5plus,openbind_d68ev3c_c2_elabs,openbind_d68ev3c_c2_elabs_scored_5plus,syndirella_product,openbind_d68ev3c_c2_elabs_scored_top80percent,syndirella_placed

>  <smiles>  (1621) 
CCc1nn(C)cc1CNc1ccc(N2CCN(C)CC2)cc1C(F)(F)F

>  <subsites>  (1621) 
None

>  <rmsd(smina/fragmenstein)>  (1621) 
0.756

>  <alias>  (1621) 
None

>  <energy_score>  (1621) 
-31.160232

>  <HIPPO Pose ID>  (1621) 
131658

>  <distance_score>  (1621) 
0.943391

>  <HIPPO Compound ID>  (1621) 
157688

>  <gnina_score_min>  (1621) 
5.32

>  <name>  (1621) 
P131658

>  <exports>  (1621) 
['/opt/xchem-fragalysis-2/maxwin/BulkDock/OUTPUTS/openbind_d68ev3c_c2_elabs_1LOTQJ3.sdf', '/opt/xchem-fragalysis-2/maxwin/BulkDock/OUTPUTS/openbind_d68ev3c_c2_elabs_1LSYI5W.sdf']

$$$$
P131659
     RDKit          3D

 27 29  0  0  0  0  0  0  0  0999 V2000
  -16.7037   -0.0849    8.9854 C   0  0  0  0  0  0  0  0  0  0  0  0
  -15.4080    0.2769    9.5022 N   0  0  0  0  0  0  0  0  0  0  0  0
  -14.4132    0.9014    8.8013 C   0  0  0  0  0  0  0  0  0  0  0  0
  -13.4016    1.1670    9.7085 C   0  0  0  0  0  0  0  0  0  0  0  0
  -12.0989    1.8654    9.5345 C   0  0  2  0  0  0  0  0  0  0  0  0
  -12.3448    3.1912    9.0895 O   0  0  0  0  0  0  0  0  0  0  0  0
  -11.2320    1.2375    8.5306 N   0  0  0  0  0  0  0  0  0  0  0  0
   -9.8643    1.8154    8.6765 C   0  0  0  0  0  0  0  0  0  0  0  0
   -8.8216    1.2074    7.7137 C   0  0  0  0  0  0  0  0  0  0  0  0
   -8.7833   -0.2658    7.8445 N   0  0  0  0  0  0  0  0  0  0  0  0
   -7.7289   -0.8824    7.1616 C   0  0  0  0  0  0  0  0  0  0  0  0
   -7.9110   -1.7839    6.1025 C   0  0  0  0  0  0  0  0  0  0  0  0
   -6.8203   -2.3238    5.4109 C   0  0  0  0  0  0  0  0  0  0  0  0
   -7.0281   -3.0953    4.2203 C   0  0  0  0  0  0  0  0  0  0  0  0
   -7.1756   -3.6810    3.2272 N   0  0  0  0  0  0  0  0  0  0  0  0
   -5.5220   -2.0134    5.8099 C   0  0  0  0  0  0  0  0  0  0  0  0
   -5.3074   -1.1212    6.8661 C   0  0  0  0  0  0  0  0  0  0  0  0
   -3.9149   -0.7072    7.2417 C   0  0  0  0  0  0  0  0  0  0  0  0
   -3.4043   -1.4101    8.2819 F   0  0  0  0  0  0  0  0  0  0  0  0
   -3.8212    0.6082    7.5801 F   0  0  0  0  0  0  0  0  0  0  0  0
   -3.0492   -0.8795    6.2074 F   0  0  0  0  0  0  0  0  0  0  0  0
   -6.4120   -0.5836    7.5385 C   0  0  0  0  0  0  0  0  0  0  0  0
  -10.1257   -0.8637    7.7076 C   0  0  0  0  0  0  0  0  0  0  0  0
  -11.1055   -0.2329    8.7203 C   0  0  0  0  0  0  0  0  0  0  0  0
  -13.9149    0.6455   10.9023 C   0  0  0  0  0  0  0  0  0  0  0  0
  -13.3804    0.6382   12.1196 O   0  0  0  0  0  0  0  0  0  0  0  0
  -15.1173    0.0965   10.8090 N   0  0  0  0  0  0  0  0  0  0  0  0
  1  2  1  0
  2  3  1  0
  3  4  2  0
  4  5  1  0
  5  6  1  6
  5  7  1  0
  7  8  1  0
  8  9  1  0
  9 10  1  0
 10 11  1  0
 11 12  2  0
 12 13  1  0
 13 14  1  0
 14 15  3  0
 13 16  2  0
 16 17  1  0
 17 18  1  0
 18 19  1  0
 18 20  1  0
 18 21  1  0
 17 22  2  0
 10 23  1  0
 23 24  1  0
  4 25  1  0
 25 26  1  0
 25 27  2  0
 27  2  1  0
 24  7  1  0
 22 11  1  0
M  END
>  <ref_mols>  (1622) 
B0426a

>  <gnina_score>  (1622) 
5.456

>  <smina_score_min>  (1622) 
-5.73

>  <ref_pdb>  (1622) 
B0426a

>  <inspiration_score>  (1622) 
None

>  <inchikey>  (1622) 
HAMIUFTYTQJFOT-INIZCTEOSA-N

>  <tags>  (1622) 
BulkDock Fragalysis export,openbind_d68ev3c_c2_elabs_scored,openbind_d68ev3c_c2_elabs_scored_4.5plus,openbind_d68ev3c_c2_elabs,openbind_d68ev3c_c2_elabs_scored_5plus,syndirella_product,openbind_d68ev3c_c2_elabs_scored_top80percent,syndirella_placed

>  <smiles>  (1622) 
Cn1cc([C@H](O)N2CCN(c3cc(C#N)cc(C(F)(F)F)c3)CC2)c(O)n1

>  <subsites>  (1622) 
None

>  <rmsd(smina/fragmenstein)>  (1622) 
0.521

>  <alias>  (1622) 
None

>  <energy_score>  (1622) 
-67.74403

>  <HIPPO Pose ID>  (1622) 
131659

>  <distance_score>  (1622) 
0.500155

>  <HIPPO Compound ID>  (1622) 
157689

>  <gnina_score_min>  (1622) 
5.466

>  <name>  (1622) 
P131659

>  <exports>  (1622) 
['/opt/xchem-fragalysis-2/maxwin/BulkDock/OUTPUTS/openbind_d68ev3c_c2_elabs_1LOTQJ3.sdf', '/opt/xchem-fragalysis-2/maxwin/BulkDock/OUTPUTS/openbind_d68ev3c_c2_elabs_1LSYI5W.sdf']

$$$$
P131661
     RDKit          3D

 27 29  0  0  0  0  0  0  0  0999 V2000
  -17.9582   -0.0287    9.2792 C   0  0  0  0  0  0  0  0  0  0  0  0
  -16.8058    0.3020    8.6793 C   0  0  0  0  0  0  0  0  0  0  0  0
  -15.5731    0.4767    9.3286 N   0  0  0  0  0  0  0  0  0  0  0  0
  -15.3462    0.2307   10.6557 N   0  0  0  0  0  0  0  0  0  0  0  0
  -14.0959    0.6204   10.8750 C   0  0  0  0  0  0  0  0  0  0  0  0
  -13.4656    1.1377    9.7303 C   0  0  0  0  0  0  0  0  0  0  0  0
  -12.0918    1.7193    9.6913 C   0  0  0  0  0  0  0  0  0  0  0  0
  -11.2400    1.1675    8.6270 N   0  0  0  0  0  0  0  0  0  0  0  0
  -11.1346   -0.3118    8.7054 C   0  0  0  0  0  0  0  0  0  0  0  0
  -10.1600   -0.8871    7.6562 C   0  0  0  0  0  0  0  0  0  0  0  0
   -8.8112   -0.3021    7.8287 N   0  0  0  0  0  0  0  0  0  0  0  0
   -7.7505   -0.8982    7.1408 C   0  0  0  0  0  0  0  0  0  0  0  0
   -7.9240   -1.7937    6.0752 C   0  0  0  0  0  0  0  0  0  0  0  0
   -6.8289   -2.3265    5.3855 C   0  0  0  0  0  0  0  0  0  0  0  0
   -7.0292   -3.1010    4.1954 C   0  0  0  0  0  0  0  0  0  0  0  0
   -7.1650   -3.6946    3.2050 N   0  0  0  0  0  0  0  0  0  0  0  0
   -5.5330   -2.0118    5.7899 C   0  0  0  0  0  0  0  0  0  0  0  0
   -5.3255   -1.1242    6.8514 C   0  0  0  0  0  0  0  0  0  0  0  0
   -3.9357   -0.7074    7.2347 C   0  0  0  0  0  0  0  0  0  0  0  0
   -3.0640   -0.8733    6.2036 F   0  0  0  0  0  0  0  0  0  0  0  0
   -3.8461    0.6071    7.5784 F   0  0  0  0  0  0  0  0  0  0  0  0
   -3.4260   -1.4123    8.2743 F   0  0  0  0  0  0  0  0  0  0  0  0
   -6.4353   -0.5963    7.5237 C   0  0  0  0  0  0  0  0  0  0  0  0
   -8.8508    1.1763    7.7651 C   0  0  0  0  0  0  0  0  0  0  0  0
   -9.8769    1.7366    8.7747 C   0  0  0  0  0  0  0  0  0  0  0  0
  -14.4212    1.0058    8.7366 C   0  0  0  0  0  0  0  0  0  0  0  0
  -14.3445    1.3680    7.2937 C   0  0  0  0  0  0  0  0  0  0  0  0
  1  2  2  0
  2  3  1  0
  3  4  1  0
  4  5  2  0
  5  6  1  0
  6  7  1  0
  7  8  1  0
  8  9  1  0
  9 10  1  0
 10 11  1  0
 11 12  1  0
 12 13  2  0
 13 14  1  0
 14 15  1  0
 15 16  3  0
 14 17  2  0
 17 18  1  0
 18 19  1  0
 19 20  1  0
 19 21  1  0
 19 22  1  0
 18 23  2  0
 11 24  1  0
 24 25  1  0
  6 26  2  0
 26 27  1  0
 26  3  1  0
 25  8  1  0
 23 12  1  0
M  END
>  <ref_mols>  (1623) 
B0426a

>  <gnina_score>  (1623) 
5.722

>  <smina_score_min>  (1623) 
-5.333

>  <ref_pdb>  (1623) 
B0426a

>  <inspiration_score>  (1623) 
None

>  <inchikey>  (1623) 
UHSLSDDYWQXZFV-UHFFFAOYSA-N

>  <tags>  (1623) 
BulkDock Fragalysis export,openbind_d68ev3c_c2_elabs_scored,openbind_d68ev3c_c2_elabs_scored_4.5plus,openbind_d68ev3c_c2_elabs,openbind_d68ev3c_c2_elabs_scored_5plus,syndirella_product,openbind_d68ev3c_c2_elabs_scored_top80percent,syndirella_placed

>  <smiles>  (1623) 
C=Cn1ncc(CN2CCN(c3cc(C#N)cc(C(F)(F)F)c3)CC2)c1C

>  <subsites>  (1623) 
None

>  <rmsd(smina/fragmenstein)>  (1623) 
0.527

>  <alias>  (1623) 
None

>  <energy_score>  (1623) 
-40.01123

>  <HIPPO Pose ID>  (1623) 
131661

>  <distance_score>  (1623) 
0.550888

>  <HIPPO Compound ID>  (1623) 
157691

>  <gnina_score_min>  (1623) 
5.737

>  <name>  (1623) 
P131661

>  <exports>  (1623) 
['/opt/xchem-fragalysis-2/maxwin/BulkDock/OUTPUTS/openbind_d68ev3c_c2_elabs_1LOTQJ3.sdf', '/opt/xchem-fragalysis-2/maxwin/BulkDock/OUTPUTS/openbind_d68ev3c_c2_elabs_1LSYI5W.sdf']

$$$$
P131662
     RDKit          3D

 27 29  0  0  0  0  0  0  0  0999 V2000
  -16.5996   -0.1625    8.7199 C   0  0  0  0  0  0  0  0  0  0  0  0
  -15.3705    0.2606    9.3421 N   0  0  0  0  0  0  0  0  0  0  0  0
  -14.3020    0.8075    8.6994 C   0  0  0  0  0  0  0  0  0  0  0  0
  -13.4102    1.2049    9.6827 C   0  0  0  0  0  0  0  0  0  0  0  0
  -12.0908    1.8888    9.5213 C   0  0  2  0  0  0  0  0  0  0  0  0
  -12.3227    3.2146    9.0742 O   0  0  0  0  0  0  0  0  0  0  0  0
  -11.2248    1.2428    8.5272 N   0  0  0  0  0  0  0  0  0  0  0  0
   -9.8638    1.8462    8.6321 C   0  0  0  0  0  0  0  0  0  0  0  0
   -8.8251    1.2195    7.6761 C   0  0  0  0  0  0  0  0  0  0  0  0
   -8.7666   -0.2478    7.8545 N   0  0  0  0  0  0  0  0  0  0  0  0
   -7.7181   -0.8706    7.1683 C   0  0  0  0  0  0  0  0  0  0  0  0
   -7.9070   -1.7736    6.1119 C   0  0  0  0  0  0  0  0  0  0  0  0
   -6.8198   -2.3180    5.4184 C   0  0  0  0  0  0  0  0  0  0  0  0
   -7.0325   -3.0898    4.2288 C   0  0  0  0  0  0  0  0  0  0  0  0
   -7.1829   -3.6748    3.2358 N   0  0  0  0  0  0  0  0  0  0  0  0
   -5.5195   -2.0109    5.8140 C   0  0  0  0  0  0  0  0  0  0  0  0
   -5.2995   -1.1160    6.8671 C   0  0  0  0  0  0  0  0  0  0  0  0
   -3.9051   -0.7061    7.2394 C   0  0  0  0  0  0  0  0  0  0  0  0
   -3.8065    0.6094    7.5755 F   0  0  0  0  0  0  0  0  0  0  0  0
   -3.3954   -1.4091    8.2799 F   0  0  0  0  0  0  0  0  0  0  0  0
   -3.0424   -0.8833    6.2037 F   0  0  0  0  0  0  0  0  0  0  0  0
   -6.4001   -0.5719    7.5398 C   0  0  0  0  0  0  0  0  0  0  0  0
  -10.1014   -0.8672    7.7556 C   0  0  0  0  0  0  0  0  0  0  0  0
  -11.0713   -0.2186    8.7659 C   0  0  0  0  0  0  0  0  0  0  0  0
  -14.0742    0.8569   10.8862 C   0  0  0  0  0  0  0  0  0  0  0  0
  -13.4174    1.2721   12.8203 I   0  0  0  0  0  0  0  0  0  0  0  0
  -15.2439    0.2447   10.6793 N   0  0  0  0  0  0  0  0  0  0  0  0
  1  2  1  0
  2  3  1  0
  3  4  2  0
  4  5  1  0
  5  6  1  6
  5  7  1  0
  7  8  1  0
  8  9  1  0
  9 10  1  0
 10 11  1  0
 11 12  2  0
 12 13  1  0
 13 14  1  0
 14 15  3  0
 13 16  2  0
 16 17  1  0
 17 18  1  0
 18 19  1  0
 18 20  1  0
 18 21  1  0
 17 22  2  0
 10 23  1  0
 23 24  1  0
  4 25  1  0
 25 26  1  0
 25 27  2  0
 27  2  1  0
 24  7  1  0
 22 11  1  0
M  END
>  <ref_mols>  (1624) 
B0426a

>  <gnina_score>  (1624) 
5.779

>  <smina_score_min>  (1624) 
-5.799

>  <ref_pdb>  (1624) 
B0426a

>  <inspiration_score>  (1624) 
None

>  <inchikey>  (1624) 
CBAJUXHYLKWJJJ-INIZCTEOSA-N

>  <tags>  (1624) 
BulkDock Fragalysis export,openbind_d68ev3c_c2_elabs_scored,openbind_d68ev3c_c2_elabs_scored_4.5plus,openbind_d68ev3c_c2_elabs,openbind_d68ev3c_c2_elabs_scored_5plus,syndirella_product,openbind_d68ev3c_c2_elabs_scored_top80percent,syndirella_placed

>  <smiles>  (1624) 
Cn1cc([C@H](O)N2CCN(c3cc(C#N)cc(C(F)(F)F)c3)CC2)c(I)n1

>  <subsites>  (1624) 
None

>  <rmsd(smina/fragmenstein)>  (1624) 
0.623

>  <alias>  (1624) 
None

>  <energy_score>  (1624) 
-47.764742

>  <HIPPO Pose ID>  (1624) 
131662

>  <distance_score>  (1624) 
0.530264

>  <HIPPO Compound ID>  (1624) 
157693

>  <gnina_score_min>  (1624) 
5.883

>  <name>  (1624) 
P131662

>  <exports>  (1624) 
['/opt/xchem-fragalysis-2/maxwin/BulkDock/OUTPUTS/openbind_d68ev3c_c2_elabs_1LOTQJ3.sdf', '/opt/xchem-fragalysis-2/maxwin/BulkDock/OUTPUTS/openbind_d68ev3c_c2_elabs_1LSYI5W.sdf']

$$$$
P131664
     RDKit          3D

 27 29  0  0  0  0  0  0  0  0999 V2000
   -7.1621   -3.6839    3.2274 N   0  0  0  0  0  0  0  0  0  0  0  0
   -7.0213   -3.0861    4.2144 C   0  0  0  0  0  0  0  0  0  0  0  0
   -6.8149   -2.3070    5.4006 C   0  0  0  0  0  0  0  0  0  0  0  0
   -7.9053   -1.7672    6.0921 C   0  0  0  0  0  0  0  0  0  0  0  0
   -7.7263   -0.8706    7.1573 C   0  0  0  0  0  0  0  0  0  0  0  0
   -8.7837   -0.2767    7.8538 N   0  0  0  0  0  0  0  0  0  0  0  0
  -10.1255   -0.8699    7.6811 C   0  0  0  0  0  0  0  0  0  0  0  0
  -11.1021   -0.2986    8.7262 C   0  0  0  0  0  0  0  0  0  0  0  0
  -11.2294    1.1798    8.6294 N   0  0  0  0  0  0  0  0  0  0  0  0
  -12.1183    1.7272    9.6701 C   0  0  0  0  0  0  0  0  0  0  0  0
  -13.4719    1.1041    9.6271 C   0  0  0  0  0  0  0  0  0  0  0  0
  -14.1811    0.5315   10.7081 C   0  0  0  0  0  0  0  0  0  0  0  0
  -15.3416   -0.0177   10.3399 N   0  0  0  0  0  0  0  0  0  0  0  0
  -15.3810    0.1939    8.9972 N   0  0  0  0  0  0  0  0  0  0  0  0
  -16.4376   -0.3415    8.1414 C   0  0  0  0  0  0  0  0  0  0  0  0
  -16.7690    0.5433    7.1521 F   0  0  0  0  0  0  0  0  0  0  0  0
  -17.5953   -0.5928    8.8141 F   0  0  0  0  0  0  0  0  0  0  0  0
  -14.3054    0.9120    8.5458 C   0  0  0  0  0  0  0  0  0  0  0  0
   -9.8740    1.7620    8.7942 C   0  0  0  0  0  0  0  0  0  0  0  0
   -8.8288    1.2034    7.7978 C   0  0  0  0  0  0  0  0  0  0  0  0
   -6.4100   -0.5717    7.5345 C   0  0  0  0  0  0  0  0  0  0  0  0
   -5.3049   -1.1073    6.8607 C   0  0  0  0  0  0  0  0  0  0  0  0
   -3.9128   -0.6985    7.2424 C   0  0  0  0  0  0  0  0  0  0  0  0
   -3.0421   -0.8786    6.2137 F   0  0  0  0  0  0  0  0  0  0  0  0
   -3.8146    0.6174    7.5774 F   0  0  0  0  0  0  0  0  0  0  0  0
   -3.4111   -1.4005    8.2876 F   0  0  0  0  0  0  0  0  0  0  0  0
   -5.5176   -1.9969    5.8018 C   0  0  0  0  0  0  0  0  0  0  0  0
  1  2  3  0
  2  3  1  0
  3  4  2  0
  4  5  1  0
  5  6  1  0
  6  7  1  0
  7  8  1  0
  8  9  1  0
  9 10  1  0
 10 11  1  0
 11 12  1  0
 12 13  2  0
 13 14  1  0
 14 15  1  0
 15 16  1  0
 15 17  1  0
 14 18  1  0
  9 19  1  0
 19 20  1  0
  5 21  2  0
 21 22  1  0
 22 23  1  0
 23 24  1  0
 23 25  1  0
 23 26  1  0
 22 27  2  0
 27  3  1  0
 20  6  1  0
 18 11  2  0
M  END
>  <ref_mols>  (1625) 
B0426a

>  <gnina_score>  (1625) 
5.642

>  <smina_score_min>  (1625) 
-5.258

>  <ref_pdb>  (1625) 
B0426a

>  <inspiration_score>  (1625) 
None

>  <inchikey>  (1625) 
NGEJMKZHAQJKTQ-UHFFFAOYSA-N

>  <tags>  (1625) 
BulkDock Fragalysis export,openbind_d68ev3c_c2_elabs_scored,openbind_d68ev3c_c2_elabs_scored_4.5plus,openbind_d68ev3c_c2_elabs,openbind_d68ev3c_c2_elabs_scored_5plus,syndirella_product,openbind_d68ev3c_c2_elabs_scored_top80percent,syndirella_placed

>  <smiles>  (1625) 
N#Cc1cc(N2CCN(Cc3cnn(C(F)F)c3)CC2)cc(C(F)(F)F)c1

>  <subsites>  (1625) 
None

>  <rmsd(smina/fragmenstein)>  (1625) 
0.474

>  <alias>  (1625) 
None

>  <energy_score>  (1625) 
-45.472452

>  <HIPPO Pose ID>  (1625) 
131664

>  <distance_score>  (1625) 
0.546355

>  <HIPPO Compound ID>  (1625) 
157695

>  <gnina_score_min>  (1625) 
5.602

>  <name>  (1625) 
P131664

>  <exports>  (1625) 
['/opt/xchem-fragalysis-2/maxwin/BulkDock/OUTPUTS/openbind_d68ev3c_c2_elabs_1LOTQJ3.sdf', '/opt/xchem-fragalysis-2/maxwin/BulkDock/OUTPUTS/openbind_d68ev3c_c2_elabs_1LSYI5W.sdf']

$$$$
P131665
     RDKit          3D

 27 29  0  0  0  0  0  0  0  0999 V2000
  -18.3118    0.1800    7.9462 C   0  0  0  0  0  0  0  0  0  0  0  0
  -17.2448   -0.3521    8.5580 C   0  0  0  0  0  0  0  0  0  0  0  0
  -16.7338    0.0623    9.9136 C   0  0  0  0  0  0  0  0  0  0  0  0
  -15.3130    0.3946    9.9317 N   0  0  0  0  0  0  0  0  0  0  0  0
  -14.6191    1.0651    8.9691 C   0  0  0  0  0  0  0  0  0  0  0  0
  -13.3704    1.3320    9.4922 C   0  0  0  0  0  0  0  0  0  0  0  0
  -12.2902    2.1106    8.8332 C   0  0  0  0  0  0  0  0  0  0  0  0
  -11.1516    1.3390    8.3464 N   0  0  0  0  0  0  0  0  0  0  0  0
  -10.0571    1.2154    9.3094 C   0  0  0  0  0  0  0  0  0  0  0  0
   -8.7777    0.7132    8.6107 C   0  0  0  0  0  0  0  0  0  0  0  0
   -8.9609   -0.5546    7.8618 N   0  0  0  0  0  0  0  0  0  0  0  0
   -7.8256   -1.0741    7.2012 C   0  0  0  0  0  0  0  0  0  0  0  0
   -7.9346   -1.9752    6.1246 C   0  0  0  0  0  0  0  0  0  0  0  0
   -6.8160   -2.4245    5.4097 C   0  0  0  0  0  0  0  0  0  0  0  0
   -6.9801   -3.1768    4.2004 C   0  0  0  0  0  0  0  0  0  0  0  0
   -7.0869   -3.7510    3.1950 N   0  0  0  0  0  0  0  0  0  0  0  0
   -5.5389   -2.0453    5.8061 C   0  0  0  0  0  0  0  0  0  0  0  0
   -5.3770   -1.1760    6.8861 C   0  0  0  0  0  0  0  0  0  0  0  0
   -4.0042   -0.6953    7.2654 C   0  0  0  0  0  0  0  0  0  0  0  0
   -3.1234   -0.8207    6.2347 F   0  0  0  0  0  0  0  0  0  0  0  0
   -3.4617   -1.3774    8.3041 F   0  0  0  0  0  0  0  0  0  0  0  0
   -3.9730    0.6212    7.6115 F   0  0  0  0  0  0  0  0  0  0  0  0
   -6.5149   -0.7239    7.5792 C   0  0  0  0  0  0  0  0  0  0  0  0
  -10.2518   -0.6483    7.1184 C   0  0  0  0  0  0  0  0  0  0  0  0
  -11.4587   -0.0053    7.8337 C   0  0  0  0  0  0  0  0  0  0  0  0
  -13.4132    0.7555   10.7808 C   0  0  0  0  0  0  0  0  0  0  0  0
  -14.5977    0.2015   11.0602 N   0  0  0  0  0  0  0  0  0  0  0  0
  1  2  2  0
  2  3  1  0
  3  4  1  0
  4  5  1  0
  5  6  2  0
  6  7  1  0
  7  8  1  0
  8  9  1  0
  9 10  1  0
 10 11  1  0
 11 12  1  0
 12 13  2  0
 13 14  1  0
 14 15  1  0
 15 16  3  0
 14 17  2  0
 17 18  1  0
 18 19  1  0
 19 20  1  0
 19 21  1  0
 19 22  1  0
 18 23  2  0
 11 24  1  0
 24 25  1  0
  6 26  1  0
 26 27  2  0
 27  4  1  0
 25  8  1  0
 23 12  1  0
M  END
>  <ref_mols>  (1626) 
B0426a

>  <gnina_score>  (1626) 
5.722

>  <smina_score_min>  (1626) 
-5.665

>  <ref_pdb>  (1626) 
B0426a

>  <inspiration_score>  (1626) 
None

>  <inchikey>  (1626) 
QOPGURYBZALYBA-UHFFFAOYSA-N

>  <tags>  (1626) 
BulkDock Fragalysis export,openbind_d68ev3c_c2_elabs_scored,openbind_d68ev3c_c2_elabs_scored_4.5plus,openbind_d68ev3c_c2_elabs,openbind_d68ev3c_c2_elabs_scored_5plus,syndirella_product,openbind_d68ev3c_c2_elabs_scored_top80percent,syndirella_placed

>  <smiles>  (1626) 
C=CCn1cc(CN2CCN(c3cc(C#N)cc(C(F)(F)F)c3)CC2)cn1

>  <subsites>  (1626) 
None

>  <rmsd(smina/fragmenstein)>  (1626) 
0.602

>  <alias>  (1626) 
None

>  <energy_score>  (1626) 
-43.687951

>  <HIPPO Pose ID>  (1626) 
131665

>  <distance_score>  (1626) 
0.500141

>  <HIPPO Compound ID>  (1626) 
157696

>  <gnina_score_min>  (1626) 
5.626

>  <name>  (1626) 
P131665

>  <exports>  (1626) 
['/opt/xchem-fragalysis-2/maxwin/BulkDock/OUTPUTS/openbind_d68ev3c_c2_elabs_1LOTQJ3.sdf', '/opt/xchem-fragalysis-2/maxwin/BulkDock/OUTPUTS/openbind_d68ev3c_c2_elabs_1LSYI5W.sdf']

$$$$
P131666
     RDKit          3D

 27 29  0  0  0  0  0  0  0  0999 V2000
  -17.6240    2.2272    8.1219 C   0  0  0  0  0  0  0  0  0  0  0  0
  -17.8115    0.8332    8.7032 C   0  0  0  0  0  0  0  0  0  0  0  0
  -16.6041   -0.0761    8.4775 C   0  0  0  0  0  0  0  0  0  0  0  0
  -15.4242    0.3289    9.2122 N   0  0  0  0  0  0  0  0  0  0  0  0
  -14.3268    0.9436    8.6881 C   0  0  0  0  0  0  0  0  0  0  0  0
  -13.4462    1.1286    9.7332 C   0  0  0  0  0  0  0  0  0  0  0  0
  -12.0792    1.7198    9.7277 C   0  0  0  0  0  0  0  0  0  0  0  0
  -11.2289    1.1833    8.6504 N   0  0  0  0  0  0  0  0  0  0  0  0
  -11.1139   -0.2983    8.7258 C   0  0  0  0  0  0  0  0  0  0  0  0
  -10.1449   -0.8696    7.6712 C   0  0  0  0  0  0  0  0  0  0  0  0
   -8.7984   -0.2815    7.8378 N   0  0  0  0  0  0  0  0  0  0  0  0
   -7.7408   -0.8785    7.1463 C   0  0  0  0  0  0  0  0  0  0  0  0
   -7.9186   -1.7760    6.0825 C   0  0  0  0  0  0  0  0  0  0  0  0
   -6.8266   -2.3149    5.3927 C   0  0  0  0  0  0  0  0  0  0  0  0
   -7.0307   -3.0923    4.2050 C   0  0  0  0  0  0  0  0  0  0  0  0
   -7.1677   -3.6876    3.2158 N   0  0  0  0  0  0  0  0  0  0  0  0
   -5.5294   -2.0039    5.7951 C   0  0  0  0  0  0  0  0  0  0  0  0
   -5.3178   -1.1141    6.8540 C   0  0  0  0  0  0  0  0  0  0  0  0
   -3.9263   -0.7031    7.2361 C   0  0  0  0  0  0  0  0  0  0  0  0
   -3.4204   -1.4072    8.2780 F   0  0  0  0  0  0  0  0  0  0  0  0
   -3.0555   -0.8763    6.2056 F   0  0  0  0  0  0  0  0  0  0  0  0
   -3.8307    0.6120    7.5758 F   0  0  0  0  0  0  0  0  0  0  0  0
   -6.4245   -0.5796    7.5259 C   0  0  0  0  0  0  0  0  0  0  0  0
   -8.8402    1.1971    7.7817 C   0  0  0  0  0  0  0  0  0  0  0  0
   -9.8657    1.7535    8.7965 C   0  0  0  0  0  0  0  0  0  0  0  0
  -14.1391    0.6116   10.8537 C   0  0  0  0  0  0  0  0  0  0  0  0
  -15.3500    0.1407   10.5454 N   0  0  0  0  0  0  0  0  0  0  0  0
  1  2  1  0
  2  3  1  0
  3  4  1  0
  4  5  1  0
  5  6  2  0
  6  7  1  0
  7  8  1  0
  8  9  1  0
  9 10  1  0
 10 11  1  0
 11 12  1  0
 12 13  2  0
 13 14  1  0
 14 15  1  0
 15 16  3  0
 14 17  2  0
 17 18  1  0
 18 19  1  0
 19 20  1  0
 19 21  1  0
 19 22  1  0
 18 23  2  0
 11 24  1  0
 24 25  1  0
  6 26  1  0
 26 27  2  0
 27  4  1  0
 25  8  1  0
 23 12  1  0
M  END
>  <ref_mols>  (1627) 
B0426a

>  <gnina_score>  (1627) 
5.675

>  <smina_score_min>  (1627) 
-5.157

>  <ref_pdb>  (1627) 
B0426a

>  <inspiration_score>  (1627) 
None

>  <inchikey>  (1627) 
CNTKUDISWFCZDY-UHFFFAOYSA-N

>  <tags>  (1627) 
BulkDock Fragalysis export,openbind_d68ev3c_c2_elabs_scored,openbind_d68ev3c_c2_elabs_scored_4.5plus,openbind_d68ev3c_c2_elabs,openbind_d68ev3c_c2_elabs_scored_5plus,syndirella_product,openbind_d68ev3c_c2_elabs_scored_top80percent,syndirella_placed

>  <smiles>  (1627) 
CCCn1cc(CN2CCN(c3cc(C#N)cc(C(F)(F)F)c3)CC2)cn1

>  <subsites>  (1627) 
None

>  <rmsd(smina/fragmenstein)>  (1627) 
0.887

>  <alias>  (1627) 
None

>  <energy_score>  (1627) 
-40.617361

>  <HIPPO Pose ID>  (1627) 
131666

>  <distance_score>  (1627) 
0.546956

>  <HIPPO Compound ID>  (1627) 
157698

>  <gnina_score_min>  (1627) 
5.647

>  <name>  (1627) 
P131666

>  <exports>  (1627) 
['/opt/xchem-fragalysis-2/maxwin/BulkDock/OUTPUTS/openbind_d68ev3c_c2_elabs_1LOTQJ3.sdf', '/opt/xchem-fragalysis-2/maxwin/BulkDock/OUTPUTS/openbind_d68ev3c_c2_elabs_1LSYI5W.sdf']

$$$$
P131667
     RDKit          3D

 27 29  0  0  0  0  0  0  0  0999 V2000
  -14.8248    2.7097    7.0167 C   0  0  0  0  0  0  0  0  0  0  0  0
  -14.3860    1.2734    7.2563 C   0  0  0  0  0  0  0  0  0  0  0  0
  -14.4067    0.9273    8.7102 C   0  0  0  0  0  0  0  0  0  0  0  0
  -13.4568    1.1249    9.7016 C   0  0  0  0  0  0  0  0  0  0  0  0
  -12.1109    1.7672    9.6390 C   0  0  0  0  0  0  0  0  0  0  0  0
  -11.2341    1.1932    8.6053 N   0  0  0  0  0  0  0  0  0  0  0  0
   -9.8768    1.7733    8.7528 C   0  0  0  0  0  0  0  0  0  0  0  0
   -8.8405    1.1990    7.7593 C   0  0  0  0  0  0  0  0  0  0  0  0
   -8.7965   -0.2792    7.8417 N   0  0  0  0  0  0  0  0  0  0  0  0
   -7.7395   -0.8798    7.1506 C   0  0  0  0  0  0  0  0  0  0  0  0
   -7.9182   -1.7770    6.0867 C   0  0  0  0  0  0  0  0  0  0  0  0
   -6.8264   -2.3152    5.3961 C   0  0  0  0  0  0  0  0  0  0  0  0
   -7.0303   -3.0922    4.2082 C   0  0  0  0  0  0  0  0  0  0  0  0
   -7.1662   -3.6886    3.2195 N   0  0  0  0  0  0  0  0  0  0  0  0
   -5.5290   -2.0040    5.7981 C   0  0  0  0  0  0  0  0  0  0  0  0
   -5.3169   -1.1144    6.8570 C   0  0  0  0  0  0  0  0  0  0  0  0
   -3.9252   -0.7028    7.2379 C   0  0  0  0  0  0  0  0  0  0  0  0
   -3.0552   -0.8763    6.2069 F   0  0  0  0  0  0  0  0  0  0  0  0
   -3.8295    0.6123    7.5774 F   0  0  0  0  0  0  0  0  0  0  0  0
   -3.4188   -1.4069    8.2795 F   0  0  0  0  0  0  0  0  0  0  0  0
   -6.4232   -0.5803    7.5297 C   0  0  0  0  0  0  0  0  0  0  0  0
  -10.1425   -0.8710    7.6781 C   0  0  0  0  0  0  0  0  0  0  0  0
  -11.1185   -0.2836    8.7175 C   0  0  0  0  0  0  0  0  0  0  0  0
  -14.0491    0.5759   10.8629 C   0  0  0  0  0  0  0  0  0  0  0  0
  -15.2629    0.0733   10.6419 N   0  0  0  0  0  0  0  0  0  0  0  0
  -15.4531    0.2821    9.3228 N   0  0  0  0  0  0  0  0  0  0  0  0
  -16.7039   -0.1078    8.7173 C   0  0  0  0  0  0  0  0  0  0  0  0
  1  2  1  0
  2  3  1  0
  3  4  2  0
  4  5  1  0
  5  6  1  0
  6  7  1  0
  7  8  1  0
  8  9  1  0
  9 10  1  0
 10 11  2  0
 11 12  1  0
 12 13  1  0
 13 14  3  0
 12 15  2  0
 15 16  1  0
 16 17  1  0
 17 18  1  0
 17 19  1  0
 17 20  1  0
 16 21  2  0
  9 22  1  0
 22 23  1  0
  4 24  1  0
 24 25  2  0
 25 26  1  0
 26 27  1  0
 26  3  1  0
 23  6  1  0
 21 10  1  0
M  END
>  <ref_mols>  (1628) 
B0426a

>  <gnina_score>  (1628) 
5.748

>  <smina_score_min>  (1628) 
-5.163

>  <ref_pdb>  (1628) 
B0426a

>  <inspiration_score>  (1628) 
None

>  <inchikey>  (1628) 
DQEVMZIVSXVGEH-UHFFFAOYSA-N

>  <tags>  (1628) 
BulkDock Fragalysis export,openbind_d68ev3c_c2_elabs_scored,openbind_d68ev3c_c2_elabs_scored_4.5plus,openbind_d68ev3c_c2_elabs,openbind_d68ev3c_c2_elabs_scored_5plus,syndirella_product,openbind_d68ev3c_c2_elabs_scored_top80percent,syndirella_placed

>  <smiles>  (1628) 
CCc1c(CN2CCN(c3cc(C#N)cc(C(F)(F)F)c3)CC2)cnn1C

>  <subsites>  (1628) 
None

>  <rmsd(smina/fragmenstein)>  (1628) 
0.485

>  <alias>  (1628) 
None

>  <energy_score>  (1628) 
-49.152089

>  <HIPPO Pose ID>  (1628) 
131667

>  <distance_score>  (1628) 
0.519168

>  <HIPPO Compound ID>  (1628) 
157700

>  <gnina_score_min>  (1628) 
5.694

>  <name>  (1628) 
P131667

>  <exports>  (1628) 
['/opt/xchem-fragalysis-2/maxwin/BulkDock/OUTPUTS/openbind_d68ev3c_c2_elabs_1LOTQJ3.sdf', '/opt/xchem-fragalysis-2/maxwin/BulkDock/OUTPUTS/openbind_d68ev3c_c2_elabs_1LSYI5W.sdf']

$$$$
P131668
     RDKit          3D

 27 29  0  0  0  0  0  0  0  0999 V2000
   -8.9254   -1.9286    2.1205 C   0  0  0  0  0  0  0  0  0  0  0  0
   -7.4265   -1.9649    1.8603 C   0  0  0  0  0  0  0  0  0  0  0  0
   -6.8847   -3.3587    1.8113 C   0  0  0  0  0  0  0  0  0  0  0  0
   -6.0475   -4.0453    2.6805 C   0  0  0  0  0  0  0  0  0  0  0  0
   -5.4141   -3.6991    3.9917 C   0  0  0  0  0  0  0  0  0  0  0  0
   -5.2643   -2.3232    4.4786 N   0  0  0  0  0  0  0  0  0  0  0  0
   -6.0986   -1.9583    5.5563 C   0  0  0  0  0  0  0  0  0  0  0  0
   -7.4290   -2.3824    5.5534 C   0  0  0  0  0  0  0  0  0  0  0  0
   -8.3748   -1.8572    6.4242 C   0  0  0  0  0  0  0  0  0  0  0  0
   -8.0634   -0.8334    7.3180 C   0  0  0  0  0  0  0  0  0  0  0  0
   -9.0505   -0.1812    8.0849 N   0  0  0  0  0  0  0  0  0  0  0  0
  -10.4531   -0.5515    7.7521 C   0  0  0  0  0  0  0  0  0  0  0  0
  -11.4721    0.1026    8.6955 C   0  0  0  0  0  0  0  0  0  0  0  0
  -11.3507    1.5741    8.6708 N   0  0  0  0  0  0  0  0  0  0  0  0
  -12.3465    2.1803    9.5446 C   0  0  0  0  0  0  0  0  0  0  0  0
   -9.9791    1.9210    9.1006 C   0  0  0  0  0  0  0  0  0  0  0  0
   -8.8922    1.2920    8.1936 C   0  0  0  0  0  0  0  0  0  0  0  0
   -6.7030   -0.5080    7.4205 C   0  0  0  0  0  0  0  0  0  0  0  0
   -5.7157   -1.0431    6.5524 C   0  0  0  0  0  0  0  0  0  0  0  0
   -4.2869   -0.6319    6.7960 C   0  0  0  0  0  0  0  0  0  0  0  0
   -3.4507   -0.8775    5.7445 F   0  0  0  0  0  0  0  0  0  0  0  0
   -3.7227   -1.2834    7.8558 F   0  0  0  0  0  0  0  0  0  0  0  0
   -4.1406    0.6964    7.0729 F   0  0  0  0  0  0  0  0  0  0  0  0
   -5.8727   -5.3088    2.0606 C   0  0  0  0  0  0  0  0  0  0  0  0
   -6.5798   -5.4495    0.9442 N   0  0  0  0  0  0  0  0  0  0  0  0
   -7.1124   -4.2220    0.7596 N   0  0  0  0  0  0  0  0  0  0  0  0
   -7.8604   -3.9765   -0.4525 C   0  0  0  0  0  0  0  0  0  0  0  0
  1  2  1  0
  2  3  1  0
  3  4  2  0
  4  5  1  0
  5  6  1  0
  6  7  1  0
  7  8  2  0
  8  9  1  0
  9 10  2  0
 10 11  1  0
 11 12  1  0
 12 13  1  0
 13 14  1  0
 14 15  1  0
 14 16  1  0
 16 17  1  0
 10 18  1  0
 18 19  2  0
 19 20  1  0
 20 21  1  0
 20 22  1  0
 20 23  1  0
  4 24  1  0
 24 25  2  0
 25 26  1  0
 26 27  1  0
 26  3  1  0
 19  7  1  0
 17 11  1  0
M  END
>  <ref_mols>  (1629) 
B0426a

>  <gnina_score>  (1629) 
5.453

>  <smina_score_min>  (1629) 
-5.07

>  <ref_pdb>  (1629) 
B0426a

>  <inspiration_score>  (1629) 
None

>  <inchikey>  (1629) 
PHXLYKOYWCFMMU-UHFFFAOYSA-N

>  <tags>  (1629) 
BulkDock Fragalysis export,openbind_d68ev3c_c2_elabs_scored,openbind_d68ev3c_c2_elabs_scored_4.5plus,openbind_d68ev3c_c2_elabs,openbind_d68ev3c_c2_elabs_scored_5plus,syndirella_product,openbind_d68ev3c_c2_elabs_scored_top80percent,syndirella_placed

>  <smiles>  (1629) 
CCc1c(CNc2ccc(N3CCN(C)CC3)cc2C(F)(F)F)cnn1C

>  <subsites>  (1629) 
None

>  <rmsd(smina/fragmenstein)>  (1629) 
0.887

>  <alias>  (1629) 
None

>  <energy_score>  (1629) 
-58.374416

>  <HIPPO Pose ID>  (1629) 
131668

>  <distance_score>  (1629) 
0.946741

>  <HIPPO Compound ID>  (1629) 
157701

>  <gnina_score_min>  (1629) 
5.431

>  <name>  (1629) 
P131668

>  <exports>  (1629) 
['/opt/xchem-fragalysis-2/maxwin/BulkDock/OUTPUTS/openbind_d68ev3c_c2_elabs_1LOTQJ3.sdf', '/opt/xchem-fragalysis-2/maxwin/BulkDock/OUTPUTS/openbind_d68ev3c_c2_elabs_1LSYI5W.sdf']

$$$$
P131669
     RDKit          3D

 27 29  0  0  0  0  0  0  0  0999 V2000
  -13.2584    0.7323   12.2923 C   0  0  0  0  0  0  0  0  0  0  0  0
  -13.9028    0.6882   10.9534 C   0  0  0  0  0  0  0  0  0  0  0  0
  -15.1086    0.1184   10.8058 N   0  0  0  0  0  0  0  0  0  0  0  0
  -15.3860    0.3050    9.4988 N   0  0  0  0  0  0  0  0  0  0  0  0
  -16.6624   -0.0734    8.9546 C   0  0  0  0  0  0  0  0  0  0  0  0
  -14.4027    0.9574    8.8262 C   0  0  0  0  0  0  0  0  0  0  0  0
  -14.4264    1.3046    7.5321 F   0  0  0  0  0  0  0  0  0  0  0  0
  -13.3945    1.2099    9.7240 C   0  0  0  0  0  0  0  0  0  0  0  0
  -12.0926    1.8984    9.5146 C   0  0  0  0  0  0  0  0  0  0  0  0
  -11.2292    1.2352    8.5236 N   0  0  0  0  0  0  0  0  0  0  0  0
  -11.0677   -0.2201    8.7697 C   0  0  0  0  0  0  0  0  0  0  0  0
  -10.1002   -0.8728    7.7600 C   0  0  0  0  0  0  0  0  0  0  0  0
   -8.7700   -0.2357    7.8389 N   0  0  0  0  0  0  0  0  0  0  0  0
   -7.7216   -0.8610    7.1552 C   0  0  0  0  0  0  0  0  0  0  0  0
   -7.9092   -1.7662    6.1007 C   0  0  0  0  0  0  0  0  0  0  0  0
   -6.8206   -2.3142    5.4129 C   0  0  0  0  0  0  0  0  0  0  0  0
   -7.0294   -3.0903    4.2254 C   0  0  0  0  0  0  0  0  0  0  0  0
   -7.1732   -3.6800    3.2341 N   0  0  0  0  0  0  0  0  0  0  0  0
   -5.5211   -2.0077    5.8125 C   0  0  0  0  0  0  0  0  0  0  0  0
   -5.3031   -1.1087    6.8628 C   0  0  0  0  0  0  0  0  0  0  0  0
   -3.9094   -0.7009    7.2388 C   0  0  0  0  0  0  0  0  0  0  0  0
   -3.4043   -1.4031    8.2824 F   0  0  0  0  0  0  0  0  0  0  0  0
   -3.8087    0.6149    7.5736 F   0  0  0  0  0  0  0  0  0  0  0  0
   -3.0430   -0.8816    6.2067 F   0  0  0  0  0  0  0  0  0  0  0  0
   -6.4051   -0.5599    7.5290 C   0  0  0  0  0  0  0  0  0  0  0  0
   -8.8536    1.2253    7.6167 C   0  0  0  0  0  0  0  0  0  0  0  0
   -9.8848    1.8650    8.5737 C   0  0  0  0  0  0  0  0  0  0  0  0
  1  2  1  0
  2  3  2  0
  3  4  1  0
  4  5  1  0
  4  6  1  0
  6  7  1  0
  6  8  2  0
  8  9  1  0
  9 10  1  0
 10 11  1  0
 11 12  1  0
 12 13  1  0
 13 14  1  0
 14 15  2  0
 15 16  1  0
 16 17  1  0
 17 18  3  0
 16 19  2  0
 19 20  1  0
 20 21  1  0
 21 22  1  0
 21 23  1  0
 21 24  1  0
 20 25  2  0
 13 26  1  0
 26 27  1  0
  8  2  1  0
 27 10  1  0
 25 14  1  0
M  END
>  <ref_mols>  (1630) 
B0426a

>  <gnina_score>  (1630) 
5.804

>  <smina_score_min>  (1630) 
-5.979

>  <ref_pdb>  (1630) 
B0426a

>  <inspiration_score>  (1630) 
None

>  <inchikey>  (1630) 
SZIOFCFDXLUTLN-UHFFFAOYSA-N

>  <tags>  (1630) 
BulkDock Fragalysis export,openbind_d68ev3c_c2_elabs_scored,openbind_d68ev3c_c2_elabs_scored_4.5plus,openbind_d68ev3c_c2_elabs,openbind_d68ev3c_c2_elabs_scored_5plus,syndirella_product,openbind_d68ev3c_c2_elabs_scored_top80percent,syndirella_placed

>  <smiles>  (1630) 
Cc1nn(C)c(F)c1CN1CCN(c2cc(C#N)cc(C(F)(F)F)c2)CC1

>  <subsites>  (1630) 
None

>  <rmsd(smina/fragmenstein)>  (1630) 
0.985

>  <alias>  (1630) 
None

>  <energy_score>  (1630) 
-41.643217

>  <HIPPO Pose ID>  (1630) 
131669

>  <distance_score>  (1630) 
0.523261

>  <HIPPO Compound ID>  (1630) 
157702

>  <gnina_score_min>  (1630) 
5.999

>  <name>  (1630) 
P131669

>  <exports>  (1630) 
['/opt/xchem-fragalysis-2/maxwin/BulkDock/OUTPUTS/openbind_d68ev3c_c2_elabs_1LOTQJ3.sdf', '/opt/xchem-fragalysis-2/maxwin/BulkDock/OUTPUTS/openbind_d68ev3c_c2_elabs_1LSYI5W.sdf']

$$$$
P131670
     RDKit          3D

 27 29  0  0  0  0  0  0  0  0999 V2000
   -5.8882   -0.1258    3.3968 C   0  0  0  0  0  0  0  0  0  0  0  0
   -6.6494   -1.2608    2.8166 C   0  0  0  0  0  0  0  0  0  0  0  0
   -7.5885   -0.9897    1.8956 N   0  0  0  0  0  0  0  0  0  0  0  0
   -8.0810   -2.1961    1.5689 N   0  0  0  0  0  0  0  0  0  0  0  0
   -9.1344   -2.3039    0.5934 C   0  0  0  0  0  0  0  0  0  0  0  0
   -7.4810   -3.2112    2.2379 C   0  0  0  0  0  0  0  0  0  0  0  0
   -7.7527   -4.5179    2.1091 F   0  0  0  0  0  0  0  0  0  0  0  0
   -6.5399   -2.6624    3.0799 C   0  0  0  0  0  0  0  0  0  0  0  0
   -5.6436   -3.4374    3.9947 C   0  0  0  0  0  0  0  0  0  0  0  0
   -5.0719   -2.8046    5.1918 N   0  0  0  0  0  0  0  0  0  0  0  0
   -5.9779   -2.2857    6.1240 C   0  0  0  0  0  0  0  0  0  0  0  0
   -7.2068   -2.9073    6.3453 C   0  0  0  0  0  0  0  0  0  0  0  0
   -8.2112   -2.2834    7.0778 C   0  0  0  0  0  0  0  0  0  0  0  0
   -8.0432   -1.0066    7.6140 C   0  0  0  0  0  0  0  0  0  0  0  0
   -9.1262   -0.3129    8.1805 N   0  0  0  0  0  0  0  0  0  0  0  0
   -8.9272    1.1143    8.5146 C   0  0  0  0  0  0  0  0  0  0  0  0
  -10.1380    1.7099    9.2674 C   0  0  0  0  0  0  0  0  0  0  0  0
  -11.4101    1.5282    8.5387 N   0  0  0  0  0  0  0  0  0  0  0  0
  -12.5265    2.0756    9.3012 C   0  0  0  0  0  0  0  0  0  0  0  0
  -11.6020    0.0806    8.3148 C   0  0  0  0  0  0  0  0  0  0  0  0
  -10.4405   -0.5415    7.5151 C   0  0  0  0  0  0  0  0  0  0  0  0
   -6.7267   -0.5187    7.6027 C   0  0  0  0  0  0  0  0  0  0  0  0
   -5.6804   -1.1563    6.8960 C   0  0  0  0  0  0  0  0  0  0  0  0
   -4.2847   -0.6002    6.9980 C   0  0  0  0  0  0  0  0  0  0  0  0
   -4.2454    0.7316    7.2977 F   0  0  0  0  0  0  0  0  0  0  0  0
   -3.5682   -0.7174    5.8376 F   0  0  0  0  0  0  0  0  0  0  0  0
   -3.5332   -1.2104    7.9568 F   0  0  0  0  0  0  0  0  0  0  0  0
  1  2  1  0
  2  3  2  0
  3  4  1  0
  4  5  1  0
  4  6  1  0
  6  7  1  0
  6  8  2  0
  8  9  1  0
  9 10  1  0
 10 11  1  0
 11 12  2  0
 12 13  1  0
 13 14  2  0
 14 15  1  0
 15 16  1  0
 16 17  1  0
 17 18  1  0
 18 19  1  0
 18 20  1  0
 20 21  1  0
 14 22  1  0
 22 23  2  0
 23 24  1  0
 24 25  1  0
 24 26  1  0
 24 27  1  0
  8  2  1  0
 23 11  1  0
 21 15  1  0
M  END
>  <ref_mols>  (1631) 
B0426a

>  <gnina_score>  (1631) 
5.36

>  <smina_score_min>  (1631) 
-5.443

>  <ref_pdb>  (1631) 
B0426a

>  <inspiration_score>  (1631) 
None

>  <inchikey>  (1631) 
CLEMMXLMGBHJDI-UHFFFAOYSA-N

>  <tags>  (1631) 
BulkDock Fragalysis export,openbind_d68ev3c_c2_elabs_scored,openbind_d68ev3c_c2_elabs_scored_4.5plus,openbind_d68ev3c_c2_elabs,openbind_d68ev3c_c2_elabs_scored_5plus,syndirella_product,openbind_d68ev3c_c2_elabs_scored_top80percent,syndirella_placed

>  <smiles>  (1631) 
Cc1nn(C)c(F)c1CNc1ccc(N2CCN(C)CC2)cc1C(F)(F)F

>  <subsites>  (1631) 
None

>  <rmsd(smina/fragmenstein)>  (1631) 
0.977

>  <alias>  (1631) 
None

>  <energy_score>  (1631) 
-34.642259

>  <HIPPO Pose ID>  (1631) 
131670

>  <distance_score>  (1631) 
0.435288

>  <HIPPO Compound ID>  (1631) 
157703

>  <gnina_score_min>  (1631) 
5.5

>  <name>  (1631) 
P131670

>  <exports>  (1631) 
['/opt/xchem-fragalysis-2/maxwin/BulkDock/OUTPUTS/openbind_d68ev3c_c2_elabs_1LOTQJ3.sdf', '/opt/xchem-fragalysis-2/maxwin/BulkDock/OUTPUTS/openbind_d68ev3c_c2_elabs_1LSYI5W.sdf']

$$$$
P131671
     RDKit          3D

 27 29  0  0  0  0  0  0  0  0999 V2000
  -17.7789    0.9108    8.9722 C   0  0  0  0  0  0  0  0  0  0  0  0
  -16.6455   -0.0376    8.6245 C   0  0  0  0  0  0  0  0  0  0  0  0
  -15.4071    0.3166    9.2854 N   0  0  0  0  0  0  0  0  0  0  0  0
  -14.3566    0.9705    8.7145 C   0  0  0  0  0  0  0  0  0  0  0  0
  -13.4169    1.1442    9.7120 C   0  0  0  0  0  0  0  0  0  0  0  0
  -12.0746    1.7947    9.6575 C   0  0  2  0  0  0  0  0  0  0  0  0
  -12.2454    3.1728    9.3742 O   0  0  0  0  0  0  0  0  0  0  0  0
  -11.2151    1.2285    8.6132 N   0  0  0  0  0  0  0  0  0  0  0  0
   -9.8391    1.7738    8.7899 C   0  0  0  0  0  0  0  0  0  0  0  0
   -8.8054    1.2002    7.7955 C   0  0  0  0  0  0  0  0  0  0  0  0
   -8.7888   -0.2787    7.8531 N   0  0  0  0  0  0  0  0  0  0  0  0
   -7.7329   -0.8850    7.1642 C   0  0  0  0  0  0  0  0  0  0  0  0
   -7.9141   -1.7812    6.1000 C   0  0  0  0  0  0  0  0  0  0  0  0
   -6.8241   -2.3195    5.4055 C   0  0  0  0  0  0  0  0  0  0  0  0
   -7.0337   -3.0899    4.2145 C   0  0  0  0  0  0  0  0  0  0  0  0
   -7.1833   -3.6762    3.2221 N   0  0  0  0  0  0  0  0  0  0  0  0
   -5.5255   -2.0106    5.8040 C   0  0  0  0  0  0  0  0  0  0  0  0
   -5.3105   -1.1239    6.8644 C   0  0  0  0  0  0  0  0  0  0  0  0
   -3.9177   -0.7103    7.2406 C   0  0  0  0  0  0  0  0  0  0  0  0
   -3.4069   -1.4145    8.2796 F   0  0  0  0  0  0  0  0  0  0  0  0
   -3.0518   -0.8799    6.2060 F   0  0  0  0  0  0  0  0  0  0  0  0
   -3.8251    0.6046    7.5817 F   0  0  0  0  0  0  0  0  0  0  0  0
   -6.4148   -0.5912    7.5420 C   0  0  0  0  0  0  0  0  0  0  0  0
  -10.1390   -0.8477    7.6753 C   0  0  0  0  0  0  0  0  0  0  0  0
  -11.1150   -0.2539    8.7123 C   0  0  0  0  0  0  0  0  0  0  0  0
  -14.0237    0.5641   10.8514 C   0  0  0  0  0  0  0  0  0  0  0  0
  -15.2285    0.0486   10.5943 N   0  0  0  0  0  0  0  0  0  0  0  0
  1  2  1  0
  2  3  1  0
  3  4  1  0
  4  5  2  0
  5  6  1  0
  6  7  1  6
  6  8  1  0
  8  9  1  0
  9 10  1  0
 10 11  1  0
 11 12  1  0
 12 13  2  0
 13 14  1  0
 14 15  1  0
 15 16  3  0
 14 17  2  0
 17 18  1  0
 18 19  1  0
 19 20  1  0
 19 21  1  0
 19 22  1  0
 18 23  2  0
 11 24  1  0
 24 25  1  0
  5 26  1  0
 26 27  2  0
 27  3  1  0
 25  8  1  0
 23 12  1  0
M  END
>  <ref_mols>  (1632) 
B0426a

>  <gnina_score>  (1632) 
5.568

>  <smina_score_min>  (1632) 
-5.346

>  <ref_pdb>  (1632) 
B0426a

>  <inspiration_score>  (1632) 
None

>  <inchikey>  (1632) 
NENBTHKHDSFALP-KRWDZBQOSA-N

>  <tags>  (1632) 
BulkDock Fragalysis export,openbind_d68ev3c_c2_elabs_scored,openbind_d68ev3c_c2_elabs_scored_4.5plus,openbind_d68ev3c_c2_elabs,openbind_d68ev3c_c2_elabs_scored_5plus,syndirella_product,openbind_d68ev3c_c2_elabs_scored_top80percent,syndirella_placed

>  <smiles>  (1632) 
CCn1cc([C@H](O)N2CCN(c3cc(C#N)cc(C(F)(F)F)c3)CC2)cn1

>  <subsites>  (1632) 
None

>  <rmsd(smina/fragmenstein)>  (1632) 
0.635

>  <alias>  (1632) 
None

>  <energy_score>  (1632) 
-49.847389

>  <HIPPO Pose ID>  (1632) 
131671

>  <distance_score>  (1632) 
0.519508

>  <HIPPO Compound ID>  (1632) 
157705

>  <gnina_score_min>  (1632) 
5.29

>  <name>  (1632) 
P131671

>  <exports>  (1632) 
['/opt/xchem-fragalysis-2/maxwin/BulkDock/OUTPUTS/openbind_d68ev3c_c2_elabs_1LOTQJ3.sdf', '/opt/xchem-fragalysis-2/maxwin/BulkDock/OUTPUTS/openbind_d68ev3c_c2_elabs_1LSYI5W.sdf']

$$$$
P131673
     RDKit          3D

 27 29  0  0  0  0  0  0  0  0999 V2000
  -13.4553    0.8296   12.3117 C   0  0  0  0  0  0  0  0  0  0  0  0
  -14.0061    0.7460   10.9348 C   0  0  0  0  0  0  0  0  0  0  0  0
  -15.2067    0.1967   10.7243 N   0  0  0  0  0  0  0  0  0  0  0  0
  -15.3910    0.3189    9.3961 N   0  0  0  0  0  0  0  0  0  0  0  0
  -16.6393   -0.1035    8.8094 C   0  0  0  0  0  0  0  0  0  0  0  0
  -14.3504    0.9294    8.7480 C   0  0  0  0  0  0  0  0  0  0  0  0
  -14.3318    1.1676    7.2821 C   0  0  0  0  0  0  0  0  0  0  0  0
  -13.4074    1.2034    9.7255 C   0  0  0  0  0  0  0  0  0  0  0  0
  -12.0667    1.8507    9.5990 C   0  0  0  0  0  0  0  0  0  0  0  0
  -11.2076    1.2277    8.5772 N   0  0  0  0  0  0  0  0  0  0  0  0
   -9.8539    1.8264    8.6716 C   0  0  0  0  0  0  0  0  0  0  0  0
   -8.8307    1.2139    7.6898 C   0  0  0  0  0  0  0  0  0  0  0  0
   -8.7725   -0.2575    7.8441 N   0  0  0  0  0  0  0  0  0  0  0  0
   -7.7249   -0.8743    7.1539 C   0  0  0  0  0  0  0  0  0  0  0  0
   -7.9142   -1.7739    6.0948 C   0  0  0  0  0  0  0  0  0  0  0  0
   -6.8273   -2.3176    5.4012 C   0  0  0  0  0  0  0  0  0  0  0  0
   -7.0392   -3.0914    4.2126 C   0  0  0  0  0  0  0  0  0  0  0  0
   -7.1828   -3.6828    3.2220 N   0  0  0  0  0  0  0  0  0  0  0  0
   -5.5266   -2.0116    5.7982 C   0  0  0  0  0  0  0  0  0  0  0  0
   -5.3062   -1.1195    6.8536 C   0  0  0  0  0  0  0  0  0  0  0  0
   -3.9124   -0.7111    7.2287 C   0  0  0  0  0  0  0  0  0  0  0  0
   -3.4026   -1.4177    8.2671 F   0  0  0  0  0  0  0  0  0  0  0  0
   -3.8122    0.6033    7.5695 F   0  0  0  0  0  0  0  0  0  0  0  0
   -3.0483   -0.8850    6.1932 F   0  0  0  0  0  0  0  0  0  0  0  0
   -6.4069   -0.5775    7.5272 C   0  0  0  0  0  0  0  0  0  0  0  0
  -10.1153   -0.8671    7.7300 C   0  0  0  0  0  0  0  0  0  0  0  0
  -11.0784   -0.2409    8.7598 C   0  0  0  0  0  0  0  0  0  0  0  0
  1  2  1  0
  2  3  2  0
  3  4  1  0
  4  5  1  0
  4  6  1  0
  6  7  1  0
  6  8  2  0
  8  9  1  0
  9 10  1  0
 10 11  1  0
 11 12  1  0
 12 13  1  0
 13 14  1  0
 14 15  2  0
 15 16  1  0
 16 17  1  0
 17 18  3  0
 16 19  2  0
 19 20  1  0
 20 21  1  0
 21 22  1  0
 21 23  1  0
 21 24  1  0
 20 25  2  0
 13 26  1  0
 26 27  1  0
  8  2  1  0
 27 10  1  0
 25 14  1  0
M  END
>  <ref_mols>  (1633) 
B0426a

>  <gnina_score>  (1633) 
5.87

>  <smina_score_min>  (1633) 
-5.717

>  <ref_pdb>  (1633) 
B0426a

>  <inspiration_score>  (1633) 
None

>  <inchikey>  (1633) 
NRAONVMAINFOMW-UHFFFAOYSA-N

>  <tags>  (1633) 
BulkDock Fragalysis export,openbind_d68ev3c_c2_elabs_scored,openbind_d68ev3c_c2_elabs_scored_4.5plus,openbind_d68ev3c_c2_elabs,openbind_d68ev3c_c2_elabs_scored_5plus,syndirella_product,openbind_d68ev3c_c2_elabs_scored_top80percent,syndirella_placed

>  <smiles>  (1633) 
Cc1nn(C)c(C)c1CN1CCN(c2cc(C#N)cc(C(F)(F)F)c2)CC1

>  <subsites>  (1633) 
None

>  <rmsd(smina/fragmenstein)>  (1633) 
0.488

>  <alias>  (1633) 
None

>  <energy_score>  (1633) 
-36.603674

>  <HIPPO Pose ID>  (1633) 
131673

>  <distance_score>  (1633) 
0.532425

>  <HIPPO Compound ID>  (1633) 
157707

>  <gnina_score_min>  (1633) 
5.847

>  <name>  (1633) 
P131673

>  <exports>  (1633) 
['/opt/xchem-fragalysis-2/maxwin/BulkDock/OUTPUTS/openbind_d68ev3c_c2_elabs_1LOTQJ3.sdf', '/opt/xchem-fragalysis-2/maxwin/BulkDock/OUTPUTS/openbind_d68ev3c_c2_elabs_1LSYI5W.sdf']

$$$$
P131674
     RDKit          3D

 27 29  0  0  0  0  0  0  0  0999 V2000
  -16.9631   -0.5986    7.4331 C   0  0  0  0  0  0  0  0  0  0  0  0
  -16.8795    0.3705    8.5989 C   0  0  0  0  0  0  0  0  0  0  0  0
  -15.5606    0.4850    9.1955 N   0  0  0  0  0  0  0  0  0  0  0  0
  -15.3860    0.0842   10.4741 N   0  0  0  0  0  0  0  0  0  0  0  0
  -14.1391    0.4613   10.7540 C   0  0  0  0  0  0  0  0  0  0  0  0
  -13.5102    1.1331    9.6823 C   0  0  0  0  0  0  0  0  0  0  0  0
  -12.1333    1.7085    9.7002 C   0  0  0  0  0  0  0  0  0  0  0  0
  -11.2692    1.1835    8.6287 N   0  0  0  0  0  0  0  0  0  0  0  0
  -11.1776   -0.2994    8.6720 C   0  0  0  0  0  0  0  0  0  0  0  0
  -10.1911   -0.8613    7.6271 C   0  0  0  0  0  0  0  0  0  0  0  0
   -8.8385   -0.2924    7.8283 N   0  0  0  0  0  0  0  0  0  0  0  0
   -7.7735   -0.8847    7.1426 C   0  0  0  0  0  0  0  0  0  0  0  0
   -7.9436   -1.7815    6.0768 C   0  0  0  0  0  0  0  0  0  0  0  0
   -6.8477   -2.3152    5.3887 C   0  0  0  0  0  0  0  0  0  0  0  0
   -7.0475   -3.0902    4.1987 C   0  0  0  0  0  0  0  0  0  0  0  0
   -7.1838   -3.6828    3.2077 N   0  0  0  0  0  0  0  0  0  0  0  0
   -5.5523   -2.0005    5.7942 C   0  0  0  0  0  0  0  0  0  0  0  0
   -5.3463   -1.1126    6.8556 C   0  0  0  0  0  0  0  0  0  0  0  0
   -3.9556   -0.6974    7.2397 C   0  0  0  0  0  0  0  0  0  0  0  0
   -3.4470   -1.4026    8.2796 F   0  0  0  0  0  0  0  0  0  0  0  0
   -3.0824   -0.8643    6.2093 F   0  0  0  0  0  0  0  0  0  0  0  0
   -3.8645    0.6170    7.5831 F   0  0  0  0  0  0  0  0  0  0  0  0
   -6.4578   -0.5843    7.5268 C   0  0  0  0  0  0  0  0  0  0  0  0
   -8.8658    1.1880    7.8048 C   0  0  0  0  0  0  0  0  0  0  0  0
   -9.9026    1.7326    8.8138 C   0  0  0  0  0  0  0  0  0  0  0  0
  -14.4684    1.1458    8.6815 C   0  0  0  0  0  0  0  0  0  0  0  0
  -14.4053    1.7146    7.3108 C   0  0  0  0  0  0  0  0  0  0  0  0
  1  2  1  0
  2  3  1  0
  3  4  1  0
  4  5  2  0
  5  6  1  0
  6  7  1  0
  7  8  1  0
  8  9  1  0
  9 10  1  0
 10 11  1  0
 11 12  1  0
 12 13  2  0
 13 14  1  0
 14 15  1  0
 15 16  3  0
 14 17  2  0
 17 18  1  0
 18 19  1  0
 19 20  1  0
 19 21  1  0
 19 22  1  0
 18 23  2  0
 11 24  1  0
 24 25  1  0
  6 26  2  0
 26 27  1  0
 26  3  1  0
 25  8  1  0
 23 12  1  0
M  END
>  <ref_mols>  (1634) 
B0426a

>  <gnina_score>  (1634) 
5.736

>  <smina_score_min>  (1634) 
-5.222

>  <ref_pdb>  (1634) 
B0426a

>  <inspiration_score>  (1634) 
None

>  <inchikey>  (1634) 
KECIBBNXXKUIIR-UHFFFAOYSA-N

>  <tags>  (1634) 
BulkDock Fragalysis export,openbind_d68ev3c_c2_elabs_scored,openbind_d68ev3c_c2_elabs_scored_4.5plus,openbind_d68ev3c_c2_elabs,openbind_d68ev3c_c2_elabs_scored_5plus,syndirella_product,openbind_d68ev3c_c2_elabs_scored_top80percent,syndirella_placed

>  <smiles>  (1634) 
CCn1ncc(CN2CCN(c3cc(C#N)cc(C(F)(F)F)c3)CC2)c1C

>  <subsites>  (1634) 
None

>  <rmsd(smina/fragmenstein)>  (1634) 
0.491

>  <alias>  (1634) 
None

>  <energy_score>  (1634) 
-45.203995

>  <HIPPO Pose ID>  (1634) 
131674

>  <distance_score>  (1634) 
0.557618

>  <HIPPO Compound ID>  (1634) 
157708

>  <gnina_score_min>  (1634) 
5.696

>  <name>  (1634) 
P131674

>  <exports>  (1634) 
['/opt/xchem-fragalysis-2/maxwin/BulkDock/OUTPUTS/openbind_d68ev3c_c2_elabs_1LOTQJ3.sdf', '/opt/xchem-fragalysis-2/maxwin/BulkDock/OUTPUTS/openbind_d68ev3c_c2_elabs_1LSYI5W.sdf']

$$$$
P131675
     RDKit          3D

 27 29  0  0  0  0  0  0  0  0999 V2000
   -7.1870   -1.8771   -1.2630 C   0  0  0  0  0  0  0  0  0  0  0  0
   -8.1298   -2.4809   -0.2373 C   0  0  0  0  0  0  0  0  0  0  0  0
   -7.5695   -2.4542    1.1020 N   0  0  0  0  0  0  0  0  0  0  0  0
   -7.7572   -1.3592    1.8583 N   0  0  0  0  0  0  0  0  0  0  0  0
   -7.1053   -1.6327    2.9877 C   0  0  0  0  0  0  0  0  0  0  0  0
   -6.4872   -2.9028    2.9716 C   0  0  0  0  0  0  0  0  0  0  0  0
   -5.6493   -3.5508    4.0291 C   0  0  0  0  0  0  0  0  0  0  0  0
   -5.0894   -2.7544    5.1261 N   0  0  0  0  0  0  0  0  0  0  0  0
   -5.9572   -2.1744    6.0569 C   0  0  0  0  0  0  0  0  0  0  0  0
   -7.2213   -2.7143    6.3007 C   0  0  0  0  0  0  0  0  0  0  0  0
   -8.1628   -2.0358    7.0692 C   0  0  0  0  0  0  0  0  0  0  0  0
   -7.8801   -0.7960    7.6453 C   0  0  0  0  0  0  0  0  0  0  0  0
   -8.8471   -0.0132    8.3067 N   0  0  0  0  0  0  0  0  0  0  0  0
   -8.9312    1.3831    7.8176 C   0  0  0  0  0  0  0  0  0  0  0  0
   -9.9960    2.1984    8.5917 C   0  0  0  0  0  0  0  0  0  0  0  0
  -11.3279    1.5587    8.5661 N   0  0  0  0  0  0  0  0  0  0  0  0
  -12.3119    2.3558    9.2870 C   0  0  0  0  0  0  0  0  0  0  0  0
  -11.1971    0.2231    9.1812 C   0  0  0  0  0  0  0  0  0  0  0  0
  -10.1767   -0.6509    8.4391 C   0  0  0  0  0  0  0  0  0  0  0  0
   -6.5481   -0.3757    7.5804 C   0  0  0  0  0  0  0  0  0  0  0  0
   -5.5741   -1.0627    6.8241 C   0  0  0  0  0  0  0  0  0  0  0  0
   -4.1506   -0.5814    6.8867 C   0  0  0  0  0  0  0  0  0  0  0  0
   -3.4019   -1.2377    7.8154 F   0  0  0  0  0  0  0  0  0  0  0  0
   -4.0364    0.7444    7.1953 F   0  0  0  0  0  0  0  0  0  0  0  0
   -3.4840   -0.7232    5.7011 F   0  0  0  0  0  0  0  0  0  0  0  0
   -6.8319   -3.4274    1.7310 C   0  0  0  0  0  0  0  0  0  0  0  0
   -6.4828   -4.7216    1.0897 C   0  0  0  0  0  0  0  0  0  0  0  0
  1  2  1  0
  2  3  1  0
  3  4  1  0
  4  5  2  0
  5  6  1  0
  6  7  1  0
  7  8  1  0
  8  9  1  0
  9 10  2  0
 10 11  1  0
 11 12  2  0
 12 13  1  0
 13 14  1  0
 14 15  1  0
 15 16  1  0
 16 17  1  0
 16 18  1  0
 18 19  1  0
 12 20  1  0
 20 21  2  0
 21 22  1  0
 22 23  1  0
 22 24  1  0
 22 25  1  0
  6 26  2  0
 26 27  1  0
 26  3  1  0
 21  9  1  0
 19 13  1  0
M  END
>  <ref_mols>  (1635) 
B0426a

>  <gnina_score>  (1635) 
5.495

>  <smina_score_min>  (1635) 
-5.171

>  <ref_pdb>  (1635) 
B0426a

>  <inspiration_score>  (1635) 
None

>  <inchikey>  (1635) 
KCMARFWXFCFVFL-UHFFFAOYSA-N

>  <tags>  (1635) 
BulkDock Fragalysis export,openbind_d68ev3c_c2_elabs_scored,openbind_d68ev3c_c2_elabs_scored_4.5plus,openbind_d68ev3c_c2_elabs,openbind_d68ev3c_c2_elabs_scored_5plus,syndirella_product,openbind_d68ev3c_c2_elabs_scored_top80percent,syndirella_placed

>  <smiles>  (1635) 
CCn1ncc(CNc2ccc(N3CCN(C)CC3)cc2C(F)(F)F)c1C

>  <subsites>  (1635) 
None

>  <rmsd(smina/fragmenstein)>  (1635) 
0.697

>  <alias>  (1635) 
None

>  <energy_score>  (1635) 
-53.808391

>  <HIPPO Pose ID>  (1635) 
131675

>  <distance_score>  (1635) 
0.849479

>  <HIPPO Compound ID>  (1635) 
157709

>  <gnina_score_min>  (1635) 
5.356

>  <name>  (1635) 
P131675

>  <exports>  (1635) 
['/opt/xchem-fragalysis-2/maxwin/BulkDock/OUTPUTS/openbind_d68ev3c_c2_elabs_1LOTQJ3.sdf', '/opt/xchem-fragalysis-2/maxwin/BulkDock/OUTPUTS/openbind_d68ev3c_c2_elabs_1LSYI5W.sdf']

$$$$
P131676
     RDKit          3D

 27 29  0  0  0  0  0  0  0  0999 V2000
   -7.1731   -3.6818    3.2208 N   0  0  0  0  0  0  0  0  0  0  0  0
   -7.0294   -3.0900    4.2107 C   0  0  0  0  0  0  0  0  0  0  0  0
   -6.8257   -2.3128    5.3984 C   0  0  0  0  0  0  0  0  0  0  0  0
   -7.9187   -1.7706    6.0843 C   0  0  0  0  0  0  0  0  0  0  0  0
   -7.7416   -0.8692    7.1444 C   0  0  0  0  0  0  0  0  0  0  0  0
   -8.7993   -0.2639    7.8296 N   0  0  0  0  0  0  0  0  0  0  0  0
  -10.1402   -0.8659    7.6865 C   0  0  0  0  0  0  0  0  0  0  0  0
  -11.1071   -0.2740    8.7328 C   0  0  0  0  0  0  0  0  0  0  0  0
  -11.2383    1.2025    8.6155 N   0  0  0  0  0  0  0  0  0  0  0  0
  -12.0743    1.7719    9.6870 C   0  0  0  0  0  0  0  0  0  0  0  0
  -13.4189    1.1372    9.7752 C   0  0  0  0  0  0  0  0  0  0  0  0
  -13.9883    0.5351   10.9216 C   0  0  0  0  0  0  0  0  0  0  0  0
  -15.2094    0.0447   10.6982 N   0  0  0  0  0  0  0  0  0  0  0  0
  -15.4278    0.3311    9.3992 N   0  0  0  0  0  0  0  0  0  0  0  0
  -16.6871   -0.0081    8.7791 C   0  0  0  0  0  0  0  0  0  0  0  0
  -17.8791    0.4678    9.5803 C   0  0  0  0  0  0  0  0  0  0  0  0
  -19.0146    0.1745    8.8837 F   0  0  0  0  0  0  0  0  0  0  0  0
  -14.3924    0.9934    8.8084 C   0  0  0  0  0  0  0  0  0  0  0  0
   -9.8777    1.7925    8.7247 C   0  0  0  0  0  0  0  0  0  0  0  0
   -8.8520    1.2116    7.7242 C   0  0  0  0  0  0  0  0  0  0  0  0
   -6.4260   -0.5687    7.5249 C   0  0  0  0  0  0  0  0  0  0  0  0
   -5.3185   -1.1084    6.8581 C   0  0  0  0  0  0  0  0  0  0  0  0
   -3.9267   -0.6979    7.2408 C   0  0  0  0  0  0  0  0  0  0  0  0
   -3.4241   -1.4001    8.2854 F   0  0  0  0  0  0  0  0  0  0  0  0
   -3.0549   -0.8744    6.2122 F   0  0  0  0  0  0  0  0  0  0  0  0
   -3.8314    0.6178    7.5779 F   0  0  0  0  0  0  0  0  0  0  0  0
   -5.5289   -2.0026    5.8025 C   0  0  0  0  0  0  0  0  0  0  0  0
  1  2  3  0
  2  3  1  0
  3  4  2  0
  4  5  1  0
  5  6  1  0
  6  7  1  0
  7  8  1  0
  8  9  1  0
  9 10  1  0
 10 11  1  0
 11 12  1  0
 12 13  2  0
 13 14  1  0
 14 15  1  0
 15 16  1  0
 16 17  1  0
 14 18  1  0
  9 19  1  0
 19 20  1  0
  5 21  2  0
 21 22  1  0
 22 23  1  0
 23 24  1  0
 23 25  1  0
 23 26  1  0
 22 27  2  0
 27  3  1  0
 20  6  1  0
 18 11  2  0
M  END
>  <ref_mols>  (1636) 
B0426a

>  <gnina_score>  (1636) 
5.574

>  <smina_score_min>  (1636) 
-5.175

>  <ref_pdb>  (1636) 
B0426a

>  <inspiration_score>  (1636) 
None

>  <inchikey>  (1636) 
ARJOPQNSXHDEMB-UHFFFAOYSA-N

>  <tags>  (1636) 
BulkDock Fragalysis export,openbind_d68ev3c_c2_elabs_scored,openbind_d68ev3c_c2_elabs_scored_4.5plus,openbind_d68ev3c_c2_elabs,openbind_d68ev3c_c2_elabs_scored_5plus,syndirella_product,openbind_d68ev3c_c2_elabs_scored_top80percent,syndirella_placed

>  <smiles>  (1636) 
N#Cc1cc(N2CCN(Cc3cnn(CCF)c3)CC2)cc(C(F)(F)F)c1

>  <subsites>  (1636) 
None

>  <rmsd(smina/fragmenstein)>  (1636) 
0.633

>  <alias>  (1636) 
None

>  <energy_score>  (1636) 
-48.757945

>  <HIPPO Pose ID>  (1636) 
131676

>  <distance_score>  (1636) 
0.528029

>  <HIPPO Compound ID>  (1636) 
157711

>  <gnina_score_min>  (1636) 
5.568

>  <name>  (1636) 
P131676

>  <exports>  (1636) 
['/opt/xchem-fragalysis-2/maxwin/BulkDock/OUTPUTS/openbind_d68ev3c_c2_elabs_1LOTQJ3.sdf', '/opt/xchem-fragalysis-2/maxwin/BulkDock/OUTPUTS/openbind_d68ev3c_c2_elabs_1LSYI5W.sdf']

$$$$
P131677
     RDKit          3D

 27 29  0  0  0  0  0  0  0  0999 V2000
  -16.6683   -0.4571    7.2446 C   0  0  0  0  0  0  0  0  0  0  0  0
  -16.7563    0.1468    8.6371 C   0  0  0  0  0  0  0  0  0  0  0  0
  -15.4753    0.3861    9.2650 N   0  0  0  0  0  0  0  0  0  0  0  0
  -15.2613    0.0095   10.5471 N   0  0  0  0  0  0  0  0  0  0  0  0
  -14.0216    0.4493   10.7869 C   0  0  0  0  0  0  0  0  0  0  0  0
  -13.4546    1.1516    9.6942 C   0  0  0  0  0  0  0  0  0  0  0  0
  -12.1104    1.7792    9.6438 C   0  0  0  0  0  0  0  0  0  0  0  0
  -11.2438    1.2061    8.6012 N   0  0  0  0  0  0  0  0  0  0  0  0
  -11.1374   -0.2734    8.6956 C   0  0  0  0  0  0  0  0  0  0  0  0
  -10.1578   -0.8607    7.6582 C   0  0  0  0  0  0  0  0  0  0  0  0
   -8.8098   -0.2759    7.8320 N   0  0  0  0  0  0  0  0  0  0  0  0
   -7.7505   -0.8787    7.1458 C   0  0  0  0  0  0  0  0  0  0  0  0
   -7.9264   -1.7775    6.0828 C   0  0  0  0  0  0  0  0  0  0  0  0
   -6.8330   -2.3164    5.3951 C   0  0  0  0  0  0  0  0  0  0  0  0
   -7.0344   -3.0934    4.2067 C   0  0  0  0  0  0  0  0  0  0  0  0
   -7.1685   -3.6884    3.2170 N   0  0  0  0  0  0  0  0  0  0  0  0
   -5.5363   -2.0048    5.7992 C   0  0  0  0  0  0  0  0  0  0  0  0
   -5.3263   -1.1141    6.8577 C   0  0  0  0  0  0  0  0  0  0  0  0
   -3.9350   -0.7014    7.2396 C   0  0  0  0  0  0  0  0  0  0  0  0
   -3.4276   -1.4057    8.2806 F   0  0  0  0  0  0  0  0  0  0  0  0
   -3.0639   -0.8723    6.2088 F   0  0  0  0  0  0  0  0  0  0  0  0
   -3.8410    0.6135    7.5806 F   0  0  0  0  0  0  0  0  0  0  0  0
   -6.4345   -0.5797    7.5277 C   0  0  0  0  0  0  0  0  0  0  0  0
   -8.8476    1.2022    7.7535 C   0  0  0  0  0  0  0  0  0  0  0  0
   -9.8811    1.7760    8.7497 C   0  0  0  0  0  0  0  0  0  0  0  0
  -14.4509    1.1217    8.7505 C   0  0  0  0  0  0  0  0  0  0  0  0
  -14.4221    1.7107    7.5471 F   0  0  0  0  0  0  0  0  0  0  0  0
  1  2  1  0
  2  3  1  0
  3  4  1  0
  4  5  2  0
  5  6  1  0
  6  7  1  0
  7  8  1  0
  8  9  1  0
  9 10  1  0
 10 11  1  0
 11 12  1  0
 12 13  2  0
 13 14  1  0
 14 15  1  0
 15 16  3  0
 14 17  2  0
 17 18  1  0
 18 19  1  0
 19 20  1  0
 19 21  1  0
 19 22  1  0
 18 23  2  0
 11 24  1  0
 24 25  1  0
  6 26  2  0
 26 27  1  0
 26  3  1  0
 25  8  1  0
 23 12  1  0
M  END
>  <ref_mols>  (1637) 
B0426a

>  <gnina_score>  (1637) 
5.734

>  <smina_score_min>  (1637) 
-5.266

>  <ref_pdb>  (1637) 
B0426a

>  <inspiration_score>  (1637) 
None

>  <inchikey>  (1637) 
FZHYMBPRMKAZAA-UHFFFAOYSA-N

>  <tags>  (1637) 
BulkDock Fragalysis export,openbind_d68ev3c_c2_elabs_scored,openbind_d68ev3c_c2_elabs_scored_4.5plus,openbind_d68ev3c_c2_elabs,openbind_d68ev3c_c2_elabs_scored_5plus,syndirella_product,openbind_d68ev3c_c2_elabs_scored_top80percent,syndirella_placed

>  <smiles>  (1637) 
CCn1ncc(CN2CCN(c3cc(C#N)cc(C(F)(F)F)c3)CC2)c1F

>  <subsites>  (1637) 
None

>  <rmsd(smina/fragmenstein)>  (1637) 
0.489

>  <alias>  (1637) 
None

>  <energy_score>  (1637) 
-50.218835

>  <HIPPO Pose ID>  (1637) 
131677

>  <distance_score>  (1637) 
0.533829

>  <HIPPO Compound ID>  (1637) 
157715

>  <gnina_score_min>  (1637) 
5.652

>  <name>  (1637) 
P131677

>  <exports>  (1637) 
['/opt/xchem-fragalysis-2/maxwin/BulkDock/OUTPUTS/openbind_d68ev3c_c2_elabs_1LOTQJ3.sdf', '/opt/xchem-fragalysis-2/maxwin/BulkDock/OUTPUTS/openbind_d68ev3c_c2_elabs_1LSYI5W.sdf']

$$$$
P131679
     RDKit          3D

 27 29  0  0  0  0  0  0  0  0999 V2000
  -12.4184    3.9254   10.6587 C   0  0  0  0  0  0  0  0  0  0  0  0
  -12.2422    3.1895    9.4567 O   0  0  0  0  0  0  0  0  0  0  0  0
  -12.0714    1.7855    9.6909 C   0  0  1  0  0  0  0  0  0  0  0  0
  -13.4089    1.1155    9.7836 C   0  0  0  0  0  0  0  0  0  0  0  0
  -13.9550    0.4990   10.9347 C   0  0  0  0  0  0  0  0  0  0  0  0
  -15.1715   -0.0096   10.7274 N   0  0  0  0  0  0  0  0  0  0  0  0
  -15.4106    0.2801    9.4331 N   0  0  0  0  0  0  0  0  0  0  0  0
  -16.6741   -0.0635    8.8314 C   0  0  0  0  0  0  0  0  0  0  0  0
  -14.3952    0.9588    8.8295 C   0  0  0  0  0  0  0  0  0  0  0  0
  -11.2400    1.2113    8.6158 N   0  0  0  0  0  0  0  0  0  0  0  0
   -9.8777    1.7999    8.7127 C   0  0  0  0  0  0  0  0  0  0  0  0
   -8.8570    1.2116    7.7132 C   0  0  0  0  0  0  0  0  0  0  0  0
   -8.8055   -0.2634    7.8298 N   0  0  0  0  0  0  0  0  0  0  0  0
   -7.7481   -0.8706    7.1451 C   0  0  0  0  0  0  0  0  0  0  0  0
   -7.9255   -1.7710    6.0843 C   0  0  0  0  0  0  0  0  0  0  0  0
   -6.8322   -2.3125    5.3980 C   0  0  0  0  0  0  0  0  0  0  0  0
   -7.0357   -3.0887    4.2097 C   0  0  0  0  0  0  0  0  0  0  0  0
   -7.1786   -3.6808    3.2197 N   0  0  0  0  0  0  0  0  0  0  0  0
   -5.5353   -2.0026    5.8023 C   0  0  0  0  0  0  0  0  0  0  0  0
   -5.3246   -1.1093    6.8584 C   0  0  0  0  0  0  0  0  0  0  0  0
   -3.9325   -0.6982    7.2404 C   0  0  0  0  0  0  0  0  0  0  0  0
   -3.4287   -1.4016    8.2837 F   0  0  0  0  0  0  0  0  0  0  0  0
   -3.0611   -0.8730    6.2110 F   0  0  0  0  0  0  0  0  0  0  0  0
   -3.8373    0.6170    7.5794 F   0  0  0  0  0  0  0  0  0  0  0  0
   -6.4322   -0.5706    7.5259 C   0  0  0  0  0  0  0  0  0  0  0  0
  -10.1482   -0.8593    7.6829 C   0  0  0  0  0  0  0  0  0  0  0  0
  -11.1124   -0.2642    8.7300 C   0  0  0  0  0  0  0  0  0  0  0  0
  1  2  1  0
  3  2  1  6
  3  4  1  0
  4  5  1  0
  5  6  2  0
  6  7  1  0
  7  8  1  0
  7  9  1  0
  3 10  1  0
 10 11  1  0
 11 12  1  0
 12 13  1  0
 13 14  1  0
 14 15  2  0
 15 16  1  0
 16 17  1  0
 17 18  3  0
 16 19  2  0
 19 20  1  0
 20 21  1  0
 21 22  1  0
 21 23  1  0
 21 24  1  0
 20 25  2  0
 13 26  1  0
 26 27  1  0
  9  4  2  0
 27 10  1  0
 25 14  1  0
M  END
>  <ref_mols>  (1638) 
B0426a

>  <gnina_score>  (1638) 
5.723

>  <smina_score_min>  (1638) 
-5.302

>  <ref_pdb>  (1638) 
B0426a

>  <inspiration_score>  (1638) 
None

>  <inchikey>  (1638) 
SLFUOSUPHHGJLE-KRWDZBQOSA-N

>  <tags>  (1638) 
BulkDock Fragalysis export,openbind_d68ev3c_c2_elabs_scored,openbind_d68ev3c_c2_elabs_scored_4.5plus,openbind_d68ev3c_c2_elabs,openbind_d68ev3c_c2_elabs_scored_5plus,syndirella_product,openbind_d68ev3c_c2_elabs_scored_top80percent,syndirella_placed

>  <smiles>  (1638) 
CO[C@@H](c1cnn(C)c1)N1CCN(c2cc(C#N)cc(C(F)(F)F)c2)CC1

>  <subsites>  (1638) 
None

>  <rmsd(smina/fragmenstein)>  (1638) 
0.552

>  <alias>  (1638) 
None

>  <energy_score>  (1638) 
-38.932737

>  <HIPPO Pose ID>  (1638) 
131679

>  <distance_score>  (1638) 
0.518902

>  <HIPPO Compound ID>  (1638) 
157716

>  <gnina_score_min>  (1638) 
5.66

>  <name>  (1638) 
P131679

>  <exports>  (1638) 
['/opt/xchem-fragalysis-2/maxwin/BulkDock/OUTPUTS/openbind_d68ev3c_c2_elabs_1LOTQJ3.sdf', '/opt/xchem-fragalysis-2/maxwin/BulkDock/OUTPUTS/openbind_d68ev3c_c2_elabs_1LSYI5W.sdf']

$$$$
P131680
     RDKit          3D

 27 29  0  0  0  0  0  0  0  0999 V2000
  -16.9432   -0.6623    7.5473 C   0  0  0  0  0  0  0  0  0  0  0  0
  -16.8261    0.5683    8.4416 C   0  0  0  0  0  0  0  0  0  0  0  0
  -18.0403    0.7009    9.3636 C   0  0  0  0  0  0  0  0  0  0  0  0
  -15.5527    0.6036    9.1535 N   0  0  0  0  0  0  0  0  0  0  0  0
  -14.4128    1.1962    8.6858 C   0  0  0  0  0  0  0  0  0  0  0  0
  -13.4916    1.1461    9.7095 C   0  0  0  0  0  0  0  0  0  0  0  0
  -12.1011    1.6769    9.7589 C   0  0  0  0  0  0  0  0  0  0  0  0
  -11.2574    1.1778    8.6595 N   0  0  0  0  0  0  0  0  0  0  0  0
   -9.8853    1.7167    8.8415 C   0  0  0  0  0  0  0  0  0  0  0  0
   -8.8586    1.1828    7.8170 C   0  0  0  0  0  0  0  0  0  0  0  0
   -8.8361   -0.2974    7.8244 N   0  0  0  0  0  0  0  0  0  0  0  0
   -7.7709   -0.8882    7.1386 C   0  0  0  0  0  0  0  0  0  0  0  0
   -7.9399   -1.7836    6.0715 C   0  0  0  0  0  0  0  0  0  0  0  0
   -6.8432   -2.3174    5.3845 C   0  0  0  0  0  0  0  0  0  0  0  0
   -7.0408   -3.0937    4.1951 C   0  0  0  0  0  0  0  0  0  0  0  0
   -7.1732   -3.6894    3.2056 N   0  0  0  0  0  0  0  0  0  0  0  0
   -5.5482   -2.0029    5.7915 C   0  0  0  0  0  0  0  0  0  0  0  0
   -5.3432   -1.1161    6.8538 C   0  0  0  0  0  0  0  0  0  0  0  0
   -3.9532   -0.7004    7.2394 C   0  0  0  0  0  0  0  0  0  0  0  0
   -3.4454   -1.4059    8.2795 F   0  0  0  0  0  0  0  0  0  0  0  0
   -3.8637    0.6139    7.5843 F   0  0  0  0  0  0  0  0  0  0  0  0
   -3.0789   -0.8657    6.2099 F   0  0  0  0  0  0  0  0  0  0  0  0
   -6.4554   -0.5891    7.5247 C   0  0  0  0  0  0  0  0  0  0  0  0
  -10.1903   -0.8595    7.6179 C   0  0  0  0  0  0  0  0  0  0  0  0
  -11.1710   -0.3074    8.6737 C   0  0  0  0  0  0  0  0  0  0  0  0
  -14.1833    0.4848   10.7507 C   0  0  0  0  0  0  0  0  0  0  0  0
  -15.4362    0.1597   10.4223 N   0  0  0  0  0  0  0  0  0  0  0  0
  1  2  1  0
  2  3  1  0
  2  4  1  0
  4  5  1  0
  5  6  2  0
  6  7  1  0
  7  8  1  0
  8  9  1  0
  9 10  1  0
 10 11  1  0
 11 12  1  0
 12 13  2  0
 13 14  1  0
 14 15  1  0
 15 16  3  0
 14 17  2  0
 17 18  1  0
 18 19  1  0
 19 20  1  0
 19 21  1  0
 19 22  1  0
 18 23  2  0
 11 24  1  0
 24 25  1  0
  6 26  1  0
 26 27  2  0
 27  4  1  0
 25  8  1  0
 23 12  1  0
M  END
>  <ref_mols>  (1639) 
B0426a

>  <gnina_score>  (1639) 
5.69

>  <smina_score_min>  (1639) 
-5.371

>  <ref_pdb>  (1639) 
B0426a

>  <inspiration_score>  (1639) 
None

>  <inchikey>  (1639) 
WUQMRKHKPQUISD-UHFFFAOYSA-N

>  <tags>  (1639) 
BulkDock Fragalysis export,openbind_d68ev3c_c2_elabs_scored,openbind_d68ev3c_c2_elabs_scored_4.5plus,openbind_d68ev3c_c2_elabs,openbind_d68ev3c_c2_elabs_scored_5plus,syndirella_product,openbind_d68ev3c_c2_elabs_scored_top80percent,syndirella_placed

>  <smiles>  (1639) 
CC(C)n1cc(CN2CCN(c3cc(C#N)cc(C(F)(F)F)c3)CC2)cn1

>  <subsites>  (1639) 
None

>  <rmsd(smina/fragmenstein)>  (1639) 
0.542

>  <alias>  (1639) 
None

>  <energy_score>  (1639) 
-46.656819

>  <HIPPO Pose ID>  (1639) 
131680

>  <distance_score>  (1639) 
0.585202

>  <HIPPO Compound ID>  (1639) 
157717

>  <gnina_score_min>  (1639) 
5.712

>  <name>  (1639) 
P131680

>  <exports>  (1639) 
['/opt/xchem-fragalysis-2/maxwin/BulkDock/OUTPUTS/openbind_d68ev3c_c2_elabs_1LOTQJ3.sdf', '/opt/xchem-fragalysis-2/maxwin/BulkDock/OUTPUTS/openbind_d68ev3c_c2_elabs_1LSYI5W.sdf']

$$$$
P131681
     RDKit          3D

 27 29  0  0  0  0  0  0  0  0999 V2000
  -16.6423   -0.1291    8.8299 C   0  0  0  0  0  0  0  0  0  0  0  0
  -15.3810    0.2644    9.4058 N   0  0  0  0  0  0  0  0  0  0  0  0
  -14.3540    0.8629    8.7395 C   0  0  0  0  0  0  0  0  0  0  0  0
  -13.4047    1.1929    9.6931 C   0  0  0  0  0  0  0  0  0  0  0  0
  -12.0991    1.8943    9.5109 C   0  0  2  0  0  0  0  0  0  0  0  0
  -12.3524    3.2079    9.0393 O   0  0  0  0  0  0  0  0  0  0  0  0
  -11.2300    1.2464    8.5219 N   0  0  0  0  0  0  0  0  0  0  0  0
   -9.8668    1.8426    8.6390 C   0  0  0  0  0  0  0  0  0  0  0  0
   -8.8258    1.2192    7.6835 C   0  0  0  0  0  0  0  0  0  0  0  0
   -8.7740   -0.2496    7.8511 N   0  0  0  0  0  0  0  0  0  0  0  0
   -7.7235   -0.8718    7.1669 C   0  0  0  0  0  0  0  0  0  0  0  0
   -7.9103   -1.7751    6.1102 C   0  0  0  0  0  0  0  0  0  0  0  0
   -6.8220   -2.3187    5.4178 C   0  0  0  0  0  0  0  0  0  0  0  0
   -7.0332   -3.0905    4.2279 C   0  0  0  0  0  0  0  0  0  0  0  0
   -7.1826   -3.6753    3.2346 N   0  0  0  0  0  0  0  0  0  0  0  0
   -5.5223   -2.0109    5.8145 C   0  0  0  0  0  0  0  0  0  0  0  0
   -5.3039   -1.1162    6.8681 C   0  0  0  0  0  0  0  0  0  0  0  0
   -3.9099   -0.7053    7.2411 C   0  0  0  0  0  0  0  0  0  0  0  0
   -3.3999   -1.4082    8.2814 F   0  0  0  0  0  0  0  0  0  0  0  0
   -3.0464   -0.8810    6.2057 F   0  0  0  0  0  0  0  0  0  0  0  0
   -3.8126    0.6102    7.5779 F   0  0  0  0  0  0  0  0  0  0  0  0
   -6.4058   -0.5732    7.5401 C   0  0  0  0  0  0  0  0  0  0  0  0
  -10.1111   -0.8629    7.7406 C   0  0  0  0  0  0  0  0  0  0  0  0
  -11.0856   -0.2174    8.7490 C   0  0  0  0  0  0  0  0  0  0  0  0
  -13.9874    0.7418   10.9012 C   0  0  0  0  0  0  0  0  0  0  0  0
  -13.2272    0.9605   12.6117 Br  0  0  0  0  0  0  0  0  0  0  0  0
  -15.1711    0.1492   10.7286 N   0  0  0  0  0  0  0  0  0  0  0  0
  1  2  1  0
  2  3  1  0
  3  4  2  0
  4  5  1  0
  5  6  1  6
  5  7  1  0
  7  8  1  0
  8  9  1  0
  9 10  1  0
 10 11  1  0
 11 12  2  0
 12 13  1  0
 13 14  1  0
 14 15  3  0
 13 16  2  0
 16 17  1  0
 17 18  1  0
 18 19  1  0
 18 20  1  0
 18 21  1  0
 17 22  2  0
 10 23  1  0
 23 24  1  0
  4 25  1  0
 25 26  1  0
 25 27  2  0
 27  2  1  0
 24  7  1  0
 22 11  1  0
M  END
>  <ref_mols>  (1640) 
B0426a

>  <gnina_score>  (1640) 
5.685

>  <smina_score_min>  (1640) 
-5.907

>  <ref_pdb>  (1640) 
B0426a

>  <inspiration_score>  (1640) 
None

>  <inchikey>  (1640) 
YWBXRWJDKSVLBX-INIZCTEOSA-N

>  <tags>  (1640) 
BulkDock Fragalysis export,openbind_d68ev3c_c2_elabs_scored,openbind_d68ev3c_c2_elabs_scored_4.5plus,openbind_d68ev3c_c2_elabs,openbind_d68ev3c_c2_elabs_scored_5plus,syndirella_product,openbind_d68ev3c_c2_elabs_scored_top80percent,syndirella_placed

>  <smiles>  (1640) 
Cn1cc([C@H](O)N2CCN(c3cc(C#N)cc(C(F)(F)F)c3)CC2)c(Br)n1

>  <subsites>  (1640) 
None

>  <rmsd(smina/fragmenstein)>  (1640) 
0.854

>  <alias>  (1640) 
None

>  <energy_score>  (1640) 
-49.14582

>  <HIPPO Pose ID>  (1640) 
131681

>  <distance_score>  (1640) 
0.512917

>  <HIPPO Compound ID>  (1640) 
157718

>  <gnina_score_min>  (1640) 
5.839

>  <name>  (1640) 
P131681

>  <exports>  (1640) 
['/opt/xchem-fragalysis-2/maxwin/BulkDock/OUTPUTS/openbind_d68ev3c_c2_elabs_1LOTQJ3.sdf', '/opt/xchem-fragalysis-2/maxwin/BulkDock/OUTPUTS/openbind_d68ev3c_c2_elabs_1LSYI5W.sdf']

$$$$
P131684
     RDKit          3D

 27 29  0  0  0  0  0  0  0  0999 V2000
  -12.5891    2.0567    9.2566 C   0  0  0  0  0  0  0  0  0  0  0  0
  -11.4398    1.5121    8.5420 N   0  0  0  0  0  0  0  0  0  0  0  0
  -11.6571    0.0828    8.2338 C   0  0  0  0  0  0  0  0  0  0  0  0
  -10.4616   -0.5365    7.4831 C   0  0  0  0  0  0  0  0  0  0  0  0
   -9.1929   -0.3769    8.2487 N   0  0  0  0  0  0  0  0  0  0  0  0
   -8.1005   -1.0875    7.7250 C   0  0  0  0  0  0  0  0  0  0  0  0
   -8.2723   -2.3977    7.2621 C   0  0  0  0  0  0  0  0  0  0  0  0
   -7.2845   -3.0449    6.5352 C   0  0  0  0  0  0  0  0  0  0  0  0
   -6.0714   -2.4002    6.2864 C   0  0  0  0  0  0  0  0  0  0  0  0
   -5.3769   -2.7503    5.0952 N   0  0  0  0  0  0  0  0  0  0  0  0
   -6.0592   -2.0836    3.9725 C   0  0  1  0  0  0  0  0  0  0  0  0
   -5.0304   -1.3235    3.3697 O   0  0  0  0  0  0  0  0  0  0  0  0
   -6.7357   -2.9839    2.9894 C   0  0  0  0  0  0  0  0  0  0  0  0
   -6.1861   -4.0154    2.2439 C   0  0  0  0  0  0  0  0  0  0  0  0
   -7.1617   -4.4541    1.4028 N   0  0  0  0  0  0  0  0  0  0  0  0
   -7.0212   -5.3820    0.3065 C   0  0  0  0  0  0  0  0  0  0  0  0
   -8.3723   -3.9760    1.7267 N   0  0  0  0  0  0  0  0  0  0  0  0
   -8.0996   -3.0154    2.6148 C   0  0  0  0  0  0  0  0  0  0  0  0
   -9.4521   -1.9171    3.3292 Br  0  0  0  0  0  0  0  0  0  0  0  0
   -5.7594   -1.2151    6.9646 C   0  0  0  0  0  0  0  0  0  0  0  0
   -4.3636   -0.6408    6.9661 C   0  0  0  0  0  0  0  0  0  0  0  0
   -3.5153   -1.3112    7.7977 F   0  0  0  0  0  0  0  0  0  0  0  0
   -4.3133    0.6609    7.3815 F   0  0  0  0  0  0  0  0  0  0  0  0
   -3.7570   -0.6345    5.7406 F   0  0  0  0  0  0  0  0  0  0  0  0
   -6.7941   -0.5687    7.6661 C   0  0  0  0  0  0  0  0  0  0  0  0
   -8.9748    1.0242    8.6626 C   0  0  0  0  0  0  0  0  0  0  0  0
  -10.2152    1.6216    9.3616 C   0  0  0  0  0  0  0  0  0  0  0  0
  1  2  1  0
  2  3  1  0
  3  4  1  0
  4  5  1  0
  5  6  1  0
  6  7  2  0
  7  8  1  0
  8  9  2  0
  9 10  1  0
 10 11  1  0
 11 12  1  6
 11 13  1  0
 13 14  2  0
 14 15  1  0
 15 16  1  0
 15 17  1  0
 17 18  2  0
 18 19  1  0
  9 20  1  0
 20 21  1  0
 21 22  1  0
 21 23  1  0
 21 24  1  0
 20 25  2  0
  5 26  1  0
 26 27  1  0
 27  2  1  0
 25  6  1  0
 18 13  1  0
M  END
>  <ref_mols>  (1641) 
B0426a

>  <gnina_score>  (1641) 
5.457

>  <smina_score_min>  (1641) 
-5.995

>  <ref_pdb>  (1641) 
B0426a

>  <inspiration_score>  (1641) 
None

>  <inchikey>  (1641) 
VJYSPQOXNHLAAY-INIZCTEOSA-N

>  <tags>  (1641) 
BulkDock Fragalysis export,openbind_d68ev3c_c2_elabs_scored,openbind_d68ev3c_c2_elabs_scored_4.5plus,openbind_d68ev3c_c2_elabs,openbind_d68ev3c_c2_elabs_scored_5plus,syndirella_product,openbind_d68ev3c_c2_elabs_scored_top80percent,syndirella_placed

>  <smiles>  (1641) 
CN1CCN(c2ccc(N[C@@H](O)c3cn(C)nc3Br)c(C(F)(F)F)c2)CC1

>  <subsites>  (1641) 
None

>  <rmsd(smina/fragmenstein)>  (1641) 
0.441

>  <alias>  (1641) 
None

>  <energy_score>  (1641) 
-38.560324

>  <HIPPO Pose ID>  (1641) 
131684

>  <distance_score>  (1641) 
0.606633

>  <HIPPO Compound ID>  (1641) 
157719

>  <gnina_score_min>  (1641) 
5.512

>  <name>  (1641) 
P131684

>  <exports>  (1641) 
['/opt/xchem-fragalysis-2/maxwin/BulkDock/OUTPUTS/openbind_d68ev3c_c2_elabs_1LOTQJ3.sdf', '/opt/xchem-fragalysis-2/maxwin/BulkDock/OUTPUTS/openbind_d68ev3c_c2_elabs_1LSYI5W.sdf']

$$$$
P131685
     RDKit          3D

 27 29  0  0  0  0  0  0  0  0999 V2000
  -16.7174   -0.0777    8.8999 C   0  0  0  0  0  0  0  0  0  0  0  0
  -15.4328    0.2591    9.4534 N   0  0  0  0  0  0  0  0  0  0  0  0
  -15.1337   -0.0344   10.7375 N   0  0  0  0  0  0  0  0  0  0  0  0
  -13.9195    0.5051   10.8928 C   0  0  0  0  0  0  0  0  0  0  0  0
  -13.4271    1.1284    9.7176 C   0  0  0  0  0  0  0  0  0  0  0  0
  -12.1224    1.8265    9.5675 C   0  0  2  0  0  0  0  0  0  0  0  0
  -12.3544    3.1712    9.1854 O   0  0  0  0  0  0  0  0  0  0  0  0
  -11.2499    1.2242    8.5575 N   0  0  0  0  0  0  0  0  0  0  0  0
  -11.1334   -0.2514    8.6940 C   0  0  0  0  0  0  0  0  0  0  0  0
  -10.1490   -0.8573    7.6713 C   0  0  0  0  0  0  0  0  0  0  0  0
   -8.8045   -0.2715    7.8404 N   0  0  0  0  0  0  0  0  0  0  0  0
   -7.7447   -0.8800    7.1573 C   0  0  0  0  0  0  0  0  0  0  0  0
   -7.9207   -1.7800    6.0954 C   0  0  0  0  0  0  0  0  0  0  0  0
   -6.8272   -2.3182    5.4066 C   0  0  0  0  0  0  0  0  0  0  0  0
   -7.0308   -3.0915    4.2163 C   0  0  0  0  0  0  0  0  0  0  0  0
   -7.1750   -3.6801    3.2245 N   0  0  0  0  0  0  0  0  0  0  0  0
   -5.5306   -2.0063    5.8093 C   0  0  0  0  0  0  0  0  0  0  0  0
   -5.3206   -1.1152    6.8672 C   0  0  0  0  0  0  0  0  0  0  0  0
   -3.9287   -0.7005    7.2465 C   0  0  0  0  0  0  0  0  0  0  0  0
   -3.8370    0.6149    7.5853 F   0  0  0  0  0  0  0  0  0  0  0  0
   -3.4211   -1.4029    8.2885 F   0  0  0  0  0  0  0  0  0  0  0  0
   -3.0592   -0.8725    6.2151 F   0  0  0  0  0  0  0  0  0  0  0  0
   -6.4285   -0.5807    7.5383 C   0  0  0  0  0  0  0  0  0  0  0  0
   -8.8366    1.2052    7.7421 C   0  0  0  0  0  0  0  0  0  0  0  0
   -9.8817    1.7951    8.7154 C   0  0  0  0  0  0  0  0  0  0  0  0
  -14.4495    0.9502    8.8167 C   0  0  0  0  0  0  0  0  0  0  0  0
  -14.4828    1.3930    7.5521 F   0  0  0  0  0  0  0  0  0  0  0  0
  1  2  1  0
  2  3  1  0
  3  4  2  0
  4  5  1  0
  5  6  1  0
  6  7  1  6
  6  8  1  0
  8  9  1  0
  9 10  1  0
 10 11  1  0
 11 12  1  0
 12 13  2  0
 13 14  1  0
 14 15  1  0
 15 16  3  0
 14 17  2  0
 17 18  1  0
 18 19  1  0
 19 20  1  0
 19 21  1  0
 19 22  1  0
 18 23  2  0
 11 24  1  0
 24 25  1  0
  5 26  2  0
 26 27  1  0
 26  2  1  0
 25  8  1  0
 23 12  1  0
M  END
>  <ref_mols>  (1642) 
B0426a

>  <gnina_score>  (1642) 
5.564

>  <smina_score_min>  (1642) 
-5.501

>  <ref_pdb>  (1642) 
B0426a

>  <inspiration_score>  (1642) 
None

>  <inchikey>  (1642) 
ZZOMDVRJPXYWDT-INIZCTEOSA-N

>  <tags>  (1642) 
BulkDock Fragalysis export,openbind_d68ev3c_c2_elabs_scored,openbind_d68ev3c_c2_elabs_scored_4.5plus,openbind_d68ev3c_c2_elabs,openbind_d68ev3c_c2_elabs_scored_5plus,syndirella_product,openbind_d68ev3c_c2_elabs_scored_top80percent,syndirella_placed

>  <smiles>  (1642) 
Cn1ncc([C@H](O)N2CCN(c3cc(C#N)cc(C(F)(F)F)c3)CC2)c1F

>  <subsites>  (1642) 
None

>  <rmsd(smina/fragmenstein)>  (1642) 
0.507

>  <alias>  (1642) 
None

>  <energy_score>  (1642) 
-39.585513

>  <HIPPO Pose ID>  (1642) 
131685

>  <distance_score>  (1642) 
0.494531

>  <HIPPO Compound ID>  (1642) 
157720

>  <gnina_score_min>  (1642) 
5.298

>  <name>  (1642) 
P131685

>  <exports>  (1642) 
['/opt/xchem-fragalysis-2/maxwin/BulkDock/OUTPUTS/openbind_d68ev3c_c2_elabs_1LOTQJ3.sdf', '/opt/xchem-fragalysis-2/maxwin/BulkDock/OUTPUTS/openbind_d68ev3c_c2_elabs_1LSYI5W.sdf']

$$$$
P131688
     RDKit          3D

 27 29  0  0  0  0  0  0  0  0999 V2000
  -12.5870    2.1478    9.3042 C   0  0  0  0  0  0  0  0  0  0  0  0
  -11.4635    1.6129    8.5440 N   0  0  0  0  0  0  0  0  0  0  0  0
  -10.2013    1.7621    9.2984 C   0  0  0  0  0  0  0  0  0  0  0  0
   -8.9856    1.1663    8.5541 C   0  0  0  0  0  0  0  0  0  0  0  0
   -9.2064   -0.2488    8.1999 N   0  0  0  0  0  0  0  0  0  0  0  0
   -8.1299   -0.9837    7.6844 C   0  0  0  0  0  0  0  0  0  0  0  0
   -8.3211   -2.3027    7.2693 C   0  0  0  0  0  0  0  0  0  0  0  0
   -7.3328   -3.0036    6.5962 C   0  0  0  0  0  0  0  0  0  0  0  0
   -6.0888   -2.4252    6.3452 C   0  0  0  0  0  0  0  0  0  0  0  0
   -5.2639   -3.0180    5.3707 N   0  0  0  0  0  0  0  0  0  0  0  0
   -5.8059   -2.9453    4.0091 C   0  0  1  0  0  0  0  0  0  0  0  0
   -6.6924   -4.0242    3.8078 O   0  0  0  0  0  0  0  0  0  0  0  0
   -6.3887   -1.6610    3.5359 C   0  0  0  0  0  0  0  0  0  0  0  0
   -7.7472   -1.3670    3.2573 C   0  0  0  0  0  0  0  0  0  0  0  0
   -7.9418   -0.1048    2.8562 N   0  0  0  0  0  0  0  0  0  0  0  0
   -6.7050    0.4250    2.8946 N   0  0  0  0  0  0  0  0  0  0  0  0
   -6.5027    1.8042    2.5352 C   0  0  0  0  0  0  0  0  0  0  0  0
   -5.7569   -0.4651    3.2902 C   0  0  0  0  0  0  0  0  0  0  0  0
   -4.4447   -0.2271    3.4161 F   0  0  0  0  0  0  0  0  0  0  0  0
   -5.7757   -1.2077    6.9664 C   0  0  0  0  0  0  0  0  0  0  0  0
   -4.3747   -0.6513    7.0067 C   0  0  0  0  0  0  0  0  0  0  0  0
   -3.6353   -0.9486    5.8957 F   0  0  0  0  0  0  0  0  0  0  0  0
   -4.3197    0.7074    7.1210 F   0  0  0  0  0  0  0  0  0  0  0  0
   -3.6496   -1.1336    8.0563 F   0  0  0  0  0  0  0  0  0  0  0  0
   -6.8138   -0.4969    7.6082 C   0  0  0  0  0  0  0  0  0  0  0  0
  -10.4972   -0.4385    7.4803 C   0  0  0  0  0  0  0  0  0  0  0  0
  -11.6704    0.1756    8.2681 C   0  0  0  0  0  0  0  0  0  0  0  0
  1  2  1  0
  2  3  1  0
  3  4  1  0
  4  5  1  0
  5  6  1  0
  6  7  2  0
  7  8  1  0
  8  9  2  0
  9 10  1  0
 10 11  1  0
 11 12  1  1
 11 13  1  0
 13 14  1  0
 14 15  2  0
 15 16  1  0
 16 17  1  0
 16 18  1  0
 18 19  1  0
  9 20  1  0
 20 21  1  0
 21 22  1  0
 21 23  1  0
 21 24  1  0
 20 25  2  0
  5 26  1  0
 26 27  1  0
 27  2  1  0
 25  6  1  0
 18 13  2  0
M  END
>  <ref_mols>  (1643) 
B0426a

>  <gnina_score>  (1643) 
5.417

>  <smina_score_min>  (1643) 
-5.904

>  <ref_pdb>  (1643) 
B0426a

>  <inspiration_score>  (1643) 
None

>  <inchikey>  (1643) 
JEFGSDFWPICUSZ-INIZCTEOSA-N

>  <tags>  (1643) 
BulkDock Fragalysis export,openbind_d68ev3c_c2_elabs_scored,openbind_d68ev3c_c2_elabs_scored_4.5plus,openbind_d68ev3c_c2_elabs,openbind_d68ev3c_c2_elabs_scored_5plus,syndirella_product,openbind_d68ev3c_c2_elabs_scored_top80percent,syndirella_placed

>  <smiles>  (1643) 
CN1CCN(c2ccc(N[C@@H](O)c3cnn(C)c3F)c(C(F)(F)F)c2)CC1

>  <subsites>  (1643) 
None

>  <rmsd(smina/fragmenstein)>  (1643) 
0.708

>  <alias>  (1643) 
None

>  <energy_score>  (1643) 
-41.157969

>  <HIPPO Pose ID>  (1643) 
131688

>  <distance_score>  (1643) 
0.630498

>  <HIPPO Compound ID>  (1643) 
157721

>  <gnina_score_min>  (1643) 
5.556

>  <name>  (1643) 
P131688

>  <exports>  (1643) 
['/opt/xchem-fragalysis-2/maxwin/BulkDock/OUTPUTS/openbind_d68ev3c_c2_elabs_1LOTQJ3.sdf', '/opt/xchem-fragalysis-2/maxwin/BulkDock/OUTPUTS/openbind_d68ev3c_c2_elabs_1LSYI5W.sdf']

$$$$
P131689
     RDKit          3D

 27 30  0  0  0  0  0  0  0  0999 V2000
   -7.1799   -3.6822    3.2166 N   0  0  0  0  0  0  0  0  0  0  0  0
   -7.0397   -3.0863    4.2050 C   0  0  0  0  0  0  0  0  0  0  0  0
   -6.8361   -2.3085    5.3925 C   0  0  0  0  0  0  0  0  0  0  0  0
   -7.9292   -1.7704    6.0810 C   0  0  0  0  0  0  0  0  0  0  0  0
   -7.7540   -0.8722    7.1448 C   0  0  0  0  0  0  0  0  0  0  0  0
   -8.8143   -0.2764    7.8346 N   0  0  0  0  0  0  0  0  0  0  0  0
  -10.1588   -0.8698    7.6652 C   0  0  0  0  0  0  0  0  0  0  0  0
  -11.1369   -0.2945    8.7089 C   0  0  0  0  0  0  0  0  0  0  0  0
  -11.2603    1.1828    8.6112 N   0  0  0  0  0  0  0  0  0  0  0  0
  -12.1307    1.7376    9.6632 C   0  0  0  0  0  0  0  0  0  0  0  0
  -13.4745    1.0993    9.7109 C   0  0  0  0  0  0  0  0  0  0  0  0
  -14.1247    0.5593   10.8669 C   0  0  0  0  0  0  0  0  0  0  0  0
  -15.3409    0.0473   10.6118 N   0  0  0  0  0  0  0  0  0  0  0  0
  -15.4368    0.2343    9.2975 N   0  0  0  0  0  0  0  0  0  0  0  0
  -14.3967    0.8800    8.7208 C   0  0  0  0  0  0  0  0  0  0  0  0
  -14.6387    1.0768    7.2812 C   0  0  0  0  0  0  0  0  0  0  0  0
  -16.1677    0.8277    7.1814 C   0  0  0  0  0  0  0  0  0  0  0  0
  -16.5450   -0.0317    8.4039 C   0  0  0  0  0  0  0  0  0  0  0  0
   -9.9035    1.7663    8.7603 C   0  0  0  0  0  0  0  0  0  0  0  0
   -8.8632    1.2024    7.7639 C   0  0  0  0  0  0  0  0  0  0  0  0
   -6.4383   -0.5709    7.5251 C   0  0  0  0  0  0  0  0  0  0  0  0
   -5.3300   -1.1057    6.8551 C   0  0  0  0  0  0  0  0  0  0  0  0
   -3.9382   -0.6953    7.2386 C   0  0  0  0  0  0  0  0  0  0  0  0
   -3.4345   -1.3998    8.2813 F   0  0  0  0  0  0  0  0  0  0  0  0
   -3.8415    0.6196    7.5778 F   0  0  0  0  0  0  0  0  0  0  0  0
   -3.0660   -0.8704    6.2094 F   0  0  0  0  0  0  0  0  0  0  0  0
   -5.5397   -1.9966    5.7964 C   0  0  0  0  0  0  0  0  0  0  0  0
  1  2  3  0
  2  3  1  0
  3  4  2  0
  4  5  1  0
  5  6  1  0
  6  7  1  0
  7  8  1  0
  8  9  1  0
  9 10  1  0
 10 11  1  0
 11 12  1  0
 12 13  2  0
 13 14  1  0
 14 15  1  0
 15 16  1  0
 16 17  1  0
 17 18  1  0
  9 19  1  0
 19 20  1  0
  5 21  2  0
 21 22  1  0
 22 23  1  0
 23 24  1  0
 23 25  1  0
 23 26  1  0
 22 27  2  0
 27  3  1  0
 20  6  1  0
 15 11  2  0
 18 14  1  0
M  END
>  <ref_mols>  (1644) 
B0426a

>  <gnina_score>  (1644) 
5.757

>  <smina_score_min>  (1644) 
-5.496

>  <ref_pdb>  (1644) 
B0426a

>  <inspiration_score>  (1644) 
None

>  <inchikey>  (1644) 
PKAJZEQQHBQSPY-UHFFFAOYSA-N

>  <tags>  (1644) 
BulkDock Fragalysis export,openbind_d68ev3c_c2_elabs_scored,openbind_d68ev3c_c2_elabs_scored_4.5plus,openbind_d68ev3c_c2_elabs,openbind_d68ev3c_c2_elabs_scored_5plus,syndirella_product,openbind_d68ev3c_c2_elabs_scored_top80percent,syndirella_placed

>  <smiles>  (1644) 
N#Cc1cc(N2CCN(Cc3cnn4c3CCC4)CC2)cc(C(F)(F)F)c1

>  <subsites>  (1644) 
None

>  <rmsd(smina/fragmenstein)>  (1644) 
0.473

>  <alias>  (1644) 
None

>  <energy_score>  (1644) 
-42.084849

>  <HIPPO Pose ID>  (1644) 
131689

>  <distance_score>  (1644) 
0.522759

>  <HIPPO Compound ID>  (1644) 
157722

>  <gnina_score_min>  (1644) 
5.74

>  <name>  (1644) 
P131689

>  <exports>  (1644) 
['/opt/xchem-fragalysis-2/maxwin/BulkDock/OUTPUTS/openbind_d68ev3c_c2_elabs_1LOTQJ3.sdf', '/opt/xchem-fragalysis-2/maxwin/BulkDock/OUTPUTS/openbind_d68ev3c_c2_elabs_1LSYI5W.sdf']

$$$$
P131690
     RDKit          3D

 27 29  0  0  0  0  0  0  0  0999 V2000
   -5.8732   -0.0814    2.7654 C   0  0  0  0  0  0  0  0  0  0  0  0
   -5.2191   -1.2341    3.2810 O   0  0  0  0  0  0  0  0  0  0  0  0
   -6.1288   -2.1583    3.8896 C   0  0  2  0  0  0  0  0  0  0  0  0
   -5.3650   -2.7394    5.0079 N   0  0  0  0  0  0  0  0  0  0  0  0
   -6.0164   -2.3870    6.2174 C   0  0  0  0  0  0  0  0  0  0  0  0
   -7.2228   -3.0410    6.4780 C   0  0  0  0  0  0  0  0  0  0  0  0
   -8.2127   -2.4123    7.2206 C   0  0  0  0  0  0  0  0  0  0  0  0
   -8.0456   -1.1085    7.7007 C   0  0  0  0  0  0  0  0  0  0  0  0
   -9.1363   -0.4009    8.2345 N   0  0  0  0  0  0  0  0  0  0  0  0
  -10.4199   -0.5842    7.5016 C   0  0  0  0  0  0  0  0  0  0  0  0
  -11.6053    0.0434    8.2619 C   0  0  0  0  0  0  0  0  0  0  0  0
  -11.3921    1.4810    8.5332 N   0  0  0  0  0  0  0  0  0  0  0  0
  -12.5328    2.0342    9.2559 C   0  0  0  0  0  0  0  0  0  0  0  0
  -10.1556    1.6115    9.3324 C   0  0  0  0  0  0  0  0  0  0  0  0
   -8.9215    1.0075    8.6268 C   0  0  0  0  0  0  0  0  0  0  0  0
   -6.7374   -0.5931    7.6488 C   0  0  0  0  0  0  0  0  0  0  0  0
   -5.7028   -1.2228    6.9267 C   0  0  0  0  0  0  0  0  0  0  0  0
   -4.3130   -0.6423    6.9622 C   0  0  0  0  0  0  0  0  0  0  0  0
   -3.5547   -1.1523    7.9727 F   0  0  0  0  0  0  0  0  0  0  0  0
   -3.5934   -0.8563    5.8218 F   0  0  0  0  0  0  0  0  0  0  0  0
   -4.2949    0.7115    7.1441 F   0  0  0  0  0  0  0  0  0  0  0  0
   -6.6550   -3.1466    2.8965 C   0  0  0  0  0  0  0  0  0  0  0  0
   -7.9408   -3.1644    2.3064 C   0  0  0  0  0  0  0  0  0  0  0  0
   -8.0899   -4.1616    1.4292 N   0  0  0  0  0  0  0  0  0  0  0  0
   -6.8657   -4.7144    1.3767 N   0  0  0  0  0  0  0  0  0  0  0  0
   -6.5631   -5.6994    0.3706 C   0  0  0  0  0  0  0  0  0  0  0  0
   -6.0308   -4.2456    2.3400 C   0  0  0  0  0  0  0  0  0  0  0  0
  1  2  1  0
  2  3  1  0
  3  4  1  1
  4  5  1  0
  5  6  2  0
  6  7  1  0
  7  8  2  0
  8  9  1  0
  9 10  1  0
 10 11  1  0
 11 12  1  0
 12 13  1  0
 12 14  1  0
 14 15  1  0
  8 16  1  0
 16 17  2  0
 17 18  1  0
 18 19  1  0
 18 20  1  0
 18 21  1  0
  3 22  1  0
 22 23  1  0
 23 24  2  0
 24 25  1  0
 25 26  1  0
 25 27  1  0
 17  5  1  0
 27 22  2  0
 15  9  1  0
M  END
>  <ref_mols>  (1645) 
B0426a

>  <gnina_score>  (1645) 
5.426

>  <smina_score_min>  (1645) 
-5.724

>  <ref_pdb>  (1645) 
B0426a

>  <inspiration_score>  (1645) 
None

>  <inchikey>  (1645) 
MHSVGXCZMXIWFG-KRWDZBQOSA-N

>  <tags>  (1645) 
BulkDock Fragalysis export,openbind_d68ev3c_c2_elabs_scored,openbind_d68ev3c_c2_elabs_scored_4.5plus,openbind_d68ev3c_c2_elabs,openbind_d68ev3c_c2_elabs_scored_5plus,syndirella_product,openbind_d68ev3c_c2_elabs_scored_top80percent,syndirella_placed

>  <smiles>  (1645) 
CO[C@H](Nc1ccc(N2CCN(C)CC2)cc1C(F)(F)F)c1cnn(C)c1

>  <subsites>  (1645) 
None

>  <rmsd(smina/fragmenstein)>  (1645) 
0.542

>  <alias>  (1645) 
None

>  <energy_score>  (1645) 
-34.275502

>  <HIPPO Pose ID>  (1645) 
131690

>  <distance_score>  (1645) 
0.46071

>  <HIPPO Compound ID>  (1645) 
157723

>  <gnina_score_min>  (1645) 
5.52

>  <name>  (1645) 
P131690

>  <exports>  (1645) 
['/opt/xchem-fragalysis-2/maxwin/BulkDock/OUTPUTS/openbind_d68ev3c_c2_elabs_1LOTQJ3.sdf', '/opt/xchem-fragalysis-2/maxwin/BulkDock/OUTPUTS/openbind_d68ev3c_c2_elabs_1LSYI5W.sdf']

$$$$
P131692
     RDKit          3D

 27 29  0  0  0  0  0  0  0  0999 V2000
  -12.5244    2.0042    9.2669 C   0  0  0  0  0  0  0  0  0  0  0  0
  -11.3823    1.4362    8.5583 N   0  0  0  0  0  0  0  0  0  0  0  0
  -10.1590    1.5288    9.3787 C   0  0  0  0  0  0  0  0  0  0  0  0
   -8.9234    0.9203    8.6808 C   0  0  0  0  0  0  0  0  0  0  0  0
   -9.1429   -0.4760    8.2340 N   0  0  0  0  0  0  0  0  0  0  0  0
   -8.0468   -1.1304    7.6336 C   0  0  0  0  0  0  0  0  0  0  0  0
   -8.2152   -2.3321    6.9351 C   0  0  0  0  0  0  0  0  0  0  0  0
   -7.2170   -2.8399    6.1117 C   0  0  0  0  0  0  0  0  0  0  0  0
   -5.9963   -2.1769    6.0047 C   0  0  0  0  0  0  0  0  0  0  0  0
   -5.2858   -2.2847    4.7797 N   0  0  0  0  0  0  0  0  0  0  0  0
   -5.8091   -1.2680    3.8542 C   0  0  1  0  0  0  0  0  0  0  0  0
   -4.6542   -0.7273    3.2466 O   0  0  0  0  0  0  0  0  0  0  0  0
   -6.8259   -1.6508    2.8283 C   0  0  0  0  0  0  0  0  0  0  0  0
   -7.8121   -0.7652    2.3179 C   0  0  0  0  0  0  0  0  0  0  0  0
   -8.6118   -1.3280    1.4116 N   0  0  0  0  0  0  0  0  0  0  0  0
   -8.1239   -2.5760    1.2987 N   0  0  0  0  0  0  0  0  0  0  0  0
   -8.7217   -3.4874    0.3524 C   0  0  0  0  0  0  0  0  0  0  0  0
   -7.0804   -2.8265    2.1475 C   0  0  0  0  0  0  0  0  0  0  0  0
   -6.1660   -4.4874    2.3094 Br  0  0  0  0  0  0  0  0  0  0  0  0
   -5.6868   -1.1577    6.9138 C   0  0  0  0  0  0  0  0  0  0  0  0
   -4.2930   -0.5942    7.0406 C   0  0  0  0  0  0  0  0  0  0  0  0
   -4.2735    0.6802    7.5346 F   0  0  0  0  0  0  0  0  0  0  0  0
   -3.5019   -1.3166    7.8842 F   0  0  0  0  0  0  0  0  0  0  0  0
   -3.6037   -0.5131    5.8633 F   0  0  0  0  0  0  0  0  0  0  0  0
   -6.7284   -0.6452    7.7108 C   0  0  0  0  0  0  0  0  0  0  0  0
  -10.4363   -0.6293    7.5065 C   0  0  0  0  0  0  0  0  0  0  0  0
  -11.6162    0.0076    8.2672 C   0  0  0  0  0  0  0  0  0  0  0  0
  1  2  1  0
  2  3  1  0
  3  4  1  0
  4  5  1  0
  5  6  1  0
  6  7  2  0
  7  8  1  0
  8  9  2  0
  9 10  1  0
 10 11  1  0
 11 12  1  6
 11 13  1  0
 13 14  1  0
 14 15  2  0
 15 16  1  0
 16 17  1  0
 16 18  1  0
 18 19  1  0
  9 20  1  0
 20 21  1  0
 21 22  1  0
 21 23  1  0
 21 24  1  0
 20 25  2  0
  5 26  1  0
 26 27  1  0
 27  2  1  0
 25  6  1  0
 18 13  2  0
M  END
>  <ref_mols>  (1646) 
B0426a

>  <gnina_score>  (1646) 
5.519

>  <smina_score_min>  (1646) 
-5.657

>  <ref_pdb>  (1646) 
B0426a

>  <inspiration_score>  (1646) 
None

>  <inchikey>  (1646) 
MNHILYIVQCTUSE-INIZCTEOSA-N

>  <tags>  (1646) 
BulkDock Fragalysis export,openbind_d68ev3c_c2_elabs_scored,openbind_d68ev3c_c2_elabs_scored_4.5plus,openbind_d68ev3c_c2_elabs,openbind_d68ev3c_c2_elabs_scored_5plus,syndirella_product,openbind_d68ev3c_c2_elabs_scored_top80percent,syndirella_placed

>  <smiles>  (1646) 
CN1CCN(c2ccc(N[C@@H](O)c3cnn(C)c3Br)c(C(F)(F)F)c2)CC1

>  <subsites>  (1646) 
None

>  <rmsd(smina/fragmenstein)>  (1646) 
0.858

>  <alias>  (1646) 
None

>  <energy_score>  (1646) 
-47.503879

>  <HIPPO Pose ID>  (1646) 
131692

>  <distance_score>  (1646) 
0.57363

>  <HIPPO Compound ID>  (1646) 
157725

>  <gnina_score_min>  (1646) 
5.62

>  <name>  (1646) 
P131692

>  <exports>  (1646) 
['/opt/xchem-fragalysis-2/maxwin/BulkDock/OUTPUTS/openbind_d68ev3c_c2_elabs_1LOTQJ3.sdf', '/opt/xchem-fragalysis-2/maxwin/BulkDock/OUTPUTS/openbind_d68ev3c_c2_elabs_1LSYI5W.sdf']

$$$$
P131693
     RDKit          3D

 27 29  0  0  0  0  0  0  0  0999 V2000
  -16.7225   -0.0841    8.8503 C   0  0  0  0  0  0  0  0  0  0  0  0
  -15.4403    0.2728    9.4033 N   0  0  0  0  0  0  0  0  0  0  0  0
  -15.1733    0.0154   10.7019 N   0  0  0  0  0  0  0  0  0  0  0  0
  -13.9618    0.5485   10.8748 C   0  0  0  0  0  0  0  0  0  0  0  0
  -13.4328    1.1333    9.6963 C   0  0  0  0  0  0  0  0  0  0  0  0
  -12.1074    1.8110    9.5912 C   0  0  2  0  0  0  0  0  0  0  0  0
  -12.3040    3.1734    9.2530 O   0  0  0  0  0  0  0  0  0  0  0  0
  -11.2288    1.2185    8.5812 N   0  0  0  0  0  0  0  0  0  0  0  0
   -9.8613    1.7831    8.7486 C   0  0  0  0  0  0  0  0  0  0  0  0
   -8.8200    1.1994    7.7680 C   0  0  0  0  0  0  0  0  0  0  0  0
   -8.7925   -0.2788    7.8498 N   0  0  0  0  0  0  0  0  0  0  0  0
   -7.7357   -0.8853    7.1618 C   0  0  0  0  0  0  0  0  0  0  0  0
   -7.9156   -1.7823    6.0981 C   0  0  0  0  0  0  0  0  0  0  0  0
   -6.8247   -2.3197    5.4049 C   0  0  0  0  0  0  0  0  0  0  0  0
   -7.0327   -3.0906    4.2138 C   0  0  0  0  0  0  0  0  0  0  0  0
   -7.1803   -3.6773    3.2213 N   0  0  0  0  0  0  0  0  0  0  0  0
   -5.5267   -2.0095    5.8045 C   0  0  0  0  0  0  0  0  0  0  0  0
   -5.3131   -1.1213    6.8643 C   0  0  0  0  0  0  0  0  0  0  0  0
   -3.9207   -0.7073    7.2413 C   0  0  0  0  0  0  0  0  0  0  0  0
   -3.4103   -1.4115    8.2806 F   0  0  0  0  0  0  0  0  0  0  0  0
   -3.0541   -0.8778    6.2071 F   0  0  0  0  0  0  0  0  0  0  0  0
   -3.8277    0.6076    7.5817 F   0  0  0  0  0  0  0  0  0  0  0  0
   -6.4184   -0.5884    7.5401 C   0  0  0  0  0  0  0  0  0  0  0  0
  -10.1397   -0.8589    7.6796 C   0  0  0  0  0  0  0  0  0  0  0  0
  -11.1192   -0.2581    8.7090 C   0  0  0  0  0  0  0  0  0  0  0  0
  -14.4305    0.9331    8.7641 C   0  0  0  0  0  0  0  0  0  0  0  0
  -14.4067    1.4831    6.9408 Br  0  0  0  0  0  0  0  0  0  0  0  0
  1  2  1  0
  2  3  1  0
  3  4  2  0
  4  5  1  0
  5  6  1  0
  6  7  1  6
  6  8  1  0
  8  9  1  0
  9 10  1  0
 10 11  1  0
 11 12  1  0
 12 13  2  0
 13 14  1  0
 14 15  1  0
 15 16  3  0
 14 17  2  0
 17 18  1  0
 18 19  1  0
 19 20  1  0
 19 21  1  0
 19 22  1  0
 18 23  2  0
 11 24  1  0
 24 25  1  0
  5 26  2  0
 26 27  1  0
 26  2  1  0
 25  8  1  0
 23 12  1  0
M  END
>  <ref_mols>  (1647) 
B0426a

>  <gnina_score>  (1647) 
5.615

>  <smina_score_min>  (1647) 
-5.89

>  <ref_pdb>  (1647) 
B0426a

>  <inspiration_score>  (1647) 
None

>  <inchikey>  (1647) 
ONXVUYGOWOXGFX-INIZCTEOSA-N

>  <tags>  (1647) 
BulkDock Fragalysis export,openbind_d68ev3c_c2_elabs_scored,openbind_d68ev3c_c2_elabs_scored_4.5plus,openbind_d68ev3c_c2_elabs,openbind_d68ev3c_c2_elabs_scored_5plus,syndirella_product,openbind_d68ev3c_c2_elabs_scored_top80percent,syndirella_placed

>  <smiles>  (1647) 
Cn1ncc([C@H](O)N2CCN(c3cc(C#N)cc(C(F)(F)F)c3)CC2)c1Br

>  <subsites>  (1647) 
None

>  <rmsd(smina/fragmenstein)>  (1647) 
1.208

>  <alias>  (1647) 
None

>  <energy_score>  (1647) 
-52.012538

>  <HIPPO Pose ID>  (1647) 
131693

>  <distance_score>  (1647) 
0.500326

>  <HIPPO Compound ID>  (1647) 
157726

>  <gnina_score_min>  (1647) 
5.738

>  <name>  (1647) 
P131693

>  <exports>  (1647) 
['/opt/xchem-fragalysis-2/maxwin/BulkDock/OUTPUTS/openbind_d68ev3c_c2_elabs_1LOTQJ3.sdf', '/opt/xchem-fragalysis-2/maxwin/BulkDock/OUTPUTS/openbind_d68ev3c_c2_elabs_1LSYI5W.sdf']

$$$$
P131695
     RDKit          3D

 27 29  0  0  0  0  0  0  0  0999 V2000
  -16.7460   -0.0804    8.8986 C   0  0  0  0  0  0  0  0  0  0  0  0
  -15.4500    0.2781    9.4196 N   0  0  0  0  0  0  0  0  0  0  0  0
  -15.1653    0.0243   10.7149 N   0  0  0  0  0  0  0  0  0  0  0  0
  -13.9530    0.5574   10.8716 C   0  0  0  0  0  0  0  0  0  0  0  0
  -13.4370    1.1385    9.6849 C   0  0  0  0  0  0  0  0  0  0  0  0
  -12.1078    1.8140    9.5822 C   0  0  2  0  0  0  0  0  0  0  0  0
  -12.2983    3.1782    9.2472 O   0  0  0  0  0  0  0  0  0  0  0  0
  -11.2264    1.2186    8.5767 N   0  0  0  0  0  0  0  0  0  0  0  0
  -11.1151   -0.2573    8.7126 C   0  0  0  0  0  0  0  0  0  0  0  0
  -10.1363   -0.8609    7.6844 C   0  0  0  0  0  0  0  0  0  0  0  0
   -8.7896   -0.2788    7.8510 N   0  0  0  0  0  0  0  0  0  0  0  0
   -7.7334   -0.8860    7.1627 C   0  0  0  0  0  0  0  0  0  0  0  0
   -7.9140   -1.7831    6.0993 C   0  0  0  0  0  0  0  0  0  0  0  0
   -6.8235   -2.3206    5.4055 C   0  0  0  0  0  0  0  0  0  0  0  0
   -7.0320   -3.0912    4.2144 C   0  0  0  0  0  0  0  0  0  0  0  0
   -7.1801   -3.6774    3.2216 N   0  0  0  0  0  0  0  0  0  0  0  0
   -5.5253   -2.0104    5.8047 C   0  0  0  0  0  0  0  0  0  0  0  0
   -5.3112   -1.1222    6.8643 C   0  0  0  0  0  0  0  0  0  0  0  0
   -3.9187   -0.7082    7.2407 C   0  0  0  0  0  0  0  0  0  0  0  0
   -3.0526   -0.8786    6.2062 F   0  0  0  0  0  0  0  0  0  0  0  0
   -3.4079   -1.4123    8.2799 F   0  0  0  0  0  0  0  0  0  0  0  0
   -3.8255    0.6067    7.5811 F   0  0  0  0  0  0  0  0  0  0  0  0
   -6.4160   -0.5891    7.5403 C   0  0  0  0  0  0  0  0  0  0  0  0
   -8.8180    1.1991    7.7649 C   0  0  0  0  0  0  0  0  0  0  0  0
   -9.8598    1.7853    8.7434 C   0  0  0  0  0  0  0  0  0  0  0  0
  -14.4457    0.9336    8.7614 C   0  0  0  0  0  0  0  0  0  0  0  0
  -14.4452    1.5200    6.7560 I   0  0  0  0  0  0  0  0  0  0  0  0
  1  2  1  0
  2  3  1  0
  3  4  2  0
  4  5  1  0
  5  6  1  0
  6  7  1  6
  6  8  1  0
  8  9  1  0
  9 10  1  0
 10 11  1  0
 11 12  1  0
 12 13  2  0
 13 14  1  0
 14 15  1  0
 15 16  3  0
 14 17  2  0
 17 18  1  0
 18 19  1  0
 19 20  1  0
 19 21  1  0
 19 22  1  0
 18 23  2  0
 11 24  1  0
 24 25  1  0
  5 26  2  0
 26 27  1  0
 26  2  1  0
 25  8  1  0
 23 12  1  0
M  END
>  <ref_mols>  (1648) 
B0426a

>  <gnina_score>  (1648) 
5.66

>  <smina_score_min>  (1648) 
-5.454

>  <ref_pdb>  (1648) 
B0426a

>  <inspiration_score>  (1648) 
None

>  <inchikey>  (1648) 
KWWOLCJUSRHFPN-INIZCTEOSA-N

>  <tags>  (1648) 
BulkDock Fragalysis export,openbind_d68ev3c_c2_elabs_scored,openbind_d68ev3c_c2_elabs_scored_4.5plus,openbind_d68ev3c_c2_elabs,openbind_d68ev3c_c2_elabs_scored_5plus,syndirella_product,openbind_d68ev3c_c2_elabs_scored_top80percent,syndirella_placed

>  <smiles>  (1648) 
Cn1ncc([C@H](O)N2CCN(c3cc(C#N)cc(C(F)(F)F)c3)CC2)c1I

>  <subsites>  (1648) 
None

>  <rmsd(smina/fragmenstein)>  (1648) 
0.523

>  <alias>  (1648) 
None

>  <energy_score>  (1648) 
-43.047103

>  <HIPPO Pose ID>  (1648) 
131695

>  <distance_score>  (1648) 
0.499525

>  <HIPPO Compound ID>  (1648) 
157727

>  <gnina_score_min>  (1648) 
5.473

>  <name>  (1648) 
P131695

>  <exports>  (1648) 
['/opt/xchem-fragalysis-2/maxwin/BulkDock/OUTPUTS/openbind_d68ev3c_c2_elabs_1LOTQJ3.sdf', '/opt/xchem-fragalysis-2/maxwin/BulkDock/OUTPUTS/openbind_d68ev3c_c2_elabs_1LSYI5W.sdf']

$$$$
P131699
     RDKit          3D

 27 29  0  0  0  0  0  0  0  0999 V2000
   -9.8450    5.5475    7.0718 C   0  0  0  0  0  0  0  0  0  0  0  0
   -9.8675    4.0259    7.0631 C   0  0  0  0  0  0  0  0  0  0  0  0
   -9.6230    3.4578    8.4664 C   0  0  0  0  0  0  0  0  0  0  0  0
   -9.8401    1.9260    8.6080 C   0  0  2  0  0  0  0  0  0  0  0  0
   -8.7928    1.2182    7.6841 C   0  0  0  0  0  0  0  0  0  0  0  0
   -8.8242   -0.2463    7.8558 N   0  0  0  0  0  0  0  0  0  0  0  0
   -7.7482   -0.9698    7.3182 C   0  0  0  0  0  0  0  0  0  0  0  0
   -7.9033   -2.1809    6.6213 C   0  0  0  0  0  0  0  0  0  0  0  0
   -6.8131   -2.8935    6.1128 C   0  0  0  0  0  0  0  0  0  0  0  0
   -5.5264   -2.4073    6.2846 C   0  0  0  0  0  0  0  0  0  0  0  0
   -5.3211   -1.2201    6.9898 C   0  0  0  0  0  0  0  0  0  0  0  0
   -3.9288   -0.6980    7.1852 C   0  0  0  0  0  0  0  0  0  0  0  0
   -3.1798   -0.8364    6.0562 F   0  0  0  0  0  0  0  0  0  0  0  0
   -3.8757    0.6281    7.4957 F   0  0  0  0  0  0  0  0  0  0  0  0
   -3.2485   -1.3435    8.1679 F   0  0  0  0  0  0  0  0  0  0  0  0
   -6.4278   -0.5354    7.5176 C   0  0  0  0  0  0  0  0  0  0  0  0
  -10.1809   -0.7690    7.6248 C   0  0  0  0  0  0  0  0  0  0  0  0
  -11.2010   -0.0632    8.5373 C   0  0  0  0  0  0  0  0  0  0  0  0
  -11.2502    1.4262    8.3952 N   0  0  0  0  0  0  0  0  0  0  0  0
  -12.1854    2.0164    9.3846 C   0  0  1  0  0  0  0  0  0  0  0  0
  -12.8201    3.5652    8.7178 Cl  0  0  0  0  0  0  0  0  0  0  0  0
  -13.4120    1.2038    9.6790 C   0  0  0  0  0  0  0  0  0  0  0  0
  -13.7643    0.6324   10.9267 C   0  0  0  0  0  0  0  0  0  0  0  0
  -14.9555    0.0283   10.9052 N   0  0  0  0  0  0  0  0  0  0  0  0
  -15.3804    0.2223    9.6429 N   0  0  0  0  0  0  0  0  0  0  0  0
  -16.7238   -0.1292    9.2602 C   0  0  0  0  0  0  0  0  0  0  0  0
  -14.4783    0.8742    8.8599 C   0  0  0  0  0  0  0  0  0  0  0  0
  1  2  1  0
  2  3  1  0
  4  3  1  6
  4  5  1  0
  5  6  1  0
  6  7  1  0
  7  8  2  0
  8  9  1  0
  9 10  2  0
 10 11  1  0
 11 12  1  0
 12 13  1  0
 12 14  1  0
 12 15  1  0
 11 16  2  0
  6 17  1  0
 17 18  1  0
 18 19  1  0
 19 20  1  0
 20 21  1  6
 20 22  1  0
 22 23  1  0
 23 24  2  0
 24 25  1  0
 25 26  1  0
 25 27  1  0
 19  4  1  0
 27 22  2  0
 16  7  1  0
M  END
>  <ref_mols>  (1649) 
B0426a

>  <gnina_score>  (1649) 
5.931

>  <smina_score_min>  (1649) 
-5.432

>  <ref_pdb>  (1649) 
B0426a

>  <inspiration_score>  (1649) 
None

>  <inchikey>  (1649) 
NJTPHPHZXCUNMA-QZTJIDSGSA-N

>  <tags>  (1649) 
BulkDock Fragalysis export,openbind_d68ev3c_c2_elabs_scored,openbind_d68ev3c_c2_elabs_scored_4.5plus,openbind_d68ev3c_c2_elabs,openbind_d68ev3c_c2_elabs_scored_5plus,syndirella_product,openbind_d68ev3c_c2_elabs_scored_top80percent,syndirella_placed

>  <smiles>  (1649) 
CCC[C@@H]1CN(c2cccc(C(F)(F)F)c2)CCN1[C@@H](Cl)c1cnn(C)c1

>  <subsites>  (1649) 
None

>  <rmsd(smina/fragmenstein)>  (1649) 
0.511

>  <alias>  (1649) 
None

>  <energy_score>  (1649) 
-42.635281

>  <HIPPO Pose ID>  (1649) 
131699

>  <distance_score>  (1649) 
0.319604

>  <HIPPO Compound ID>  (1649) 
157730

>  <gnina_score_min>  (1649) 
5.978

>  <name>  (1649) 
P131699

>  <exports>  (1649) 
['/opt/xchem-fragalysis-2/maxwin/BulkDock/OUTPUTS/openbind_d68ev3c_c2_elabs_1LOTQJ3.sdf', '/opt/xchem-fragalysis-2/maxwin/BulkDock/OUTPUTS/openbind_d68ev3c_c2_elabs_1LSYI5W.sdf']

$$$$
P131701
     RDKit          3D

 27 29  0  0  0  0  0  0  0  0999 V2000
  -15.7789    2.1231   12.3325 C   0  0  0  0  0  0  0  0  0  0  0  0
  -14.5315    1.3483   12.1299 C   0  0  0  0  0  0  0  0  0  0  0  0
  -14.0561    0.6597   11.0230 C   0  0  0  0  0  0  0  0  0  0  0  0
  -14.6661    0.5091    9.6743 C   0  0  0  0  0  0  0  0  0  0  0  0
  -14.5387    1.7806    8.9531 N   0  0  0  0  0  0  0  0  0  0  0  0
  -13.1612    2.0047    8.4790 C   0  0  0  0  0  0  0  0  0  0  0  0
  -12.9088    1.4106    7.0765 C   0  0  0  0  0  0  0  0  0  0  0  0
  -11.6131    0.7893    6.8011 N   0  0  0  0  0  0  0  0  0  0  0  0
  -11.4553   -0.5085    7.4906 C   0  0  0  0  0  0  0  0  0  0  0  0
  -10.1931   -1.2357    6.9961 C   0  0  0  0  0  0  0  0  0  0  0  0
   -8.9758   -0.4167    7.1992 N   0  0  0  0  0  0  0  0  0  0  0  0
   -7.7519   -1.0483    6.9122 C   0  0  0  0  0  0  0  0  0  0  0  0
   -7.6627   -2.3108    6.3017 C   0  0  0  0  0  0  0  0  0  0  0  0
   -6.4360   -2.9237    6.0444 C   0  0  0  0  0  0  0  0  0  0  0  0
   -5.2557   -2.2911    6.4065 C   0  0  0  0  0  0  0  0  0  0  0  0
   -5.2969   -1.0408    7.0312 C   0  0  0  0  0  0  0  0  0  0  0  0
   -4.0288   -0.3689    7.4720 C   0  0  0  0  0  0  0  0  0  0  0  0
   -3.7565   -0.5719    8.7860 F   0  0  0  0  0  0  0  0  0  0  0  0
   -2.9333   -0.8072    6.7908 F   0  0  0  0  0  0  0  0  0  0  0  0
   -4.0479    0.9824    7.2956 F   0  0  0  0  0  0  0  0  0  0  0  0
   -6.5434   -0.4407    7.2859 C   0  0  0  0  0  0  0  0  0  0  0  0
   -9.1113    0.9609    6.6640 C   0  0  0  0  0  0  0  0  0  0  0  0
  -10.4410    1.6280    7.1126 C   0  0  0  0  0  0  0  0  0  0  0  0
  -12.8010    0.1637   11.4400 C   0  0  0  0  0  0  0  0  0  0  0  0
  -12.5204    0.4717   12.7018 N   0  0  0  0  0  0  0  0  0  0  0  0
  -13.5414    1.2547   13.0748 N   0  0  0  0  0  0  0  0  0  0  0  0
  -13.4862    1.9008   14.3623 C   0  0  0  0  0  0  0  0  0  0  0  0
  1  2  1  0
  2  3  2  0
  3  4  1  0
  4  5  1  0
  5  6  1  0
  6  7  1  0
  7  8  1  0
  8  9  1  0
  9 10  1  0
 10 11  1  0
 11 12  1  0
 12 13  2  0
 13 14  1  0
 14 15  2  0
 15 16  1  0
 16 17  1  0
 17 18  1  0
 17 19  1  0
 17 20  1  0
 16 21  2  0
 11 22  1  0
 22 23  1  0
  3 24  1  0
 24 25  2  0
 25 26  1  0
 26 27  1  0
 26  2  1  0
 23  8  1  0
 21 12  1  0
M  END
>  <ref_mols>  (1650) 
B0426a

>  <gnina_score>  (1650) 
5.611

>  <smina_score_min>  (1650) 
-5.905

>  <ref_pdb>  (1650) 
B0426a

>  <inspiration_score>  (1650) 
None

>  <inchikey>  (1650) 
TVRDGMFLIMQDOB-UHFFFAOYSA-N

>  <tags>  (1650) 
BulkDock Fragalysis export,openbind_d68ev3c_c2_elabs_scored,openbind_d68ev3c_c2_elabs_scored_4.5plus,openbind_d68ev3c_c2_elabs,openbind_d68ev3c_c2_elabs_scored_5plus,syndirella_product,openbind_d68ev3c_c2_elabs_scored_top80percent,syndirella_placed

>  <smiles>  (1650) 
Cc1c(CNCCN2CCN(c3cccc(C(F)(F)F)c3)CC2)cnn1C

>  <subsites>  (1650) 
None

>  <rmsd(smina/fragmenstein)>  (1650) 
1.085

>  <alias>  (1650) 
None

>  <energy_score>  (1650) 
-32.39533

>  <HIPPO Pose ID>  (1650) 
131701

>  <distance_score>  (1650) 
1.103872

>  <HIPPO Compound ID>  (1650) 
157731

>  <gnina_score_min>  (1650) 
5.541

>  <name>  (1650) 
P131701

>  <exports>  (1650) 
['/opt/xchem-fragalysis-2/maxwin/BulkDock/OUTPUTS/openbind_d68ev3c_c2_elabs_1LOTQJ3.sdf', '/opt/xchem-fragalysis-2/maxwin/BulkDock/OUTPUTS/openbind_d68ev3c_c2_elabs_1LSYI5W.sdf']

$$$$
P131702
     RDKit          3D

 27 29  0  0  0  0  0  0  0  0999 V2000
  -10.4663    5.3937    6.9476 C   0  0  0  0  0  0  0  0  0  0  0  0
  -10.4887    3.8771    7.0702 C   0  0  0  0  0  0  0  0  0  0  0  0
   -9.8502    3.4184    8.3856 C   0  0  0  0  0  0  0  0  0  0  0  0
   -9.8617    1.8848    8.6170 C   0  0  2  0  0  0  0  0  0  0  0  0
   -8.8459    1.2108    7.6364 C   0  0  0  0  0  0  0  0  0  0  0  0
   -8.7869   -0.2482    7.8544 N   0  0  0  0  0  0  0  0  0  0  0  0
   -7.7163   -0.9488    7.2904 C   0  0  0  0  0  0  0  0  0  0  0  0
   -7.8701   -2.1534    6.5812 C   0  0  0  0  0  0  0  0  0  0  0  0
   -6.7791   -2.8633    6.0744 C   0  0  0  0  0  0  0  0  0  0  0  0
   -5.4946   -2.3776    6.2602 C   0  0  0  0  0  0  0  0  0  0  0  0
   -5.2947   -1.1885    6.9669 C   0  0  0  0  0  0  0  0  0  0  0  0
   -3.9037   -0.6732    7.1760 C   0  0  0  0  0  0  0  0  0  0  0  0
   -3.8437    0.6559    7.4702 F   0  0  0  0  0  0  0  0  0  0  0  0
   -3.2399   -1.3124    8.1739 F   0  0  0  0  0  0  0  0  0  0  0  0
   -3.1432   -0.8325    6.0577 F   0  0  0  0  0  0  0  0  0  0  0  0
   -6.4025   -0.5012    7.4860 C   0  0  0  0  0  0  0  0  0  0  0  0
  -10.1249   -0.8589    7.7631 C   0  0  0  0  0  0  0  0  0  0  0  0
  -11.0955   -0.1914    8.7509 C   0  0  0  0  0  0  0  0  0  0  0  0
  -11.2298    1.2790    8.5578 N   0  0  0  0  0  0  0  0  0  0  0  0
  -12.1031    1.8635    9.5964 C   0  0  0  0  0  0  0  0  0  0  0  0
  -13.4302    1.1862    9.7071 C   0  0  0  0  0  0  0  0  0  0  0  0
  -13.9737    0.6136   10.8812 C   0  0  0  0  0  0  0  0  0  0  0  0
  -15.1839    0.0873   10.6921 N   0  0  0  0  0  0  0  0  0  0  0  0
  -15.4175    0.3047    9.3818 N   0  0  0  0  0  0  0  0  0  0  0  0
  -16.6756   -0.1012    8.8042 C   0  0  0  0  0  0  0  0  0  0  0  0
  -14.4049    0.9761    8.7453 C   0  0  0  0  0  0  0  0  0  0  0  0
  -14.4413    1.3240    7.3021 C   0  0  0  0  0  0  0  0  0  0  0  0
  1  2  1  0
  2  3  1  0
  4  3  1  6
  4  5  1  0
  5  6  1  0
  6  7  1  0
  7  8  2  0
  8  9  1  0
  9 10  2  0
 10 11  1  0
 11 12  1  0
 12 13  1  0
 12 14  1  0
 12 15  1  0
 11 16  2  0
  6 17  1  0
 17 18  1  0
 18 19  1  0
 19 20  1  0
 20 21  1  0
 21 22  1  0
 22 23  2  0
 23 24  1  0
 24 25  1  0
 24 26  1  0
 26 27  1  0
 19  4  1  0
 26 21  2  0
 16  7  1  0
M  END
>  <ref_mols>  (1651) 
B0426a

>  <gnina_score>  (1651) 
5.765

>  <smina_score_min>  (1651) 
-5.345

>  <ref_pdb>  (1651) 
B0426a

>  <inspiration_score>  (1651) 
None

>  <inchikey>  (1651) 
HBJHAXRERMPKJB-LJQANCHMSA-N

>  <tags>  (1651) 
BulkDock Fragalysis export,openbind_d68ev3c_c2_elabs_scored,openbind_d68ev3c_c2_elabs_scored_4.5plus,openbind_d68ev3c_c2_elabs,openbind_d68ev3c_c2_elabs_scored_5plus,syndirella_product,openbind_d68ev3c_c2_elabs_scored_top80percent,syndirella_placed

>  <smiles>  (1651) 
CCC[C@@H]1CN(c2cccc(C(F)(F)F)c2)CCN1Cc1cnn(C)c1C

>  <subsites>  (1651) 
None

>  <rmsd(smina/fragmenstein)>  (1651) 
0.622

>  <alias>  (1651) 
None

>  <energy_score>  (1651) 
-59.123122

>  <HIPPO Pose ID>  (1651) 
131702

>  <distance_score>  (1651) 
0.394541

>  <HIPPO Compound ID>  (1651) 
157732

>  <gnina_score_min>  (1651) 
5.743

>  <name>  (1651) 
P131702

>  <exports>  (1651) 
['/opt/xchem-fragalysis-2/maxwin/BulkDock/OUTPUTS/openbind_d68ev3c_c2_elabs_1LOTQJ3.sdf', '/opt/xchem-fragalysis-2/maxwin/BulkDock/OUTPUTS/openbind_d68ev3c_c2_elabs_1LSYI5W.sdf']

$$$$
P131705
     RDKit          3D

 27 29  0  0  0  0  0  0  0  0999 V2000
  -10.2382    4.3460   10.2308 C   0  0  0  0  0  0  0  0  0  0  0  0
  -10.7799    3.0266   10.7609 C   0  0  0  0  0  0  0  0  0  0  0  0
  -10.2706    1.7659   10.0414 C   0  0  0  0  0  0  0  0  0  0  0  0
  -10.3692    1.7597    8.4988 C   0  0  1  0  0  0  0  0  0  0  0  0
   -9.0872    1.1139    7.8497 C   0  0  0  0  0  0  0  0  0  0  0  0
   -9.0944   -0.3701    7.8431 N   0  0  0  0  0  0  0  0  0  0  0  0
   -7.9345   -1.0302    7.3712 C   0  0  0  0  0  0  0  0  0  0  0  0
   -7.9802   -2.3141    6.7876 C   0  0  0  0  0  0  0  0  0  0  0  0
   -6.8410   -2.9825    6.3272 C   0  0  0  0  0  0  0  0  0  0  0  0
   -5.5969   -2.3903    6.4502 C   0  0  0  0  0  0  0  0  0  0  0  0
   -5.4845   -1.1347    7.0512 C   0  0  0  0  0  0  0  0  0  0  0  0
   -4.1189   -0.5265    7.2078 C   0  0  0  0  0  0  0  0  0  0  0  0
   -3.3656   -0.6698    6.0792 F   0  0  0  0  0  0  0  0  0  0  0  0
   -4.1324    0.8103    7.4681 F   0  0  0  0  0  0  0  0  0  0  0  0
   -3.3952   -1.0980    8.2073 F   0  0  0  0  0  0  0  0  0  0  0  0
   -6.6465   -0.4805    7.5162 C   0  0  0  0  0  0  0  0  0  0  0  0
  -10.3865   -0.9102    7.3488 C   0  0  0  0  0  0  0  0  0  0  0  0
  -11.6066   -0.2918    8.0544 C   0  0  0  0  0  0  0  0  0  0  0  0
  -11.6110    1.1686    7.9754 N   0  0  0  0  0  0  0  0  0  0  0  0
  -12.8559    1.8620    8.2781 C   0  0  0  0  0  0  0  0  0  0  0  0
  -13.8500    1.1291    9.1229 C   0  0  0  0  0  0  0  0  0  0  0  0
  -13.9125    1.0277   10.5032 C   0  0  0  0  0  0  0  0  0  0  0  0
  -15.0959    0.4157   10.7986 N   0  0  0  0  0  0  0  0  0  0  0  0
  -15.6957    0.2752   12.1026 C   0  0  0  0  0  0  0  0  0  0  0  0
  -15.7914    0.0436    9.7160 N   0  0  0  0  0  0  0  0  0  0  0  0
  -15.0265    0.4541    8.7033 C   0  0  0  0  0  0  0  0  0  0  0  0
  -15.5588    0.2046    6.9117 Br  0  0  0  0  0  0  0  0  0  0  0  0
  1  2  1  0
  2  3  1  0
  4  3  1  1
  4  5  1  0
  5  6  1  0
  6  7  1  0
  7  8  2  0
  8  9  1  0
  9 10  2  0
 10 11  1  0
 11 12  1  0
 12 13  1  0
 12 14  1  0
 12 15  1  0
 11 16  2  0
  6 17  1  0
 17 18  1  0
 18 19  1  0
 19 20  1  0
 20 21  1  0
 21 22  2  0
 22 23  1  0
 23 24  1  0
 23 25  1  0
 25 26  2  0
 26 27  1  0
 19  4  1  0
 26 21  1  0
 16  7  1  0
M  END
>  <ref_mols>  (1652) 
B0426a

>  <gnina_score>  (1652) 
5.917

>  <smina_score_min>  (1652) 
-5.702

>  <ref_pdb>  (1652) 
B0426a

>  <inspiration_score>  (1652) 
None

>  <inchikey>  (1652) 
VNSLENZSCFNYLG-KRWDZBQOSA-N

>  <tags>  (1652) 
BulkDock Fragalysis export,openbind_d68ev3c_c2_elabs_scored,openbind_d68ev3c_c2_elabs_scored_4.5plus,openbind_d68ev3c_c2_elabs,openbind_d68ev3c_c2_elabs_scored_5plus,syndirella_product,openbind_d68ev3c_c2_elabs_scored_top80percent,syndirella_placed

>  <smiles>  (1652) 
CCC[C@H]1CN(c2cccc(C(F)(F)F)c2)CCN1Cc1cn(C)nc1Br

>  <subsites>  (1652) 
None

>  <rmsd(smina/fragmenstein)>  (1652) 
0.663

>  <alias>  (1652) 
None

>  <energy_score>  (1652) 
-32.083853

>  <HIPPO Pose ID>  (1652) 
131705

>  <distance_score>  (1652) 
0.439519

>  <HIPPO Compound ID>  (1652) 
157734

>  <gnina_score_min>  (1652) 
5.732

>  <name>  (1652) 
P131705

>  <exports>  (1652) 
['/opt/xchem-fragalysis-2/maxwin/BulkDock/OUTPUTS/openbind_d68ev3c_c2_elabs_1LOTQJ3.sdf', '/opt/xchem-fragalysis-2/maxwin/BulkDock/OUTPUTS/openbind_d68ev3c_c2_elabs_1LSYI5W.sdf']

$$$$
P131706
     RDKit          3D

 27 29  0  0  0  0  0  0  0  0999 V2000
  -13.0948    1.4886   14.2969 C   0  0  0  0  0  0  0  0  0  0  0  0
  -14.0837    1.2249   13.2820 N   0  0  0  0  0  0  0  0  0  0  0  0
  -13.9183    1.3540   11.9366 C   0  0  0  0  0  0  0  0  0  0  0  0
  -15.1226    1.0065   11.3487 C   0  0  0  0  0  0  0  0  0  0  0  0
  -15.4774    1.0883    9.9075 C   0  0  0  0  0  0  0  0  0  0  0  0
  -14.8766    0.0410    9.1098 N   0  0  0  0  0  0  0  0  0  0  0  0
  -13.4159    0.0298    9.0386 C   0  0  0  0  0  0  0  0  0  0  0  0
  -12.7522    1.2964    8.4390 C   0  0  0  0  0  0  0  0  0  0  0  0
  -11.3573    1.1601    7.9794 N   0  0  0  0  0  0  0  0  0  0  0  0
  -10.3927    0.9514    9.0839 C   0  0  0  0  0  0  0  0  0  0  0  0
   -8.9338    0.7399    8.5867 C   0  0  0  0  0  0  0  0  0  0  0  0
   -8.9055   -0.3712    7.6232 N   0  0  0  0  0  0  0  0  0  0  0  0
   -7.7344   -1.0386    7.2973 C   0  0  0  0  0  0  0  0  0  0  0  0
   -7.8213   -2.3379    6.7648 C   0  0  0  0  0  0  0  0  0  0  0  0
   -6.6932   -3.0473    6.3652 C   0  0  0  0  0  0  0  0  0  0  0  0
   -5.4416   -2.4674    6.5079 C   0  0  0  0  0  0  0  0  0  0  0  0
   -5.3139   -1.1877    7.0650 C   0  0  0  0  0  0  0  0  0  0  0  0
   -3.9461   -0.5919    7.2105 C   0  0  0  0  0  0  0  0  0  0  0  0
   -3.2171   -0.7387    6.0695 F   0  0  0  0  0  0  0  0  0  0  0  0
   -3.9451    0.7434    7.4783 F   0  0  0  0  0  0  0  0  0  0  0  0
   -3.2160   -1.1756    8.1969 F   0  0  0  0  0  0  0  0  0  0  0  0
   -6.4629   -0.4881    7.4663 C   0  0  0  0  0  0  0  0  0  0  0  0
   -9.8014   -0.1311    6.4776 C   0  0  0  0  0  0  0  0  0  0  0  0
  -11.2321    0.0607    6.9939 C   0  0  0  0  0  0  0  0  0  0  0  0
  -15.9420    0.6921   12.4598 C   0  0  0  0  0  0  0  0  0  0  0  0
  -17.7486    0.1742   12.3583 Br  0  0  0  0  0  0  0  0  0  0  0  0
  -15.3193    0.8319   13.6323 N   0  0  0  0  0  0  0  0  0  0  0  0
  1  2  1  0
  2  3  1  0
  3  4  2  0
  4  5  1  0
  5  6  1  0
  6  7  1  0
  7  8  1  0
  8  9  1  0
  9 10  1  0
 10 11  1  0
 11 12  1  0
 12 13  1  0
 13 14  2  0
 14 15  1  0
 15 16  2  0
 16 17  1  0
 17 18  1  0
 18 19  1  0
 18 20  1  0
 18 21  1  0
 17 22  2  0
 12 23  1  0
 23 24  1  0
  4 25  1  0
 25 26  1  0
 25 27  2  0
 27  2  1  0
 24  9  1  0
 22 13  1  0
M  END
>  <ref_mols>  (1653) 
B0426a

>  <gnina_score>  (1653) 
5.598

>  <smina_score_min>  (1653) 
-6.352

>  <ref_pdb>  (1653) 
B0426a

>  <inspiration_score>  (1653) 
None

>  <inchikey>  (1653) 
MVZJIJULCPNANH-UHFFFAOYSA-N

>  <tags>  (1653) 
BulkDock Fragalysis export,openbind_d68ev3c_c2_elabs_scored,openbind_d68ev3c_c2_elabs_scored_4.5plus,openbind_d68ev3c_c2_elabs,openbind_d68ev3c_c2_elabs_scored_5plus,syndirella_product,openbind_d68ev3c_c2_elabs_scored_top80percent,syndirella_placed

>  <smiles>  (1653) 
Cn1cc(CNCCN2CCN(c3cccc(C(F)(F)F)c3)CC2)c(Br)n1

>  <subsites>  (1653) 
None

>  <rmsd(smina/fragmenstein)>  (1653) 
0.631

>  <alias>  (1653) 
None

>  <energy_score>  (1653) 
-42.540259

>  <HIPPO Pose ID>  (1653) 
131706

>  <distance_score>  (1653) 
0.778624

>  <HIPPO Compound ID>  (1653) 
157735

>  <gnina_score_min>  (1653) 
5.518

>  <name>  (1653) 
P131706

>  <exports>  (1653) 
['/opt/xchem-fragalysis-2/maxwin/BulkDock/OUTPUTS/openbind_d68ev3c_c2_elabs_1LOTQJ3.sdf', '/opt/xchem-fragalysis-2/maxwin/BulkDock/OUTPUTS/openbind_d68ev3c_c2_elabs_1LSYI5W.sdf']

$$$$
P131707
     RDKit          3D

 27 29  0  0  0  0  0  0  0  0999 V2000
  -19.0661    1.3120    7.5880 C   0  0  0  0  0  0  0  0  0  0  0  0
  -17.8548    0.7744    8.1572 N   0  0  0  0  0  0  0  0  0  0  0  0
  -17.0498    0.0208    7.3951 N   0  0  0  0  0  0  0  0  0  0  0  0
  -16.0172   -0.2522    8.1957 C   0  0  0  0  0  0  0  0  0  0  0  0
  -16.1776    0.2711    9.5041 C   0  0  0  0  0  0  0  0  0  0  0  0
  -15.2649    0.1301   10.6708 C   0  0  0  0  0  0  0  0  0  0  0  0
  -13.8529    0.2572   10.3174 N   0  0  0  0  0  0  0  0  0  0  0  0
  -13.5330    1.5375    9.6683 C   0  0  0  0  0  0  0  0  0  0  0  0
  -12.0246    1.8616    9.7020 C   0  0  0  0  0  0  0  0  0  0  0  0
  -11.1870    1.3311    8.6060 N   0  0  0  0  0  0  0  0  0  0  0  0
  -11.2014   -0.1490    8.5605 C   0  0  0  0  0  0  0  0  0  0  0  0
  -10.1858   -0.7695    7.5744 C   0  0  0  0  0  0  0  0  0  0  0  0
   -8.8154   -0.2714    7.8265 N   0  0  0  0  0  0  0  0  0  0  0  0
   -7.7383   -0.9725    7.2781 C   0  0  0  0  0  0  0  0  0  0  0  0
   -7.8887   -2.1707    6.5580 C   0  0  0  0  0  0  0  0  0  0  0  0
   -6.7969   -2.8796    6.0480 C   0  0  0  0  0  0  0  0  0  0  0  0
   -5.5107   -2.4008    6.2382 C   0  0  0  0  0  0  0  0  0  0  0  0
   -5.3095   -1.2236    6.9604 C   0  0  0  0  0  0  0  0  0  0  0  0
   -3.9190   -0.7058    7.1737 C   0  0  0  0  0  0  0  0  0  0  0  0
   -3.2509   -1.3561    8.1618 F   0  0  0  0  0  0  0  0  0  0  0  0
   -3.8640    0.6193    7.4882 F   0  0  0  0  0  0  0  0  0  0  0  0
   -3.1580   -0.8439    6.0527 F   0  0  0  0  0  0  0  0  0  0  0  0
   -6.4186   -0.5436    7.4894 C   0  0  0  0  0  0  0  0  0  0  0  0
   -8.7740    1.2056    7.8232 C   0  0  0  0  0  0  0  0  0  0  0  0
   -9.7898    1.7735    8.8365 C   0  0  0  0  0  0  0  0  0  0  0  0
  -17.3973    0.9191    9.4352 C   0  0  0  0  0  0  0  0  0  0  0  0
  -18.2781    1.8396   10.8501 Br  0  0  0  0  0  0  0  0  0  0  0  0
  1  2  1  0
  2  3  1  0
  3  4  2  0
  4  5  1  0
  5  6  1  0
  6  7  1  0
  7  8  1  0
  8  9  1  0
  9 10  1  0
 10 11  1  0
 11 12  1  0
 12 13  1  0
 13 14  1  0
 14 15  2  0
 15 16  1  0
 16 17  2  0
 17 18  1  0
 18 19  1  0
 19 20  1  0
 19 21  1  0
 19 22  1  0
 18 23  2  0
 13 24  1  0
 24 25  1  0
  5 26  2  0
 26 27  1  0
 26  2  1  0
 25 10  1  0
 23 14  1  0
M  END
>  <ref_mols>  (1654) 
B0426a

>  <gnina_score>  (1654) 
5.224

>  <smina_score_min>  (1654) 
-5.7

>  <ref_pdb>  (1654) 
B0426a

>  <inspiration_score>  (1654) 
None

>  <inchikey>  (1654) 
YSXAAOGWHWIFOF-UHFFFAOYSA-N

>  <tags>  (1654) 
BulkDock Fragalysis export,openbind_d68ev3c_c2_elabs_scored,openbind_d68ev3c_c2_elabs_scored_4.5plus,openbind_d68ev3c_c2_elabs,openbind_d68ev3c_c2_elabs_scored_5plus,syndirella_product,openbind_d68ev3c_c2_elabs_scored_top80percent,syndirella_placed

>  <smiles>  (1654) 
Cn1ncc(CNCCN2CCN(c3cccc(C(F)(F)F)c3)CC2)c1Br

>  <subsites>  (1654) 
None

>  <rmsd(smina/fragmenstein)>  (1654) 
1.341

>  <alias>  (1654) 
None

>  <energy_score>  (1654) 
-41.621155

>  <HIPPO Pose ID>  (1654) 
131707

>  <distance_score>  (1654) 
0.557442

>  <HIPPO Compound ID>  (1654) 
157736

>  <gnina_score_min>  (1654) 
5.228

>  <name>  (1654) 
P131707

>  <exports>  (1654) 
['/opt/xchem-fragalysis-2/maxwin/BulkDock/OUTPUTS/openbind_d68ev3c_c2_elabs_1LOTQJ3.sdf', '/opt/xchem-fragalysis-2/maxwin/BulkDock/OUTPUTS/openbind_d68ev3c_c2_elabs_1LSYI5W.sdf']

$$$$
P131709
     RDKit          3D

 27 29  0  0  0  0  0  0  0  0999 V2000
  -17.8981   -0.0244    9.3507 C   0  0  0  0  0  0  0  0  0  0  0  0
  -16.7366    0.2935    8.7631 C   0  0  0  0  0  0  0  0  0  0  0  0
  -15.5118    0.4514    9.4214 N   0  0  0  0  0  0  0  0  0  0  0  0
  -14.3794    0.9627    8.8088 C   0  0  0  0  0  0  0  0  0  0  0  0
  -13.4166    1.1584    9.7737 C   0  0  0  0  0  0  0  0  0  0  0  0
  -12.0707    1.7913    9.6651 C   0  0  0  0  0  0  0  0  0  0  0  0
  -11.2467    1.2364    8.5731 N   0  0  0  0  0  0  0  0  0  0  0  0
  -11.0945   -0.2357    8.7447 C   0  0  0  0  0  0  0  0  0  0  0  0
  -10.1348   -0.8888    7.7364 C   0  0  0  0  0  0  0  0  0  0  0  0
   -8.8030   -0.2692    7.8199 N   0  0  0  0  0  0  0  0  0  0  0  0
   -7.7246   -0.9637    7.2654 C   0  0  0  0  0  0  0  0  0  0  0  0
   -7.8664   -2.1692    6.5557 C   0  0  0  0  0  0  0  0  0  0  0  0
   -6.7674   -2.8736    6.0590 C   0  0  0  0  0  0  0  0  0  0  0  0
   -5.4870   -2.3813    6.2554 C   0  0  0  0  0  0  0  0  0  0  0  0
   -5.2990   -1.1908    6.9626 C   0  0  0  0  0  0  0  0  0  0  0  0
   -3.9118   -0.6690    7.1828 C   0  0  0  0  0  0  0  0  0  0  0  0
   -3.2544   -1.3035    8.1878 F   0  0  0  0  0  0  0  0  0  0  0  0
   -3.1410   -0.8262    6.0716 F   0  0  0  0  0  0  0  0  0  0  0  0
   -3.8614    0.6607    7.4760 F   0  0  0  0  0  0  0  0  0  0  0  0
   -6.4148   -0.5087    7.4718 C   0  0  0  0  0  0  0  0  0  0  0  0
   -8.8724    1.1880    7.6009 C   0  0  0  0  0  0  0  0  0  0  0  0
   -9.8781    1.8535    8.5977 C   0  0  1  0  0  0  0  0  0  0  0  0
   -9.8870    3.3860    8.3577 C   0  0  0  0  0  0  0  0  0  0  0  0
  -10.5835    3.8304    7.0670 C   0  0  0  0  0  0  0  0  0  0  0  0
  -10.5667    5.3456    6.9267 C   0  0  0  0  0  0  0  0  0  0  0  0
  -14.0180    0.6530   10.9407 C   0  0  0  0  0  0  0  0  0  0  0  0
  -15.2614    0.2180   10.7438 N   0  0  0  0  0  0  0  0  0  0  0  0
  1  2  2  0
  2  3  1  0
  3  4  1  0
  4  5  2  0
  5  6  1  0
  6  7  1  0
  7  8  1  0
  8  9  1  0
  9 10  1  0
 10 11  1  0
 11 12  2  0
 12 13  1  0
 13 14  2  0
 14 15  1  0
 15 16  1  0
 16 17  1  0
 16 18  1  0
 16 19  1  0
 15 20  2  0
 10 21  1  0
 21 22  1  0
 22 23  1  6
 23 24  1  0
 24 25  1  0
  5 26  1  0
 26 27  2  0
 27  3  1  0
 22  7  1  0
 20 11  1  0
M  END
>  <ref_mols>  (1655) 
B0426a

>  <gnina_score>  (1655) 
5.709

>  <smina_score_min>  (1655) 
-5.265

>  <ref_pdb>  (1655) 
B0426a

>  <inspiration_score>  (1655) 
None

>  <inchikey>  (1655) 
ANNLUBAEKGVKSV-LJQANCHMSA-N

>  <tags>  (1655) 
BulkDock Fragalysis export,openbind_d68ev3c_c2_elabs_scored,openbind_d68ev3c_c2_elabs_scored_4.5plus,openbind_d68ev3c_c2_elabs,openbind_d68ev3c_c2_elabs_scored_5plus,syndirella_product,openbind_d68ev3c_c2_elabs_scored_top80percent,syndirella_placed

>  <smiles>  (1655) 
C=Cn1cc(CN2CCN(c3cccc(C(F)(F)F)c3)C[C@H]2CCC)cn1

>  <subsites>  (1655) 
None

>  <rmsd(smina/fragmenstein)>  (1655) 
0.673

>  <alias>  (1655) 
None

>  <energy_score>  (1655) 
-52.423854

>  <HIPPO Pose ID>  (1655) 
131709

>  <distance_score>  (1655) 
0.430372

>  <HIPPO Compound ID>  (1655) 
157737

>  <gnina_score_min>  (1655) 
5.811

>  <name>  (1655) 
P131709

>  <exports>  (1655) 
['/opt/xchem-fragalysis-2/maxwin/BulkDock/OUTPUTS/openbind_d68ev3c_c2_elabs_1LOTQJ3.sdf', '/opt/xchem-fragalysis-2/maxwin/BulkDock/OUTPUTS/openbind_d68ev3c_c2_elabs_1LSYI5W.sdf']

$$$$
P131712
     RDKit          3D

 27 29  0  0  0  0  0  0  0  0999 V2000
   -8.7100    5.6882    7.5547 C   0  0  0  0  0  0  0  0  0  0  0  0
   -8.5535    4.1924    7.7906 C   0  0  0  0  0  0  0  0  0  0  0  0
   -9.9149    3.5094    7.9691 C   0  0  0  0  0  0  0  0  0  0  0  0
   -9.8753    2.0172    8.4137 C   0  0  2  0  0  0  0  0  0  0  0  0
   -8.8306    1.2428    7.5402 C   0  0  0  0  0  0  0  0  0  0  0  0
   -8.7722   -0.1906    7.8809 N   0  0  0  0  0  0  0  0  0  0  0  0
   -7.7115   -0.9246    7.3300 C   0  0  0  0  0  0  0  0  0  0  0  0
   -7.8829   -2.1487    6.6593 C   0  0  0  0  0  0  0  0  0  0  0  0
   -6.8024   -2.8752    6.1532 C   0  0  0  0  0  0  0  0  0  0  0  0
   -5.5127   -2.3900    6.3064 C   0  0  0  0  0  0  0  0  0  0  0  0
   -5.2959   -1.1856    6.9814 C   0  0  0  0  0  0  0  0  0  0  0  0
   -3.8987   -0.6743    7.1610 C   0  0  0  0  0  0  0  0  0  0  0  0
   -3.2185   -1.3138    8.1479 F   0  0  0  0  0  0  0  0  0  0  0  0
   -3.8289    0.6551    7.4515 F   0  0  0  0  0  0  0  0  0  0  0  0
   -3.1607   -0.8384    6.0285 F   0  0  0  0  0  0  0  0  0  0  0  0
   -6.3927   -0.4788    7.4966 C   0  0  0  0  0  0  0  0  0  0  0  0
  -10.0972   -0.8178    7.8557 C   0  0  0  0  0  0  0  0  0  0  0  0
  -11.0738   -0.0603    8.7657 C   0  0  0  0  0  0  0  0  0  0  0  0
  -11.2480    1.3727    8.3926 N   0  0  0  0  0  0  0  0  0  0  0  0
  -12.1787    2.0556    9.3068 C   0  0  1  0  0  0  0  0  0  0  0  0
  -12.6392    3.2263    8.6523 O   0  0  0  0  0  0  0  0  0  0  0  0
  -13.3904    1.2458    9.6559 C   0  0  0  0  0  0  0  0  0  0  0  0
  -13.7061    0.6796   10.9153 C   0  0  0  0  0  0  0  0  0  0  0  0
  -14.8916    0.0629   10.9253 N   0  0  0  0  0  0  0  0  0  0  0  0
  -15.3534    0.2590    9.6765 N   0  0  0  0  0  0  0  0  0  0  0  0
  -16.7023   -0.1091    9.3313 C   0  0  0  0  0  0  0  0  0  0  0  0
  -14.4805    0.9222    8.8688 C   0  0  0  0  0  0  0  0  0  0  0  0
  1  2  1  0
  2  3  1  0
  4  3  1  6
  4  5  1  0
  5  6  1  0
  6  7  1  0
  7  8  2  0
  8  9  1  0
  9 10  2  0
 10 11  1  0
 11 12  1  0
 12 13  1  0
 12 14  1  0
 12 15  1  0
 11 16  2  0
  6 17  1  0
 17 18  1  0
 18 19  1  0
 19 20  1  0
 20 21  1  6
 20 22  1  0
 22 23  1  0
 23 24  2  0
 24 25  1  0
 25 26  1  0
 25 27  1  0
 19  4  1  0
 27 22  2  0
 16  7  1  0
M  END
>  <ref_mols>  (1656) 
B0426a

>  <gnina_score>  (1656) 
5.599

>  <smina_score_min>  (1656) 
-5.684

>  <ref_pdb>  (1656) 
B0426a

>  <inspiration_score>  (1656) 
None

>  <inchikey>  (1656) 
HDHCLDWXULZSQU-MSOLQXFVSA-N

>  <tags>  (1656) 
BulkDock Fragalysis export,openbind_d68ev3c_c2_elabs_scored,openbind_d68ev3c_c2_elabs_scored_4.5plus,openbind_d68ev3c_c2_elabs,openbind_d68ev3c_c2_elabs_scored_5plus,syndirella_product,openbind_d68ev3c_c2_elabs_scored_top80percent,syndirella_placed

>  <smiles>  (1656) 
CCC[C@@H]1CN(c2cccc(C(F)(F)F)c2)CCN1[C@@H](O)c1cnn(C)c1

>  <subsites>  (1656) 
None

>  <rmsd(smina/fragmenstein)>  (1656) 
0.966

>  <alias>  (1656) 
None

>  <energy_score>  (1656) 
-49.617057

>  <HIPPO Pose ID>  (1656) 
131712

>  <distance_score>  (1656) 
0.375735

>  <HIPPO Compound ID>  (1656) 
157739

>  <gnina_score_min>  (1656) 
5.676

>  <name>  (1656) 
P131712

>  <exports>  (1656) 
['/opt/xchem-fragalysis-2/maxwin/BulkDock/OUTPUTS/openbind_d68ev3c_c2_elabs_1LOTQJ3.sdf', '/opt/xchem-fragalysis-2/maxwin/BulkDock/OUTPUTS/openbind_d68ev3c_c2_elabs_1LSYI5W.sdf']

$$$$
P131714
     RDKit          3D

 27 29  0  0  0  0  0  0  0  0999 V2000
  -12.9338    1.6544   14.5930 C   0  0  0  0  0  0  0  0  0  0  0  0
  -12.9732    0.9499   13.4635 C   0  0  0  0  0  0  0  0  0  0  0  0
  -14.1040    0.7588   12.6846 N   0  0  0  0  0  0  0  0  0  0  0  0
  -14.0402    0.1881   11.4368 C   0  0  0  0  0  0  0  0  0  0  0  0
  -15.2246    0.4542   10.7928 C   0  0  0  0  0  0  0  0  0  0  0  0
  -15.5191    0.3186    9.3491 C   0  0  0  0  0  0  0  0  0  0  0  0
  -14.3047    0.5149    8.5533 N   0  0  0  0  0  0  0  0  0  0  0  0
  -13.6174    1.7919    8.7973 C   0  0  0  0  0  0  0  0  0  0  0  0
  -12.5305    2.1315    7.7571 C   0  0  0  0  0  0  0  0  0  0  0  0
  -11.3145    1.3295    7.6372 N   0  0  0  0  0  0  0  0  0  0  0  0
  -10.3091    1.5464    8.6861 C   0  0  0  0  0  0  0  0  0  0  0  0
   -8.9553    0.9130    8.2730 C   0  0  0  0  0  0  0  0  0  0  0  0
   -9.0561   -0.5163    7.8864 N   0  0  0  0  0  0  0  0  0  0  0  0
   -7.8770   -1.1608    7.4450 C   0  0  0  0  0  0  0  0  0  0  0  0
   -7.9136   -2.4670    6.9189 C   0  0  0  0  0  0  0  0  0  0  0  0
   -6.7759   -3.1112    6.4274 C   0  0  0  0  0  0  0  0  0  0  0  0
   -5.5449   -2.4778    6.4865 C   0  0  0  0  0  0  0  0  0  0  0  0
   -5.4425   -1.2062    7.0560 C   0  0  0  0  0  0  0  0  0  0  0  0
   -4.0909   -0.5587    7.1631 C   0  0  0  0  0  0  0  0  0  0  0  0
   -3.3217   -1.1026    8.1444 F   0  0  0  0  0  0  0  0  0  0  0  0
   -3.3699   -0.6886    6.0130 F   0  0  0  0  0  0  0  0  0  0  0  0
   -4.1331    0.7789    7.4182 F   0  0  0  0  0  0  0  0  0  0  0  0
   -6.6041   -0.5688    7.5350 C   0  0  0  0  0  0  0  0  0  0  0  0
  -10.2601   -0.8448    7.0745 C   0  0  0  0  0  0  0  0  0  0  0  0
  -11.5363   -0.1191    7.5377 C   0  0  0  0  0  0  0  0  0  0  0  0
  -16.0385    0.9790   11.8115 C   0  0  0  0  0  0  0  0  0  0  0  0
  -15.3851    1.1317   12.9641 N   0  0  0  0  0  0  0  0  0  0  0  0
  1  2  2  0
  2  3  1  0
  3  4  1  0
  4  5  2  0
  5  6  1  0
  6  7  1  0
  7  8  1  0
  8  9  1  0
  9 10  1  0
 10 11  1  0
 11 12  1  0
 12 13  1  0
 13 14  1  0
 14 15  2  0
 15 16  1  0
 16 17  2  0
 17 18  1  0
 18 19  1  0
 19 20  1  0
 19 21  1  0
 19 22  1  0
 18 23  2  0
 13 24  1  0
 24 25  1  0
  5 26  1  0
 26 27  2  0
 27  3  1  0
 25 10  1  0
 23 14  1  0
M  END
>  <ref_mols>  (1657) 
B0426a

>  <gnina_score>  (1657) 
5.584

>  <smina_score_min>  (1657) 
-6.261

>  <ref_pdb>  (1657) 
B0426a

>  <inspiration_score>  (1657) 
None

>  <inchikey>  (1657) 
IEDJYSVKNFWWPV-UHFFFAOYSA-N

>  <tags>  (1657) 
BulkDock Fragalysis export,openbind_d68ev3c_c2_elabs_scored,openbind_d68ev3c_c2_elabs_scored_4.5plus,openbind_d68ev3c_c2_elabs,openbind_d68ev3c_c2_elabs_scored_5plus,syndirella_product,openbind_d68ev3c_c2_elabs_scored_top80percent,syndirella_placed

>  <smiles>  (1657) 
C=Cn1cc(CNCCN2CCN(c3cccc(C(F)(F)F)c3)CC2)cn1

>  <subsites>  (1657) 
None

>  <rmsd(smina/fragmenstein)>  (1657) 
1.945

>  <alias>  (1657) 
None

>  <energy_score>  (1657) 
-44.971561

>  <HIPPO Pose ID>  (1657) 
131714

>  <distance_score>  (1657) 
0.554061

>  <HIPPO Compound ID>  (1657) 
157741

>  <gnina_score_min>  (1657) 
5.693

>  <name>  (1657) 
P131714

>  <exports>  (1657) 
['/opt/xchem-fragalysis-2/maxwin/BulkDock/OUTPUTS/openbind_d68ev3c_c2_elabs_1LOTQJ3.sdf', '/opt/xchem-fragalysis-2/maxwin/BulkDock/OUTPUTS/openbind_d68ev3c_c2_elabs_1LSYI5W.sdf']

$$$$
P131715
     RDKit          3D

 27 29  0  0  0  0  0  0  0  0999 V2000
  -10.5174    5.3552    6.8159 C   0  0  0  0  0  0  0  0  0  0  0  0
  -10.5138    3.8419    6.9761 C   0  0  0  0  0  0  0  0  0  0  0  0
   -9.8723    3.4270    8.3044 C   0  0  0  0  0  0  0  0  0  0  0  0
   -9.8658    1.9004    8.5778 C   0  0  2  0  0  0  0  0  0  0  0  0
   -8.8465    1.2104    7.6113 C   0  0  0  0  0  0  0  0  0  0  0  0
   -8.7729   -0.2417    7.8672 N   0  0  0  0  0  0  0  0  0  0  0  0
   -7.7050   -0.9453    7.3001 C   0  0  0  0  0  0  0  0  0  0  0  0
   -7.8617   -2.1543    6.5986 C   0  0  0  0  0  0  0  0  0  0  0  0
   -6.7727   -2.8657    6.0905 C   0  0  0  0  0  0  0  0  0  0  0  0
   -5.4880   -2.3778    6.2688 C   0  0  0  0  0  0  0  0  0  0  0  0
   -5.2861   -1.1846    6.9681 C   0  0  0  0  0  0  0  0  0  0  0  0
   -3.8944   -0.6691    7.1707 C   0  0  0  0  0  0  0  0  0  0  0  0
   -3.2279   -1.3051    8.1689 F   0  0  0  0  0  0  0  0  0  0  0  0
   -3.1383   -0.8329    6.0503 F   0  0  0  0  0  0  0  0  0  0  0  0
   -3.8332    0.6610    7.4600 F   0  0  0  0  0  0  0  0  0  0  0  0
   -6.3917   -0.4938    7.4865 C   0  0  0  0  0  0  0  0  0  0  0  0
  -10.1029   -0.8687    7.8049 C   0  0  0  0  0  0  0  0  0  0  0  0
  -11.0737   -0.1846    8.7801 C   0  0  0  0  0  0  0  0  0  0  0  0
  -11.2270    1.2759    8.5427 N   0  0  0  0  0  0  0  0  0  0  0  0
  -12.1111    1.8879    9.5538 C   0  0  0  0  0  0  0  0  0  0  0  0
  -13.4223    1.1906    9.6955 C   0  0  0  0  0  0  0  0  0  0  0  0
  -13.9093    0.5695   10.8734 C   0  0  0  0  0  0  0  0  0  0  0  0
  -15.1254    0.0388   10.7250 N   0  0  0  0  0  0  0  0  0  0  0  0
  -15.4237    0.3101    9.4354 N   0  0  0  0  0  0  0  0  0  0  0  0
  -16.7089   -0.0646    8.9023 C   0  0  0  0  0  0  0  0  0  0  0  0
  -14.4428    1.0043    8.7879 C   0  0  0  0  0  0  0  0  0  0  0  0
  -14.4737    1.6063    6.9822 Br  0  0  0  0  0  0  0  0  0  0  0  0
  1  2  1  0
  2  3  1  0
  4  3  1  6
  4  5  1  0
  5  6  1  0
  6  7  1  0
  7  8  2  0
  8  9  1  0
  9 10  2  0
 10 11  1  0
 11 12  1  0
 12 13  1  0
 12 14  1  0
 12 15  1  0
 11 16  2  0
  6 17  1  0
 17 18  1  0
 18 19  1  0
 19 20  1  0
 20 21  1  0
 21 22  1  0
 22 23  2  0
 23 24  1  0
 24 25  1  0
 24 26  1  0
 26 27  1  0
 19  4  1  0
 26 21  2  0
 16  7  1  0
M  END
>  <ref_mols>  (1658) 
B0426a

>  <gnina_score>  (1658) 
5.775

>  <smina_score_min>  (1658) 
-5.677

>  <ref_pdb>  (1658) 
B0426a

>  <inspiration_score>  (1658) 
None

>  <inchikey>  (1658) 
UGIPKNBFHWZEEA-QGZVFWFLSA-N

>  <tags>  (1658) 
BulkDock Fragalysis export,openbind_d68ev3c_c2_elabs_scored,openbind_d68ev3c_c2_elabs_scored_4.5plus,openbind_d68ev3c_c2_elabs,openbind_d68ev3c_c2_elabs_scored_5plus,syndirella_product,openbind_d68ev3c_c2_elabs_scored_top80percent,syndirella_placed

>  <smiles>  (1658) 
CCC[C@@H]1CN(c2cccc(C(F)(F)F)c2)CCN1Cc1cnn(C)c1Br

>  <subsites>  (1658) 
None

>  <rmsd(smina/fragmenstein)>  (1658) 
1.156

>  <alias>  (1658) 
None

>  <energy_score>  (1658) 
-55.05232

>  <HIPPO Pose ID>  (1658) 
131715

>  <distance_score>  (1658) 
0.390395

>  <HIPPO Compound ID>  (1658) 
157742

>  <gnina_score_min>  (1658) 
5.919

>  <name>  (1658) 
P131715

>  <exports>  (1658) 
['/opt/xchem-fragalysis-2/maxwin/BulkDock/OUTPUTS/openbind_d68ev3c_c2_elabs_1LOTQJ3.sdf', '/opt/xchem-fragalysis-2/maxwin/BulkDock/OUTPUTS/openbind_d68ev3c_c2_elabs_1LSYI5W.sdf']

$$$$
P131717
     RDKit          3D

 27 29  0  0  0  0  0  0  0  0999 V2000
  -13.0316    1.3297   14.3283 C   0  0  0  0  0  0  0  0  0  0  0  0
  -14.0231    0.9895   13.3393 N   0  0  0  0  0  0  0  0  0  0  0  0
  -13.7791    0.5707   12.0655 C   0  0  0  0  0  0  0  0  0  0  0  0
  -15.0040    0.5306   11.4198 C   0  0  0  0  0  0  0  0  0  0  0  0
  -15.3137    0.2754    9.9814 C   0  0  0  0  0  0  0  0  0  0  0  0
  -14.1478    0.3991    9.1070 N   0  0  0  0  0  0  0  0  0  0  0  0
  -13.5142    1.7197    9.1411 C   0  0  0  0  0  0  0  0  0  0  0  0
  -12.5805    2.0107    7.9502 C   0  0  0  0  0  0  0  0  0  0  0  0
  -11.3341    1.2720    7.7574 N   0  0  0  0  0  0  0  0  0  0  0  0
  -10.3160    1.4379    8.8010 C   0  0  0  0  0  0  0  0  0  0  0  0
   -8.9525    0.8623    8.3326 C   0  0  0  0  0  0  0  0  0  0  0  0
   -9.0429   -0.5396    7.8534 N   0  0  0  0  0  0  0  0  0  0  0  0
   -7.8585   -1.1732    7.4218 C   0  0  0  0  0  0  0  0  0  0  0  0
   -7.8887   -2.4858    6.9128 C   0  0  0  0  0  0  0  0  0  0  0  0
   -6.7483   -3.1275    6.4271 C   0  0  0  0  0  0  0  0  0  0  0  0
   -5.5215   -2.4854    6.4808 C   0  0  0  0  0  0  0  0  0  0  0  0
   -5.4269   -1.2069    7.0370 C   0  0  0  0  0  0  0  0  0  0  0  0
   -4.0790   -0.5521    7.1406 C   0  0  0  0  0  0  0  0  0  0  0  0
   -4.1274    0.7857    7.3926 F   0  0  0  0  0  0  0  0  0  0  0  0
   -3.3604   -0.6821    5.9893 F   0  0  0  0  0  0  0  0  0  0  0  0
   -3.3057   -1.0902    8.1219 F   0  0  0  0  0  0  0  0  0  0  0  0
   -6.5921   -0.5697    7.5050 C   0  0  0  0  0  0  0  0  0  0  0  0
  -10.2111   -0.7903    6.9656 C   0  0  0  0  0  0  0  0  0  0  0  0
  -11.5069   -0.1622    7.5056 C   0  0  0  0  0  0  0  0  0  0  0  0
  -15.9244    0.8078   12.4664 C   0  0  0  0  0  0  0  0  0  0  0  0
  -17.9977    0.8188   12.2983 I   0  0  0  0  0  0  0  0  0  0  0  0
  -15.3303    1.0753   13.6322 N   0  0  0  0  0  0  0  0  0  0  0  0
  1  2  1  0
  2  3  1  0
  3  4  2  0
  4  5  1  0
  5  6  1  0
  6  7  1  0
  7  8  1  0
  8  9  1  0
  9 10  1  0
 10 11  1  0
 11 12  1  0
 12 13  1  0
 13 14  2  0
 14 15  1  0
 15 16  2  0
 16 17  1  0
 17 18  1  0
 18 19  1  0
 18 20  1  0
 18 21  1  0
 17 22  2  0
 12 23  1  0
 23 24  1  0
  4 25  1  0
 25 26  1  0
 25 27  2  0
 27  2  1  0
 24  9  1  0
 22 13  1  0
M  END
>  <ref_mols>  (1659) 
B0426a

>  <gnina_score>  (1659) 
5.619

>  <smina_score_min>  (1659) 
-6.007

>  <ref_pdb>  (1659) 
B0426a

>  <inspiration_score>  (1659) 
None

>  <inchikey>  (1659) 
ZBUHRPPJTSRYRC-UHFFFAOYSA-N

>  <tags>  (1659) 
BulkDock Fragalysis export,openbind_d68ev3c_c2_elabs_scored,openbind_d68ev3c_c2_elabs_scored_4.5plus,openbind_d68ev3c_c2_elabs,openbind_d68ev3c_c2_elabs_scored_5plus,syndirella_product,openbind_d68ev3c_c2_elabs_scored_top80percent,syndirella_placed

>  <smiles>  (1659) 
Cn1cc(CNCCN2CCN(c3cccc(C(F)(F)F)c3)CC2)c(I)n1

>  <subsites>  (1659) 
None

>  <rmsd(smina/fragmenstein)>  (1659) 
0.644

>  <alias>  (1659) 
None

>  <energy_score>  (1659) 
-43.966384

>  <HIPPO Pose ID>  (1659) 
131717

>  <distance_score>  (1659) 
0.574016

>  <HIPPO Compound ID>  (1659) 
157745

>  <gnina_score_min>  (1659) 
5.691

>  <name>  (1659) 
P131717

>  <exports>  (1659) 
['/opt/xchem-fragalysis-2/maxwin/BulkDock/OUTPUTS/openbind_d68ev3c_c2_elabs_1LOTQJ3.sdf', '/opt/xchem-fragalysis-2/maxwin/BulkDock/OUTPUTS/openbind_d68ev3c_c2_elabs_1LSYI5W.sdf']

$$$$
P131718
     RDKit          3D

 27 29  0  0  0  0  0  0  0  0999 V2000
   -8.1946    4.6028    7.9649 C   0  0  0  0  0  0  0  0  0  0  0  0
   -9.1334    4.1343    6.8657 C   0  0  0  0  0  0  0  0  0  0  0  0
  -10.3221    3.3130    7.3821 C   0  0  0  0  0  0  0  0  0  0  0  0
   -9.9949    2.0075    8.1616 C   0  0  2  0  0  0  0  0  0  0  0  0
   -8.9839    1.1436    7.3279 C   0  0  0  0  0  0  0  0  0  0  0  0
   -8.7357   -0.1705    7.9493 N   0  0  0  0  0  0  0  0  0  0  0  0
   -7.6998   -0.9178    7.3718 C   0  0  0  0  0  0  0  0  0  0  0  0
   -7.8895   -2.1626    6.7497 C   0  0  0  0  0  0  0  0  0  0  0  0
   -6.8194   -2.8928    6.2301 C   0  0  0  0  0  0  0  0  0  0  0  0
   -5.5291   -2.3916    6.3311 C   0  0  0  0  0  0  0  0  0  0  0  0
   -5.3004   -1.1611    6.9567 C   0  0  0  0  0  0  0  0  0  0  0  0
   -3.8999   -0.6465    7.0927 C   0  0  0  0  0  0  0  0  0  0  0  0
   -3.1916   -0.8249    5.9434 F   0  0  0  0  0  0  0  0  0  0  0  0
   -3.1938   -1.2754    8.0692 F   0  0  0  0  0  0  0  0  0  0  0  0
   -3.8218    0.6856    7.3672 F   0  0  0  0  0  0  0  0  0  0  0  0
   -6.3870   -0.4392    7.4685 C   0  0  0  0  0  0  0  0  0  0  0  0
   -9.9816   -0.8954    8.2211 C   0  0  0  0  0  0  0  0  0  0  0  0
  -10.9010   -0.0442    9.1022 C   0  0  0  0  0  0  0  0  0  0  0  0
  -11.2614    1.2627    8.4865 N   0  0  0  0  0  0  0  0  0  0  0  0
  -12.1297    2.0181    9.4123 C   0  0  0  0  0  0  0  0  0  0  0  0
  -13.4166    1.2968    9.6649 C   0  0  0  0  0  0  0  0  0  0  0  0
  -14.3239    0.8544    8.7184 C   0  0  0  0  0  0  0  0  0  0  0  0
  -15.3568    0.2920    9.4025 N   0  0  0  0  0  0  0  0  0  0  0  0
  -16.5992   -0.1560    8.8267 C   0  0  0  0  0  0  0  0  0  0  0  0
  -15.1874    0.3015   10.7359 N   0  0  0  0  0  0  0  0  0  0  0  0
  -14.0193    0.9307   10.8942 C   0  0  0  0  0  0  0  0  0  0  0  0
  -13.2813    1.3386   12.7965 I   0  0  0  0  0  0  0  0  0  0  0  0
  1  2  1  0
  2  3  1  0
  4  3  1  6
  4  5  1  0
  5  6  1  0
  6  7  1  0
  7  8  2  0
  8  9  1  0
  9 10  2  0
 10 11  1  0
 11 12  1  0
 12 13  1  0
 12 14  1  0
 12 15  1  0
 11 16  2  0
  6 17  1  0
 17 18  1  0
 18 19  1  0
 19 20  1  0
 20 21  1  0
 21 22  2  0
 22 23  1  0
 23 24  1  0
 23 25  1  0
 25 26  2  0
 26 27  1  0
 19  4  1  0
 26 21  1  0
 16  7  1  0
M  END
>  <ref_mols>  (1660) 
B0426a

>  <gnina_score>  (1660) 
6.025

>  <smina_score_min>  (1660) 
-5.751

>  <ref_pdb>  (1660) 
B0426a

>  <inspiration_score>  (1660) 
None

>  <inchikey>  (1660) 
UOZACYGEKNMKSG-QGZVFWFLSA-N

>  <tags>  (1660) 
BulkDock Fragalysis export,openbind_d68ev3c_c2_elabs_scored,openbind_d68ev3c_c2_elabs_scored_4.5plus,openbind_d68ev3c_c2_elabs,openbind_d68ev3c_c2_elabs_scored_5plus,syndirella_product,openbind_d68ev3c_c2_elabs_scored_top80percent,syndirella_placed

>  <smiles>  (1660) 
CCC[C@@H]1CN(c2cccc(C(F)(F)F)c2)CCN1Cc1cn(C)nc1I

>  <subsites>  (1660) 
None

>  <rmsd(smina/fragmenstein)>  (1660) 
0.712

>  <alias>  (1660) 
None

>  <energy_score>  (1660) 
-53.881951

>  <HIPPO Pose ID>  (1660) 
131718

>  <distance_score>  (1660) 
0.504496

>  <HIPPO Compound ID>  (1660) 
157746

>  <gnina_score_min>  (1660) 
6.263

>  <name>  (1660) 
P131718

>  <exports>  (1660) 
['/opt/xchem-fragalysis-2/maxwin/BulkDock/OUTPUTS/openbind_d68ev3c_c2_elabs_1LOTQJ3.sdf', '/opt/xchem-fragalysis-2/maxwin/BulkDock/OUTPUTS/openbind_d68ev3c_c2_elabs_1LSYI5W.sdf']

$$$$
P131720
     RDKit          3D

 27 29  0  0  0  0  0  0  0  0999 V2000
   -9.0636    5.6706    7.2305 C   0  0  0  0  0  0  0  0  0  0  0  0
   -8.7883    4.2180    7.5923 C   0  0  0  0  0  0  0  0  0  0  0  0
  -10.0912    3.4389    7.8084 C   0  0  0  0  0  0  0  0  0  0  0  0
   -9.9036    2.0038    8.3759 C   0  0  2  0  0  0  0  0  0  0  0  0
   -8.8843    1.2121    7.4861 C   0  0  0  0  0  0  0  0  0  0  0  0
   -8.7384   -0.1880    7.9260 N   0  0  0  0  0  0  0  0  0  0  0  0
   -7.6919   -0.9179    7.3476 C   0  0  0  0  0  0  0  0  0  0  0  0
   -7.8739   -2.1460    6.6881 C   0  0  0  0  0  0  0  0  0  0  0  0
   -6.8001   -2.8720    6.1691 C   0  0  0  0  0  0  0  0  0  0  0  0
   -5.5096   -2.3823    6.3025 C   0  0  0  0  0  0  0  0  0  0  0  0
   -5.2856   -1.1706    6.9639 C   0  0  0  0  0  0  0  0  0  0  0  0
   -3.8867   -0.6617    7.1288 C   0  0  0  0  0  0  0  0  0  0  0  0
   -3.1583   -0.8374    5.9920 F   0  0  0  0  0  0  0  0  0  0  0  0
   -3.8097    0.6693    7.4095 F   0  0  0  0  0  0  0  0  0  0  0  0
   -3.2007   -1.2964    8.1153 F   0  0  0  0  0  0  0  0  0  0  0  0
   -6.3758   -0.4583    7.4832 C   0  0  0  0  0  0  0  0  0  0  0  0
  -10.0316   -0.8717    8.0375 C   0  0  0  0  0  0  0  0  0  0  0  0
  -10.9744   -0.0936    8.9624 C   0  0  0  0  0  0  0  0  0  0  0  0
  -11.2287    1.3023    8.5123 N   0  0  0  0  0  0  0  0  0  0  0  0
  -12.1003    1.9967    9.4835 C   0  0  0  0  0  0  0  0  0  0  0  0
  -13.3796    1.2648    9.7395 C   0  0  0  0  0  0  0  0  0  0  0  0
  -14.3769    0.9448    8.8410 C   0  0  0  0  0  0  0  0  0  0  0  0
  -15.3454    0.3089    9.5539 N   0  0  0  0  0  0  0  0  0  0  0  0
  -16.6338   -0.0921    9.0501 C   0  0  0  0  0  0  0  0  0  0  0  0
  -15.0500    0.1633   10.8579 N   0  0  0  0  0  0  0  0  0  0  0  0
  -13.8570    0.7604   10.9841 C   0  0  0  0  0  0  0  0  0  0  0  0
  -13.1978    0.8358   12.3129 C   0  0  0  0  0  0  0  0  0  0  0  0
  1  2  1  0
  2  3  1  0
  4  3  1  6
  4  5  1  0
  5  6  1  0
  6  7  1  0
  7  8  2  0
  8  9  1  0
  9 10  2  0
 10 11  1  0
 11 12  1  0
 12 13  1  0
 12 14  1  0
 12 15  1  0
 11 16  2  0
  6 17  1  0
 17 18  1  0
 18 19  1  0
 19 20  1  0
 20 21  1  0
 21 22  2  0
 22 23  1  0
 23 24  1  0
 23 25  1  0
 25 26  2  0
 26 27  1  0
 19  4  1  0
 26 21  1  0
 16  7  1  0
M  END
>  <ref_mols>  (1661) 
B0426a

>  <gnina_score>  (1661) 
5.753

>  <smina_score_min>  (1661) 
-5.731

>  <ref_pdb>  (1661) 
B0426a

>  <inspiration_score>  (1661) 
None

>  <inchikey>  (1661) 
CDUSGIQMFSRNRV-LJQANCHMSA-N

>  <tags>  (1661) 
BulkDock Fragalysis export,openbind_d68ev3c_c2_elabs_scored,openbind_d68ev3c_c2_elabs_scored_4.5plus,openbind_d68ev3c_c2_elabs,openbind_d68ev3c_c2_elabs_scored_5plus,syndirella_product,openbind_d68ev3c_c2_elabs_scored_top80percent,syndirella_placed

>  <smiles>  (1661) 
CCC[C@@H]1CN(c2cccc(C(F)(F)F)c2)CCN1Cc1cn(C)nc1C

>  <subsites>  (1661) 
None

>  <rmsd(smina/fragmenstein)>  (1661) 
0.585

>  <alias>  (1661) 
None

>  <energy_score>  (1661) 
-44.396299

>  <HIPPO Pose ID>  (1661) 
131720

>  <distance_score>  (1661) 
0.439749

>  <HIPPO Compound ID>  (1661) 
157747

>  <gnina_score_min>  (1661) 
6.003

>  <name>  (1661) 
P131720

>  <exports>  (1661) 
['/opt/xchem-fragalysis-2/maxwin/BulkDock/OUTPUTS/openbind_d68ev3c_c2_elabs_1LOTQJ3.sdf', '/opt/xchem-fragalysis-2/maxwin/BulkDock/OUTPUTS/openbind_d68ev3c_c2_elabs_1LSYI5W.sdf']

$$$$
P131722
     RDKit          3D

 27 29  0  0  0  0  0  0  0  0999 V2000
  -17.7410    0.8384   11.7556 C   0  0  0  0  0  0  0  0  0  0  0  0
  -16.3160    0.8444   12.1670 C   0  0  0  0  0  0  0  0  0  0  0  0
  -15.9729    1.2409   13.4028 N   0  0  0  0  0  0  0  0  0  0  0  0
  -14.6317    1.1629   13.4005 N   0  0  0  0  0  0  0  0  0  0  0  0
  -13.8750    1.6310   14.5334 C   0  0  0  0  0  0  0  0  0  0  0  0
  -14.1204    0.6324   12.2590 C   0  0  0  0  0  0  0  0  0  0  0  0
  -15.1837    0.4559   11.3942 C   0  0  0  0  0  0  0  0  0  0  0  0
  -15.1374   -0.0581    9.9963 C   0  0  0  0  0  0  0  0  0  0  0  0
  -14.6333    0.9449    9.0490 N   0  0  0  0  0  0  0  0  0  0  0  0
  -13.2741    1.3919    9.4007 C   0  0  0  0  0  0  0  0  0  0  0  0
  -12.5185    2.0191    8.2128 C   0  0  0  0  0  0  0  0  0  0  0  0
  -11.2625    1.3757    7.8104 N   0  0  0  0  0  0  0  0  0  0  0  0
  -11.4401   -0.0456    7.4584 C   0  0  0  0  0  0  0  0  0  0  0  0
  -10.1514   -0.6679    6.8894 C   0  0  0  0  0  0  0  0  0  0  0  0
   -8.9884   -0.4797    7.7946 N   0  0  0  0  0  0  0  0  0  0  0  0
   -7.8191   -1.1412    7.3717 C   0  0  0  0  0  0  0  0  0  0  0  0
   -7.8757   -2.4596    6.8840 C   0  0  0  0  0  0  0  0  0  0  0  0
   -6.7454   -3.1293    6.4129 C   0  0  0  0  0  0  0  0  0  0  0  0
   -5.5064   -2.5081    6.4598 C   0  0  0  0  0  0  0  0  0  0  0  0
   -5.3891   -1.2231    6.9946 C   0  0  0  0  0  0  0  0  0  0  0  0
   -4.0339   -0.5840    7.0894 C   0  0  0  0  0  0  0  0  0  0  0  0
   -3.2583   -1.1311    8.0637 F   0  0  0  0  0  0  0  0  0  0  0  0
   -3.3282   -0.7198    5.9314 F   0  0  0  0  0  0  0  0  0  0  0  0
   -4.0662    0.7542    7.3439 F   0  0  0  0  0  0  0  0  0  0  0  0
   -6.5427   -0.5587    7.4468 C   0  0  0  0  0  0  0  0  0  0  0  0
   -8.8580    0.9083    8.2942 C   0  0  0  0  0  0  0  0  0  0  0  0
  -10.1958    1.4738    8.8233 C   0  0  0  0  0  0  0  0  0  0  0  0
  1  2  1  0
  2  3  2  0
  3  4  1  0
  4  5  1  0
  4  6  1  0
  6  7  2  0
  7  8  1  0
  8  9  1  0
  9 10  1  0
 10 11  1  0
 11 12  1  0
 12 13  1  0
 13 14  1  0
 14 15  1  0
 15 16  1  0
 16 17  2  0
 17 18  1  0
 18 19  2  0
 19 20  1  0
 20 21  1  0
 21 22  1  0
 21 23  1  0
 21 24  1  0
 20 25  2  0
 15 26  1  0
 26 27  1  0
  7  2  1  0
 27 12  1  0
 25 16  1  0
M  END
>  <ref_mols>  (1662) 
B0426a

>  <gnina_score>  (1662) 
5.399

>  <smina_score_min>  (1662) 
-6.145

>  <ref_pdb>  (1662) 
B0426a

>  <inspiration_score>  (1662) 
None

>  <inchikey>  (1662) 
SOUZHDFWMOZEIY-UHFFFAOYSA-N

>  <tags>  (1662) 
BulkDock Fragalysis export,openbind_d68ev3c_c2_elabs_scored,openbind_d68ev3c_c2_elabs_scored_4.5plus,openbind_d68ev3c_c2_elabs,openbind_d68ev3c_c2_elabs_scored_5plus,syndirella_product,openbind_d68ev3c_c2_elabs_scored_top80percent,syndirella_placed

>  <smiles>  (1662) 
Cc1nn(C)cc1CNCCN1CCN(c2cccc(C(F)(F)F)c2)CC1

>  <subsites>  (1662) 
None

>  <rmsd(smina/fragmenstein)>  (1662) 
0.802

>  <alias>  (1662) 
None

>  <energy_score>  (1662) 
-34.3444

>  <HIPPO Pose ID>  (1662) 
131722

>  <distance_score>  (1662) 
0.556093

>  <HIPPO Compound ID>  (1662) 
157748

>  <gnina_score_min>  (1662) 
5.29

>  <name>  (1662) 
P131722

>  <exports>  (1662) 
['/opt/xchem-fragalysis-2/maxwin/BulkDock/OUTPUTS/openbind_d68ev3c_c2_elabs_1LOTQJ3.sdf', '/opt/xchem-fragalysis-2/maxwin/BulkDock/OUTPUTS/openbind_d68ev3c_c2_elabs_1LSYI5W.sdf']

$$$$
P131723
     RDKit          3D

 27 29  0  0  0  0  0  0  0  0999 V2000
  -12.1791    2.7348   13.2026 C   0  0  0  0  0  0  0  0  0  0  0  0
  -12.9143    1.6439   13.9694 C   0  0  0  0  0  0  0  0  0  0  0  0
  -13.9945    1.1016   13.1692 N   0  0  0  0  0  0  0  0  0  0  0  0
  -13.8358    0.4430   11.9878 C   0  0  0  0  0  0  0  0  0  0  0  0
  -15.0491    0.5266   11.3375 C   0  0  0  0  0  0  0  0  0  0  0  0
  -15.3676    0.2045    9.9219 C   0  0  0  0  0  0  0  0  0  0  0  0
  -14.1950    0.3514    9.0569 N   0  0  0  0  0  0  0  0  0  0  0  0
  -13.5836    1.6855    9.0937 C   0  0  0  0  0  0  0  0  0  0  0  0
  -12.6288    1.9949    7.9210 C   0  0  0  0  0  0  0  0  0  0  0  0
  -11.3857    1.2496    7.7284 N   0  0  0  0  0  0  0  0  0  0  0  0
  -10.3320    1.5147    8.7184 C   0  0  0  0  0  0  0  0  0  0  0  0
   -8.9783    0.9114    8.2554 C   0  0  0  0  0  0  0  0  0  0  0  0
   -9.0580   -0.5255    7.8899 N   0  0  0  0  0  0  0  0  0  0  0  0
   -7.8798   -1.1599    7.4365 C   0  0  0  0  0  0  0  0  0  0  0  0
   -7.9088   -2.4651    6.9063 C   0  0  0  0  0  0  0  0  0  0  0  0
   -6.7683   -3.1041    6.4145 C   0  0  0  0  0  0  0  0  0  0  0  0
   -5.5402   -2.4667    6.4767 C   0  0  0  0  0  0  0  0  0  0  0  0
   -5.4445   -1.1949    7.0469 C   0  0  0  0  0  0  0  0  0  0  0  0
   -4.0947   -0.5448    7.1582 C   0  0  0  0  0  0  0  0  0  0  0  0
   -3.3290   -1.0861    8.1439 F   0  0  0  0  0  0  0  0  0  0  0  0
   -3.3688   -0.6768    6.0115 F   0  0  0  0  0  0  0  0  0  0  0  0
   -4.1397    0.7930    7.4105 F   0  0  0  0  0  0  0  0  0  0  0  0
   -6.6096   -0.5619    7.5246 C   0  0  0  0  0  0  0  0  0  0  0  0
  -10.2817   -0.8855    7.1228 C   0  0  0  0  0  0  0  0  0  0  0  0
  -11.5568   -0.2071    7.6539 C   0  0  0  0  0  0  0  0  0  0  0  0
  -15.9164    1.0591   12.3229 C   0  0  0  0  0  0  0  0  0  0  0  0
  -15.2804    1.3849   13.4538 N   0  0  0  0  0  0  0  0  0  0  0  0
  1  2  1  0
  2  3  1  0
  3  4  1  0
  4  5  2  0
  5  6  1  0
  6  7  1  0
  7  8  1  0
  8  9  1  0
  9 10  1  0
 10 11  1  0
 11 12  1  0
 12 13  1  0
 13 14  1  0
 14 15  2  0
 15 16  1  0
 16 17  2  0
 17 18  1  0
 18 19  1  0
 19 20  1  0
 19 21  1  0
 19 22  1  0
 18 23  2  0
 13 24  1  0
 24 25  1  0
  5 26  1  0
 26 27  2  0
 27  3  1  0
 25 10  1  0
 23 14  1  0
M  END
>  <ref_mols>  (1663) 
B0426a

>  <gnina_score>  (1663) 
5.584

>  <smina_score_min>  (1663) 
-5.997

>  <ref_pdb>  (1663) 
B0426a

>  <inspiration_score>  (1663) 
None

>  <inchikey>  (1663) 
HNAJYAYQJDMCRC-UHFFFAOYSA-N

>  <tags>  (1663) 
BulkDock Fragalysis export,openbind_d68ev3c_c2_elabs_scored,openbind_d68ev3c_c2_elabs_scored_4.5plus,openbind_d68ev3c_c2_elabs,openbind_d68ev3c_c2_elabs_scored_5plus,syndirella_product,openbind_d68ev3c_c2_elabs_scored_top80percent,syndirella_placed

>  <smiles>  (1663) 
CCn1cc(CNCCN2CCN(c3cccc(C(F)(F)F)c3)CC2)cn1

>  <subsites>  (1663) 
None

>  <rmsd(smina/fragmenstein)>  (1663) 
0.869

>  <alias>  (1663) 
None

>  <energy_score>  (1663) 
-35.641338

>  <HIPPO Pose ID>  (1663) 
131723

>  <distance_score>  (1663) 
0.547616

>  <HIPPO Compound ID>  (1663) 
157750

>  <gnina_score_min>  (1663) 
5.505

>  <name>  (1663) 
P131723

>  <exports>  (1663) 
['/opt/xchem-fragalysis-2/maxwin/BulkDock/OUTPUTS/openbind_d68ev3c_c2_elabs_1LOTQJ3.sdf', '/opt/xchem-fragalysis-2/maxwin/BulkDock/OUTPUTS/openbind_d68ev3c_c2_elabs_1LSYI5W.sdf']

$$$$
P131725
     RDKit          3D

 27 29  0  0  0  0  0  0  0  0999 V2000
  -10.6264    3.5468   11.9724 C   0  0  0  0  0  0  0  0  0  0  0  0
  -10.5867    3.3878   10.4624 C   0  0  0  0  0  0  0  0  0  0  0  0
  -10.2210    1.9685    9.9932 C   0  0  0  0  0  0  0  0  0  0  0  0
  -10.3008    1.8285    8.4542 C   0  0  1  0  0  0  0  0  0  0  0  0
   -9.0128    1.1492    7.8544 C   0  0  0  0  0  0  0  0  0  0  0  0
   -9.0325   -0.3371    7.8729 N   0  0  0  0  0  0  0  0  0  0  0  0
   -7.8823   -1.0065    7.3881 C   0  0  0  0  0  0  0  0  0  0  0  0
   -7.9436   -2.2815    6.7856 C   0  0  0  0  0  0  0  0  0  0  0  0
   -6.8127   -2.9562    6.3151 C   0  0  0  0  0  0  0  0  0  0  0  0
   -5.5630   -2.3780    6.4444 C   0  0  0  0  0  0  0  0  0  0  0  0
   -5.4376   -1.1305    7.0603 C   0  0  0  0  0  0  0  0  0  0  0  0
   -4.0677   -0.5342    7.2173 C   0  0  0  0  0  0  0  0  0  0  0  0
   -3.3183   -0.6858    6.0880 F   0  0  0  0  0  0  0  0  0  0  0  0
   -3.3505   -1.1127    8.2164 F   0  0  0  0  0  0  0  0  0  0  0  0
   -4.0709    0.8026    7.4762 F   0  0  0  0  0  0  0  0  0  0  0  0
   -6.5902   -0.4710    7.5373 C   0  0  0  0  0  0  0  0  0  0  0  0
  -10.3287   -0.8836    7.4017 C   0  0  0  0  0  0  0  0  0  0  0  0
  -11.5324   -0.2505    8.1135 C   0  0  0  0  0  0  0  0  0  0  0  0
  -11.5427    1.2049    7.9683 N   0  0  0  0  0  0  0  0  0  0  0  0
  -12.7983    1.8848    8.2469 C   0  0  0  0  0  0  0  0  0  0  0  0
  -13.7194    1.2252    9.2203 C   0  0  0  0  0  0  0  0  0  0  0  0
  -13.6059    1.0410   10.6189 C   0  0  0  0  0  0  0  0  0  0  0  0
  -14.6781    0.4568   11.1604 N   0  0  0  0  0  0  0  0  0  0  0  0
  -15.5105    0.3171   10.1186 N   0  0  0  0  0  0  0  0  0  0  0  0
  -16.8796   -0.0856   10.3510 C   0  0  0  0  0  0  0  0  0  0  0  0
  -17.7693    1.0850   10.7327 C   0  0  0  0  0  0  0  0  0  0  0  0
  -14.9658    0.6999    8.9317 C   0  0  0  0  0  0  0  0  0  0  0  0
  1  2  1  0
  2  3  1  0
  4  3  1  1
  4  5  1  0
  5  6  1  0
  6  7  1  0
  7  8  2  0
  8  9  1  0
  9 10  2  0
 10 11  1  0
 11 12  1  0
 12 13  1  0
 12 14  1  0
 12 15  1  0
 11 16  2  0
  6 17  1  0
 17 18  1  0
 18 19  1  0
 19 20  1  0
 20 21  1  0
 21 22  1  0
 22 23  2  0
 23 24  1  0
 24 25  1  0
 25 26  1  0
 24 27  1  0
 19  4  1  0
 27 21  2  0
 16  7  1  0
M  END
>  <ref_mols>  (1664) 
B0426a

>  <gnina_score>  (1664) 
5.843

>  <smina_score_min>  (1664) 
-5.458

>  <ref_pdb>  (1664) 
B0426a

>  <inspiration_score>  (1664) 
None

>  <inchikey>  (1664) 
WADVBVCFNUBQLB-IBGZPJMESA-N

>  <tags>  (1664) 
BulkDock Fragalysis export,openbind_d68ev3c_c2_elabs_scored,openbind_d68ev3c_c2_elabs_scored_4.5plus,openbind_d68ev3c_c2_elabs,openbind_d68ev3c_c2_elabs_scored_5plus,syndirella_product,openbind_d68ev3c_c2_elabs_scored_top80percent,syndirella_placed

>  <smiles>  (1664) 
CCC[C@H]1CN(c2cccc(C(F)(F)F)c2)CCN1Cc1cnn(CC)c1

>  <subsites>  (1664) 
None

>  <rmsd(smina/fragmenstein)>  (1664) 
1.05

>  <alias>  (1664) 
None

>  <energy_score>  (1664) 
-34.397842

>  <HIPPO Pose ID>  (1664) 
131725

>  <distance_score>  (1664) 
0.436638

>  <HIPPO Compound ID>  (1664) 
157751

>  <gnina_score_min>  (1664) 
5.647

>  <name>  (1664) 
P131725

>  <exports>  (1664) 
['/opt/xchem-fragalysis-2/maxwin/BulkDock/OUTPUTS/openbind_d68ev3c_c2_elabs_1LOTQJ3.sdf', '/opt/xchem-fragalysis-2/maxwin/BulkDock/OUTPUTS/openbind_d68ev3c_c2_elabs_1LSYI5W.sdf']

$$$$
P131726
     RDKit          3D

 27 29  0  0  0  0  0  0  0  0999 V2000
  -13.1463    1.5035   14.2671 C   0  0  0  0  0  0  0  0  0  0  0  0
  -14.1334    1.1858   13.2659 N   0  0  0  0  0  0  0  0  0  0  0  0
  -13.8899    0.6351   12.0455 C   0  0  0  0  0  0  0  0  0  0  0  0
  -15.1028    0.5765   11.3800 C   0  0  0  0  0  0  0  0  0  0  0  0
  -15.3824    0.0548   10.0109 C   0  0  1  0  0  0  0  0  0  0  0  0
  -16.7911    0.8035    9.2406 Cl  0  0  0  0  0  0  0  0  0  0  0  0
  -14.2268    0.1870    9.1382 N   0  0  0  0  0  0  0  0  0  0  0  0
  -13.8110    1.5500    8.7973 C   0  0  0  0  0  0  0  0  0  0  0  0
  -12.3230    1.8684    9.0924 C   0  0  0  0  0  0  0  0  0  0  0  0
  -11.3077    1.2766    8.1982 N   0  0  0  0  0  0  0  0  0  0  0  0
   -9.9638    1.7402    8.6224 C   0  0  0  0  0  0  0  0  0  0  0  0
   -8.8080    1.1399    7.7904 C   0  0  0  0  0  0  0  0  0  0  0  0
   -8.8448   -0.3399    7.8047 N   0  0  0  0  0  0  0  0  0  0  0  0
   -7.7344   -1.0283    7.2906 C   0  0  0  0  0  0  0  0  0  0  0  0
   -7.8442   -2.2550    6.6081 C   0  0  0  0  0  0  0  0  0  0  0  0
   -6.7320   -2.9459    6.1198 C   0  0  0  0  0  0  0  0  0  0  0  0
   -5.4624   -2.4250    6.3016 C   0  0  0  0  0  0  0  0  0  0  0  0
   -5.2985   -1.2234    6.9928 C   0  0  0  0  0  0  0  0  0  0  0  0
   -3.9206   -0.6709    7.1992 C   0  0  0  0  0  0  0  0  0  0  0  0
   -3.1570   -0.8103    6.0802 F   0  0  0  0  0  0  0  0  0  0  0  0
   -3.8943    0.6589    7.4949 F   0  0  0  0  0  0  0  0  0  0  0  0
   -3.2395   -1.2937    8.1960 F   0  0  0  0  0  0  0  0  0  0  0  0
   -6.4284   -0.5560    7.4950 C   0  0  0  0  0  0  0  0  0  0  0  0
  -10.1848   -0.8587    7.4416 C   0  0  0  0  0  0  0  0  0  0  0  0
  -11.3083   -0.2026    8.2686 C   0  0  0  0  0  0  0  0  0  0  0  0
  -16.0220    1.0531   12.3495 C   0  0  0  0  0  0  0  0  0  0  0  0
  -15.4386    1.4055   13.4993 N   0  0  0  0  0  0  0  0  0  0  0  0
  1  2  1  0
  2  3  1  0
  3  4  2  0
  4  5  1  0
  5  6  1  6
  5  7  1  0
  7  8  1  0
  8  9  1  0
  9 10  1  0
 10 11  1  0
 11 12  1  0
 12 13  1  0
 13 14  1  0
 14 15  2  0
 15 16  1  0
 16 17  2  0
 17 18  1  0
 18 19  1  0
 19 20  1  0
 19 21  1  0
 19 22  1  0
 18 23  2  0
 13 24  1  0
 24 25  1  0
  4 26  1  0
 26 27  2  0
 27  2  1  0
 25 10  1  0
 23 14  1  0
M  END
>  <ref_mols>  (1665) 
B0426a

>  <gnina_score>  (1665) 
5.667

>  <smina_score_min>  (1665) 
-6.29

>  <ref_pdb>  (1665) 
B0426a

>  <inspiration_score>  (1665) 
None

>  <inchikey>  (1665) 
IVQXXNZNIKXZMC-KRWDZBQOSA-N

>  <tags>  (1665) 
BulkDock Fragalysis export,openbind_d68ev3c_c2_elabs_scored,openbind_d68ev3c_c2_elabs_scored_4.5plus,openbind_d68ev3c_c2_elabs,openbind_d68ev3c_c2_elabs_scored_5plus,syndirella_product,openbind_d68ev3c_c2_elabs_scored_top80percent,syndirella_placed

>  <smiles>  (1665) 
Cn1cc([C@@H](Cl)NCCN2CCN(c3cccc(C(F)(F)F)c3)CC2)cn1

>  <subsites>  (1665) 
None

>  <rmsd(smina/fragmenstein)>  (1665) 
0.691

>  <alias>  (1665) 
None

>  <energy_score>  (1665) 
-45.095425

>  <HIPPO Pose ID>  (1665) 
131726

>  <distance_score>  (1665) 
0.490056

>  <HIPPO Compound ID>  (1665) 
157752

>  <gnina_score_min>  (1665) 
5.659

>  <name>  (1665) 
P131726

>  <exports>  (1665) 
['/opt/xchem-fragalysis-2/maxwin/BulkDock/OUTPUTS/openbind_d68ev3c_c2_elabs_1LOTQJ3.sdf', '/opt/xchem-fragalysis-2/maxwin/BulkDock/OUTPUTS/openbind_d68ev3c_c2_elabs_1LSYI5W.sdf']

$$$$
P131728
     RDKit          3D

 27 29  0  0  0  0  0  0  0  0999 V2000
  -10.3573    5.4463    6.7722 C   0  0  0  0  0  0  0  0  0  0  0  0
  -10.3707    3.9301    6.9030 C   0  0  0  0  0  0  0  0  0  0  0  0
   -9.8773    3.4894    8.2857 C   0  0  0  0  0  0  0  0  0  0  0  0
   -9.9258    1.9598    8.5424 C   0  0  2  0  0  0  0  0  0  0  0  0
   -8.8591    1.2529    7.6435 C   0  0  0  0  0  0  0  0  0  0  0  0
   -8.8280   -0.2082    7.8783 N   0  0  0  0  0  0  0  0  0  0  0  0
   -7.7561   -0.9234    7.3261 C   0  0  0  0  0  0  0  0  0  0  0  0
   -7.9127   -2.1398    6.6376 C   0  0  0  0  0  0  0  0  0  0  0  0
   -6.8250   -2.8574    6.1329 C   0  0  0  0  0  0  0  0  0  0  0  0
   -5.5385   -2.3705    6.3025 C   0  0  0  0  0  0  0  0  0  0  0  0
   -5.3329   -1.1728    6.9928 C   0  0  0  0  0  0  0  0  0  0  0  0
   -3.9392   -0.6587    7.1881 C   0  0  0  0  0  0  0  0  0  0  0  0
   -3.2654   -1.2997    8.1798 F   0  0  0  0  0  0  0  0  0  0  0  0
   -3.8697    0.6701    7.4821 F   0  0  0  0  0  0  0  0  0  0  0  0
   -3.1843   -0.8201    6.0643 F   0  0  0  0  0  0  0  0  0  0  0  0
   -6.4385   -0.4775    7.5094 C   0  0  0  0  0  0  0  0  0  0  0  0
  -10.1815   -0.7909    7.7282 C   0  0  0  0  0  0  0  0  0  0  0  0
  -11.2064   -0.0873    8.6350 C   0  0  0  0  0  0  0  0  0  0  0  0
  -11.2847    1.3701    8.3959 N   0  0  0  0  0  0  0  0  0  0  0  0
  -12.2665    2.0411    9.2836 C   0  0  0  0  0  0  0  0  0  0  0  0
  -13.5367    1.2901    9.5443 C   0  0  0  0  0  0  0  0  0  0  0  0
  -13.7823    0.5021   10.6940 C   0  0  0  0  0  0  0  0  0  0  0  0
  -15.0033   -0.0209   10.7214 N   0  0  0  0  0  0  0  0  0  0  0  0
  -15.5426    0.4319    9.5607 N   0  0  0  0  0  0  0  0  0  0  0  0
  -16.9026    0.0580    9.2456 C   0  0  0  0  0  0  0  0  0  0  0  0
  -14.7269    1.2781    8.8108 C   0  0  0  0  0  0  0  0  0  0  0  0
  -15.1469    1.7965    7.7884 O   0  0  0  0  0  0  0  0  0  0  0  0
  1  2  1  0
  2  3  1  0
  4  3  1  6
  4  5  1  0
  5  6  1  0
  6  7  1  0
  7  8  2  0
  8  9  1  0
  9 10  2  0
 10 11  1  0
 11 12  1  0
 12 13  1  0
 12 14  1  0
 12 15  1  0
 11 16  2  0
  6 17  1  0
 17 18  1  0
 18 19  1  0
 19 20  1  0
 20 21  1  0
 21 22  1  0
 22 23  2  0
 23 24  1  0
 24 25  1  0
 24 26  1  0
 26 27  1  0
 19  4  1  0
 26 21  2  0
 16  7  1  0
M  CHG  1  27  -1
M  END
>  <ref_mols>  (1666) 
B0426a

>  <gnina_score>  (1666) 
5.764

>  <smina_score_min>  (1666) 
-5.713

>  <ref_pdb>  (1666) 
B0426a

>  <inspiration_score>  (1666) 
None

>  <inchikey>  (1666) 
NCDRFSRDWFLFOP-QGZVFWFLSA-M

>  <tags>  (1666) 
BulkDock Fragalysis export,openbind_d68ev3c_c2_elabs_scored,openbind_d68ev3c_c2_elabs_scored_4.5plus,openbind_d68ev3c_c2_elabs,openbind_d68ev3c_c2_elabs_scored_5plus,syndirella_product,openbind_d68ev3c_c2_elabs_scored_top80percent,syndirella_placed

>  <smiles>  (1666) 
CCC[C@@H]1CN(c2cccc(C(F)(F)F)c2)CCN1Cc1cnn(C)c1[O-]

>  <subsites>  (1666) 
None

>  <rmsd(smina/fragmenstein)>  (1666) 
1.161

>  <alias>  (1666) 
None

>  <energy_score>  (1666) 
-59.323426

>  <HIPPO Pose ID>  (1666) 
131728

>  <distance_score>  (1666) 
0.380846

>  <HIPPO Compound ID>  (1666) 
157754

>  <gnina_score_min>  (1666) 
5.826

>  <name>  (1666) 
P131728

>  <exports>  (1666) 
['/opt/xchem-fragalysis-2/maxwin/BulkDock/OUTPUTS/openbind_d68ev3c_c2_elabs_1LOTQJ3.sdf', '/opt/xchem-fragalysis-2/maxwin/BulkDock/OUTPUTS/openbind_d68ev3c_c2_elabs_1LSYI5W.sdf']

$$$$
P131730
     RDKit          3D

 27 29  0  0  0  0  0  0  0  0999 V2000
  -13.7900    1.8007   14.5976 C   0  0  0  0  0  0  0  0  0  0  0  0
  -13.8920    1.0915   13.3459 N   0  0  0  0  0  0  0  0  0  0  0  0
  -12.7702    0.5373   12.8395 N   0  0  0  0  0  0  0  0  0  0  0  0
  -13.1498    0.1701   11.6246 C   0  0  0  0  0  0  0  0  0  0  0  0
  -14.5072    0.4669   11.3529 C   0  0  0  0  0  0  0  0  0  0  0  0
  -15.2279    0.3265   10.0512 C   0  0  0  0  0  0  0  0  0  0  0  0
  -14.3172    0.4867    8.8961 N   0  0  0  0  0  0  0  0  0  0  0  0
  -13.5978    1.7702    8.9513 C   0  0  0  0  0  0  0  0  0  0  0  0
  -12.6256    2.0074    7.7787 C   0  0  0  0  0  0  0  0  0  0  0  0
  -11.3735    1.2562    7.6377 N   0  0  0  0  0  0  0  0  0  0  0  0
  -10.3668    1.4930    8.6830 C   0  0  0  0  0  0  0  0  0  0  0  0
   -8.9949    0.8940    8.2637 C   0  0  0  0  0  0  0  0  0  0  0  0
   -9.0607   -0.5259    7.8247 N   0  0  0  0  0  0  0  0  0  0  0  0
   -7.8738   -1.1589    7.4043 C   0  0  0  0  0  0  0  0  0  0  0  0
   -7.8935   -2.4697    6.8881 C   0  0  0  0  0  0  0  0  0  0  0  0
   -6.7467   -3.1109    6.4167 C   0  0  0  0  0  0  0  0  0  0  0  0
   -5.5219   -2.4686    6.4881 C   0  0  0  0  0  0  0  0  0  0  0  0
   -5.4364   -1.1908    7.0485 C   0  0  0  0  0  0  0  0  0  0  0  0
   -4.0900   -0.5370    7.1643 C   0  0  0  0  0  0  0  0  0  0  0  0
   -3.3639   -0.6661    6.0157 F   0  0  0  0  0  0  0  0  0  0  0  0
   -3.3191   -1.0806    8.1452 F   0  0  0  0  0  0  0  0  0  0  0  0
   -4.1330    0.8003    7.4176 F   0  0  0  0  0  0  0  0  0  0  0  0
   -6.6081   -0.5561    7.5059 C   0  0  0  0  0  0  0  0  0  0  0  0
  -10.2559   -0.8536    7.0022 C   0  0  0  0  0  0  0  0  0  0  0  0
  -11.5442   -0.1935    7.5164 C   0  0  0  0  0  0  0  0  0  0  0  0
  -15.0278    0.9719   12.5485 C   0  0  0  0  0  0  0  0  0  0  0  0
  -16.1186    1.3316   12.9597 O   0  0  0  0  0  0  0  0  0  0  0  0
  1  2  1  0
  2  3  1  0
  3  4  2  0
  4  5  1  0
  5  6  1  0
  6  7  1  0
  7  8  1  0
  8  9  1  0
  9 10  1  0
 10 11  1  0
 11 12  1  0
 12 13  1  0
 13 14  1  0
 14 15  2  0
 15 16  1  0
 16 17  2  0
 17 18  1  0
 18 19  1  0
 19 20  1  0
 19 21  1  0
 19 22  1  0
 18 23  2  0
 13 24  1  0
 24 25  1  0
  5 26  2  0
 26 27  1  0
 26  2  1  0
 25 10  1  0
 23 14  1  0
M  CHG  1  27  -1
M  END
>  <ref_mols>  (1667) 
B0426a

>  <gnina_score>  (1667) 
5.611

>  <smina_score_min>  (1667) 
-6.222

>  <ref_pdb>  (1667) 
B0426a

>  <inspiration_score>  (1667) 
None

>  <inchikey>  (1667) 
UXFLFNQEFDIVHK-UHFFFAOYSA-M

>  <tags>  (1667) 
BulkDock Fragalysis export,openbind_d68ev3c_c2_elabs_scored,openbind_d68ev3c_c2_elabs_scored_4.5plus,openbind_d68ev3c_c2_elabs,openbind_d68ev3c_c2_elabs_scored_5plus,syndirella_product,openbind_d68ev3c_c2_elabs_scored_top80percent,syndirella_placed

>  <smiles>  (1667) 
Cn1ncc(CNCCN2CCN(c3cccc(C(F)(F)F)c3)CC2)c1[O-]

>  <subsites>  (1667) 
None

>  <rmsd(smina/fragmenstein)>  (1667) 
0.728

>  <alias>  (1667) 
None

>  <energy_score>  (1667) 
-73.983513

>  <HIPPO Pose ID>  (1667) 
131730

>  <distance_score>  (1667) 
0.574296

>  <HIPPO Compound ID>  (1667) 
157755

>  <gnina_score_min>  (1667) 
5.577

>  <name>  (1667) 
P131730

>  <exports>  (1667) 
['/opt/xchem-fragalysis-2/maxwin/BulkDock/OUTPUTS/openbind_d68ev3c_c2_elabs_1LOTQJ3.sdf', '/opt/xchem-fragalysis-2/maxwin/BulkDock/OUTPUTS/openbind_d68ev3c_c2_elabs_1LSYI5W.sdf']

$$$$
P131732
     RDKit          3D

 27 29  0  0  0  0  0  0  0  0999 V2000
  -10.2740    4.3139   10.1479 C   0  0  0  0  0  0  0  0  0  0  0  0
  -10.6868    2.9423   10.6619 C   0  0  0  0  0  0  0  0  0  0  0  0
  -10.0960    1.7563    9.8839 C   0  0  0  0  0  0  0  0  0  0  0  0
  -10.3061    1.7458    8.3567 C   0  0  1  0  0  0  0  0  0  0  0  0
   -9.0688    1.0957    7.6366 C   0  0  0  0  0  0  0  0  0  0  0  0
   -9.0575   -0.3851    7.7211 N   0  0  0  0  0  0  0  0  0  0  0  0
   -7.8964   -1.0491    7.2679 C   0  0  0  0  0  0  0  0  0  0  0  0
   -7.9382   -2.3093    6.6377 C   0  0  0  0  0  0  0  0  0  0  0  0
   -6.7895   -2.9759    6.2004 C   0  0  0  0  0  0  0  0  0  0  0  0
   -5.5450   -2.3999    6.3844 C   0  0  0  0  0  0  0  0  0  0  0  0
   -5.4413   -1.1646    7.0272 C   0  0  0  0  0  0  0  0  0  0  0  0
   -4.0798   -0.5645    7.2336 C   0  0  0  0  0  0  0  0  0  0  0  0
   -3.3883   -1.1496    8.2469 F   0  0  0  0  0  0  0  0  0  0  0  0
   -4.0972    0.7697    7.5070 F   0  0  0  0  0  0  0  0  0  0  0  0
   -3.2962   -0.6985    6.1254 F   0  0  0  0  0  0  0  0  0  0  0  0
   -6.6103   -0.5190    7.4802 C   0  0  0  0  0  0  0  0  0  0  0  0
  -10.3541   -0.9604    7.2819 C   0  0  0  0  0  0  0  0  0  0  0  0
  -11.5567   -0.3272    8.0062 C   0  0  0  0  0  0  0  0  0  0  0  0
  -11.5692    1.1343    7.9204 N   0  0  0  0  0  0  0  0  0  0  0  0
  -12.8016    1.8231    8.2712 C   0  0  0  0  0  0  0  0  0  0  0  0
  -13.7153    1.1263    9.2188 C   0  0  0  0  0  0  0  0  0  0  0  0
  -13.5062    0.6553   10.5409 C   0  0  0  0  0  0  0  0  0  0  0  0
  -14.6089    0.1490   11.1067 N   0  0  0  0  0  0  0  0  0  0  0  0
  -15.5356    0.2902   10.1417 N   0  0  0  0  0  0  0  0  0  0  0  0
  -16.9181    0.0094   10.4186 C   0  0  0  0  0  0  0  0  0  0  0  0
  -15.0455    0.8472    9.0051 C   0  0  0  0  0  0  0  0  0  0  0  0
  -15.7488    1.1376    7.9013 F   0  0  0  0  0  0  0  0  0  0  0  0
  1  2  1  0
  2  3  1  0
  4  3  1  1
  4  5  1  0
  5  6  1  0
  6  7  1  0
  7  8  2  0
  8  9  1  0
  9 10  2  0
 10 11  1  0
 11 12  1  0
 12 13  1  0
 12 14  1  0
 12 15  1  0
 11 16  2  0
  6 17  1  0
 17 18  1  0
 18 19  1  0
 19 20  1  0
 20 21  1  0
 21 22  1  0
 22 23  2  0
 23 24  1  0
 24 25  1  0
 24 26  1  0
 26 27  1  0
 19  4  1  0
 26 21  2  0
 16  7  1  0
M  END
>  <ref_mols>  (1668) 
B0426a

>  <gnina_score>  (1668) 
5.88

>  <smina_score_min>  (1668) 
-5.587

>  <ref_pdb>  (1668) 
B0426a

>  <inspiration_score>  (1668) 
None

>  <inchikey>  (1668) 
JFKKHQPVLRWBHX-KRWDZBQOSA-N

>  <tags>  (1668) 
BulkDock Fragalysis export,openbind_d68ev3c_c2_elabs_scored,openbind_d68ev3c_c2_elabs_scored_4.5plus,openbind_d68ev3c_c2_elabs,openbind_d68ev3c_c2_elabs_scored_5plus,syndirella_product,openbind_d68ev3c_c2_elabs_scored_top80percent,syndirella_placed

>  <smiles>  (1668) 
CCC[C@H]1CN(c2cccc(C(F)(F)F)c2)CCN1Cc1cnn(C)c1F

>  <subsites>  (1668) 
None

>  <rmsd(smina/fragmenstein)>  (1668) 
0.918

>  <alias>  (1668) 
None

>  <energy_score>  (1668) 
-53.702774

>  <HIPPO Pose ID>  (1668) 
131732

>  <distance_score>  (1668) 
0.448954

>  <HIPPO Compound ID>  (1668) 
157757

>  <gnina_score_min>  (1668) 
5.65

>  <name>  (1668) 
P131732

>  <exports>  (1668) 
['/opt/xchem-fragalysis-2/maxwin/BulkDock/OUTPUTS/openbind_d68ev3c_c2_elabs_1LOTQJ3.sdf', '/opt/xchem-fragalysis-2/maxwin/BulkDock/OUTPUTS/openbind_d68ev3c_c2_elabs_1LSYI5W.sdf']

$$$$
P131733
     RDKit          3D

 27 29  0  0  0  0  0  0  0  0999 V2000
  -13.5901    1.9249   14.3929 C   0  0  0  0  0  0  0  0  0  0  0  0
  -14.4362    1.3099   13.4058 N   0  0  0  0  0  0  0  0  0  0  0  0
  -15.6539    0.8289   13.7316 N   0  0  0  0  0  0  0  0  0  0  0  0
  -16.1072    0.3620   12.5619 C   0  0  0  0  0  0  0  0  0  0  0  0
  -15.2233    0.5758   11.4790 C   0  0  0  0  0  0  0  0  0  0  0  0
  -15.4866    0.2037   10.0643 C   0  0  0  0  0  0  0  0  0  0  0  0
  -14.8021    1.1048    9.1462 N   0  0  0  0  0  0  0  0  0  0  0  0
  -13.4641    0.5939    8.8384 C   0  0  0  0  0  0  0  0  0  0  0  0
  -12.5493    1.7101    8.2921 C   0  0  0  0  0  0  0  0  0  0  0  0
  -11.2015    1.3055    7.8717 N   0  0  0  0  0  0  0  0  0  0  0  0
  -10.2705    1.1332    9.0086 C   0  0  0  0  0  0  0  0  0  0  0  0
   -8.8462    0.7436    8.5343 C   0  0  0  0  0  0  0  0  0  0  0  0
   -8.8927   -0.4694    7.6933 N   0  0  0  0  0  0  0  0  0  0  0  0
   -7.7142   -1.1265    7.3384 C   0  0  0  0  0  0  0  0  0  0  0  0
   -7.7888   -2.4305    6.8166 C   0  0  0  0  0  0  0  0  0  0  0  0
   -6.6587   -3.1141    6.3791 C   0  0  0  0  0  0  0  0  0  0  0  0
   -5.4141   -2.5113    6.4864 C   0  0  0  0  0  0  0  0  0  0  0  0
   -5.2939   -1.2341    7.0472 C   0  0  0  0  0  0  0  0  0  0  0  0
   -3.9339   -0.6171    7.1744 C   0  0  0  0  0  0  0  0  0  0  0  0
   -3.9483    0.7160    7.4540 F   0  0  0  0  0  0  0  0  0  0  0  0
   -3.1770   -1.1969    8.1434 F   0  0  0  0  0  0  0  0  0  0  0  0
   -3.2225   -0.7427    6.0198 F   0  0  0  0  0  0  0  0  0  0  0  0
   -6.4452   -0.5562    7.4747 C   0  0  0  0  0  0  0  0  0  0  0  0
   -9.8372   -0.3336    6.5641 C   0  0  0  0  0  0  0  0  0  0  0  0
  -11.2254    0.0557    7.0832 C   0  0  0  0  0  0  0  0  0  0  0  0
  -14.1511    1.1922   12.0841 C   0  0  0  0  0  0  0  0  0  0  0  0
  -13.0299    1.6309   11.4974 F   0  0  0  0  0  0  0  0  0  0  0  0
  1  2  1  0
  2  3  1  0
  3  4  2  0
  4  5  1  0
  5  6  1  0
  6  7  1  0
  7  8  1  0
  8  9  1  0
  9 10  1  0
 10 11  1  0
 11 12  1  0
 12 13  1  0
 13 14  1  0
 14 15  2  0
 15 16  1  0
 16 17  2  0
 17 18  1  0
 18 19  1  0
 19 20  1  0
 19 21  1  0
 19 22  1  0
 18 23  2  0
 13 24  1  0
 24 25  1  0
  5 26  2  0
 26 27  1  0
 26  2  1  0
 25 10  1  0
 23 14  1  0
M  END
>  <ref_mols>  (1669) 
B0426a

>  <gnina_score>  (1669) 
5.55

>  <smina_score_min>  (1669) 
-6.424

>  <ref_pdb>  (1669) 
B0426a

>  <inspiration_score>  (1669) 
None

>  <inchikey>  (1669) 
ODSZFVLBYSAAAE-UHFFFAOYSA-N

>  <tags>  (1669) 
BulkDock Fragalysis export,openbind_d68ev3c_c2_elabs_scored,openbind_d68ev3c_c2_elabs_scored_4.5plus,openbind_d68ev3c_c2_elabs,openbind_d68ev3c_c2_elabs_scored_5plus,syndirella_product,openbind_d68ev3c_c2_elabs_scored_top80percent,syndirella_placed

>  <smiles>  (1669) 
Cn1ncc(CNCCN2CCN(c3cccc(C(F)(F)F)c3)CC2)c1F

>  <subsites>  (1669) 
None

>  <rmsd(smina/fragmenstein)>  (1669) 
0.596

>  <alias>  (1669) 
None

>  <energy_score>  (1669) 
-43.791052

>  <HIPPO Pose ID>  (1669) 
131733

>  <distance_score>  (1669) 
0.870978

>  <HIPPO Compound ID>  (1669) 
157758

>  <gnina_score_min>  (1669) 
5.574

>  <name>  (1669) 
P131733

>  <exports>  (1669) 
['/opt/xchem-fragalysis-2/maxwin/BulkDock/OUTPUTS/openbind_d68ev3c_c2_elabs_1LOTQJ3.sdf', '/opt/xchem-fragalysis-2/maxwin/BulkDock/OUTPUTS/openbind_d68ev3c_c2_elabs_1LSYI5W.sdf']

$$$$
P131734
     RDKit          3D

 27 29  0  0  0  0  0  0  0  0999 V2000
  -18.3826    2.1199    6.7383 C   0  0  0  0  0  0  0  0  0  0  0  0
  -17.4924    1.1737    7.3642 N   0  0  0  0  0  0  0  0  0  0  0  0
  -17.0496    1.1888    8.6541 C   0  0  0  0  0  0  0  0  0  0  0  0
  -16.1785    0.1247    8.7830 C   0  0  0  0  0  0  0  0  0  0  0  0
  -15.4345   -0.3789    9.9663 C   0  0  0  0  0  0  0  0  0  0  0  0
  -15.0734    0.6820   10.9008 N   0  0  0  0  0  0  0  0  0  0  0  0
  -13.6724    1.0830   10.7424 C   0  0  0  0  0  0  0  0  0  0  0  0
  -13.4105    1.7893    9.4115 C   0  0  0  0  0  0  0  0  0  0  0  0
  -11.9633    2.2732    9.2971 C   0  0  0  0  0  0  0  0  0  0  0  0
  -11.1047    1.4488    8.4347 N   0  0  0  0  0  0  0  0  0  0  0  0
  -10.9872    0.0460    8.8922 C   0  0  0  0  0  0  0  0  0  0  0  0
  -10.0233   -0.7884    8.0228 C   0  0  0  0  0  0  0  0  0  0  0  0
   -8.6914   -0.1608    7.9408 N   0  0  0  0  0  0  0  0  0  0  0  0
   -7.6612   -0.9231    7.3771 C   0  0  0  0  0  0  0  0  0  0  0  0
   -7.8654   -2.1590    6.7415 C   0  0  0  0  0  0  0  0  0  0  0  0
   -6.8056   -2.9003    6.2142 C   0  0  0  0  0  0  0  0  0  0  0  0
   -5.5082   -2.4195    6.3178 C   0  0  0  0  0  0  0  0  0  0  0  0
   -5.2624   -1.2052    6.9646 C   0  0  0  0  0  0  0  0  0  0  0  0
   -3.8600   -0.6981    7.0980 C   0  0  0  0  0  0  0  0  0  0  0  0
   -3.7766    0.6303    7.3913 F   0  0  0  0  0  0  0  0  0  0  0  0
   -3.1483   -1.3419    8.0597 F   0  0  0  0  0  0  0  0  0  0  0  0
   -3.1624   -0.8592    5.9401 F   0  0  0  0  0  0  0  0  0  0  0  0
   -6.3374   -0.4807    7.4946 C   0  0  0  0  0  0  0  0  0  0  0  0
   -8.7615    1.2485    7.5082 C   0  0  0  0  0  0  0  0  0  0  0  0
   -9.7470    2.0401    8.3930 C   0  0  0  0  0  0  0  0  0  0  0  0
  -16.1892   -0.4685    7.4960 C   0  0  0  0  0  0  0  0  0  0  0  0
  -17.0312    0.1290    6.6509 N   0  0  0  0  0  0  0  0  0  0  0  0
  1  2  1  0
  2  3  1  0
  3  4  2  0
  4  5  1  0
  5  6  1  0
  6  7  1  0
  7  8  1  0
  8  9  1  0
  9 10  1  0
 10 11  1  0
 11 12  1  0
 12 13  1  0
 13 14  1  0
 14 15  2  0
 15 16  1  0
 16 17  2  0
 17 18  1  0
 18 19  1  0
 19 20  1  0
 19 21  1  0
 19 22  1  0
 18 23  2  0
 13 24  1  0
 24 25  1  0
  4 26  1  0
 26 27  2  0
 27  2  1  0
 25 10  1  0
 23 14  1  0
M  END
>  <ref_mols>  (1670) 
B0426a

>  <gnina_score>  (1670) 
5.141

>  <smina_score_min>  (1670) 
-5.275

>  <ref_pdb>  (1670) 
B0426a

>  <inspiration_score>  (1670) 
None

>  <inchikey>  (1670) 
KLUJHQHFQBCZEN-UHFFFAOYSA-N

>  <tags>  (1670) 
BulkDock Fragalysis export,openbind_d68ev3c_c2_elabs_scored,openbind_d68ev3c_c2_elabs_scored_4.5plus,openbind_d68ev3c_c2_elabs,openbind_d68ev3c_c2_elabs_scored_5plus,syndirella_product,openbind_d68ev3c_c2_elabs_scored_top80percent,syndirella_placed

>  <smiles>  (1670) 
Cn1cc(CNCCCN2CCN(c3cccc(C(F)(F)F)c3)CC2)cn1

>  <subsites>  (1670) 
None

>  <rmsd(smina/fragmenstein)>  (1670) 
0.927

>  <alias>  (1670) 
None

>  <energy_score>  (1670) 
-61.439356

>  <HIPPO Pose ID>  (1670) 
131734

>  <distance_score>  (1670) 
0.605941

>  <HIPPO Compound ID>  (1670) 
157762

>  <gnina_score_min>  (1670) 
5.32

>  <name>  (1670) 
P131734

>  <exports>  (1670) 
['/opt/xchem-fragalysis-2/maxwin/BulkDock/OUTPUTS/openbind_d68ev3c_c2_elabs_1LOTQJ3.sdf', '/opt/xchem-fragalysis-2/maxwin/BulkDock/OUTPUTS/openbind_d68ev3c_c2_elabs_1LSYI5W.sdf']

$$$$
P131735
     RDKit          3D

 27 29  0  0  0  0  0  0  0  0999 V2000
  -13.0425    1.3630   14.3646 C   0  0  0  0  0  0  0  0  0  0  0  0
  -14.0229    1.0272   13.3637 N   0  0  0  0  0  0  0  0  0  0  0  0
  -13.7607    0.5821   12.1044 C   0  0  0  0  0  0  0  0  0  0  0  0
  -14.9752    0.5361   11.4438 C   0  0  0  0  0  0  0  0  0  0  0  0
  -15.2689    0.2295   10.0183 C   0  0  0  0  0  0  0  0  0  0  0  0
  -14.0871    0.3598    9.1678 N   0  0  0  0  0  0  0  0  0  0  0  0
  -13.5153    1.7097    9.1466 C   0  0  0  0  0  0  0  0  0  0  0  0
  -12.5898    1.9994    7.9464 C   0  0  0  0  0  0  0  0  0  0  0  0
  -11.3494    1.2539    7.7402 N   0  0  0  0  0  0  0  0  0  0  0  0
  -10.2916    1.5098    8.7278 C   0  0  0  0  0  0  0  0  0  0  0  0
   -8.9422    0.9047    8.2576 C   0  0  0  0  0  0  0  0  0  0  0  0
   -9.0285   -0.5294    7.8839 N   0  0  0  0  0  0  0  0  0  0  0  0
   -7.8530   -1.1660    7.4289 C   0  0  0  0  0  0  0  0  0  0  0  0
   -7.8855   -2.4686    6.8932 C   0  0  0  0  0  0  0  0  0  0  0  0
   -6.7461   -3.1081    6.4000 C   0  0  0  0  0  0  0  0  0  0  0  0
   -5.5167   -2.4735    6.4658 C   0  0  0  0  0  0  0  0  0  0  0  0
   -5.4186   -1.2045    7.0413 C   0  0  0  0  0  0  0  0  0  0  0  0
   -4.0693   -0.5551    7.1550 C   0  0  0  0  0  0  0  0  0  0  0  0
   -3.3438   -0.6869    6.0082 F   0  0  0  0  0  0  0  0  0  0  0  0
   -4.1148    0.7829    7.4067 F   0  0  0  0  0  0  0  0  0  0  0  0
   -3.3043   -1.0964    8.1408 F   0  0  0  0  0  0  0  0  0  0  0  0
   -6.5819   -0.5715    7.5207 C   0  0  0  0  0  0  0  0  0  0  0  0
  -10.2530   -0.8809    7.1158 C   0  0  0  0  0  0  0  0  0  0  0  0
  -11.5234   -0.2024    7.6559 C   0  0  0  0  0  0  0  0  0  0  0  0
  -15.9099    0.8626   12.4575 C   0  0  0  0  0  0  0  0  0  0  0  0
  -17.5969    0.9213   12.2939 Cl  0  0  0  0  0  0  0  0  0  0  0  0
  -15.3358    1.1489   13.6287 N   0  0  0  0  0  0  0  0  0  0  0  0
  1  2  1  0
  2  3  1  0
  3  4  2  0
  4  5  1  0
  5  6  1  0
  6  7  1  0
  7  8  1  0
  8  9  1  0
  9 10  1  0
 10 11  1  0
 11 12  1  0
 12 13  1  0
 13 14  2  0
 14 15  1  0
 15 16  2  0
 16 17  1  0
 17 18  1  0
 18 19  1  0
 18 20  1  0
 18 21  1  0
 17 22  2  0
 12 23  1  0
 23 24  1  0
  4 25  1  0
 25 26  1  0
 25 27  2  0
 27  2  1  0
 24  9  1  0
 22 13  1  0
M  END
>  <ref_mols>  (1671) 
B0426a

>  <gnina_score>  (1671) 
5.589

>  <smina_score_min>  (1671) 
-5.952

>  <ref_pdb>  (1671) 
B0426a

>  <inspiration_score>  (1671) 
None

>  <inchikey>  (1671) 
KVKCKCLQGOIPOH-UHFFFAOYSA-N

>  <tags>  (1671) 
BulkDock Fragalysis export,openbind_d68ev3c_c2_elabs_scored,openbind_d68ev3c_c2_elabs_scored_4.5plus,openbind_d68ev3c_c2_elabs,openbind_d68ev3c_c2_elabs_scored_5plus,syndirella_product,openbind_d68ev3c_c2_elabs_scored_top80percent,syndirella_placed

>  <smiles>  (1671) 
Cn1cc(CNCCN2CCN(c3cccc(C(F)(F)F)c3)CC2)c(Cl)n1

>  <subsites>  (1671) 
None

>  <rmsd(smina/fragmenstein)>  (1671) 
0.656

>  <alias>  (1671) 
None

>  <energy_score>  (1671) 
-52.865559

>  <HIPPO Pose ID>  (1671) 
131735

>  <distance_score>  (1671) 
0.56617

>  <HIPPO Compound ID>  (1671) 
157763

>  <gnina_score_min>  (1671) 
5.652

>  <name>  (1671) 
P131735

>  <exports>  (1671) 
['/opt/xchem-fragalysis-2/maxwin/BulkDock/OUTPUTS/openbind_d68ev3c_c2_elabs_1LOTQJ3.sdf', '/opt/xchem-fragalysis-2/maxwin/BulkDock/OUTPUTS/openbind_d68ev3c_c2_elabs_1LSYI5W.sdf']

$$$$
P131736
     RDKit          3D

 27 29  0  0  0  0  0  0  0  0999 V2000
  -10.7301    5.2042    6.4217 C   0  0  0  0  0  0  0  0  0  0  0  0
  -10.6753    3.7131    6.7209 C   0  0  0  0  0  0  0  0  0  0  0  0
   -9.9567    3.4405    8.0467 C   0  0  0  0  0  0  0  0  0  0  0  0
   -9.8862    1.9460    8.4547 C   0  0  2  0  0  0  0  0  0  0  0  0
   -8.8774    1.2054    7.5134 C   0  0  0  0  0  0  0  0  0  0  0  0
   -8.7459   -0.2137    7.8913 N   0  0  0  0  0  0  0  0  0  0  0  0
   -7.6891   -0.9296    7.3179 C   0  0  0  0  0  0  0  0  0  0  0  0
   -7.8571   -2.1529    6.6449 C   0  0  0  0  0  0  0  0  0  0  0  0
   -6.7749   -2.8723    6.1353 C   0  0  0  0  0  0  0  0  0  0  0  0
   -5.4884   -2.3797    6.2892 C   0  0  0  0  0  0  0  0  0  0  0  0
   -5.2779   -1.1718    6.9618 C   0  0  0  0  0  0  0  0  0  0  0  0
   -3.8830   -0.6583    7.1448 C   0  0  0  0  0  0  0  0  0  0  0  0
   -3.8151    0.6736    7.4237 F   0  0  0  0  0  0  0  0  0  0  0  0
   -3.1410   -0.8331    6.0170 F   0  0  0  0  0  0  0  0  0  0  0  0
   -3.2072   -1.2888    8.1403 F   0  0  0  0  0  0  0  0  0  0  0  0
   -6.3766   -0.4674    7.4740 C   0  0  0  0  0  0  0  0  0  0  0  0
  -10.0488   -0.8903    7.9487 C   0  0  0  0  0  0  0  0  0  0  0  0
  -11.0062   -0.1495    8.8932 C   0  0  0  0  0  0  0  0  0  0  0  0
  -11.2277    1.2780    8.5247 N   0  0  0  0  0  0  0  0  0  0  0  0
  -12.0860    1.9363    9.5323 C   0  0  0  0  0  0  0  0  0  0  0  0
  -13.3939    1.2398    9.7092 C   0  0  0  0  0  0  0  0  0  0  0  0
  -14.3459    0.9368    8.7539 C   0  0  0  0  0  0  0  0  0  0  0  0
  -15.3603    0.3065    9.4099 N   0  0  0  0  0  0  0  0  0  0  0  0
  -16.6096   -0.1096    8.8241 C   0  0  0  0  0  0  0  0  0  0  0  0
  -15.1501    0.1753   10.7322 N   0  0  0  0  0  0  0  0  0  0  0  0
  -13.9569    0.7477   10.9106 C   0  0  0  0  0  0  0  0  0  0  0  0
  -13.2802    0.8464   12.4628 Cl  0  0  0  0  0  0  0  0  0  0  0  0
  1  2  1  0
  2  3  1  0
  4  3  1  6
  4  5  1  0
  5  6  1  0
  6  7  1  0
  7  8  2  0
  8  9  1  0
  9 10  2  0
 10 11  1  0
 11 12  1  0
 12 13  1  0
 12 14  1  0
 12 15  1  0
 11 16  2  0
  6 17  1  0
 17 18  1  0
 18 19  1  0
 19 20  1  0
 20 21  1  0
 21 22  2  0
 22 23  1  0
 23 24  1  0
 23 25  1  0
 25 26  2  0
 26 27  1  0
 19  4  1  0
 26 21  1  0
 16  7  1  0
M  END
>  <ref_mols>  (1672) 
B0426a

>  <gnina_score>  (1672) 
5.961

>  <smina_score_min>  (1672) 
-5.686

>  <ref_pdb>  (1672) 
B0426a

>  <inspiration_score>  (1672) 
None

>  <inchikey>  (1672) 
CUZNOAUMOHPEAC-QGZVFWFLSA-N

>  <tags>  (1672) 
BulkDock Fragalysis export,openbind_d68ev3c_c2_elabs_scored,openbind_d68ev3c_c2_elabs_scored_4.5plus,openbind_d68ev3c_c2_elabs,openbind_d68ev3c_c2_elabs_scored_5plus,syndirella_product,openbind_d68ev3c_c2_elabs_scored_top80percent,syndirella_placed

>  <smiles>  (1672) 
CCC[C@@H]1CN(c2cccc(C(F)(F)F)c2)CCN1Cc1cn(C)nc1Cl

>  <subsites>  (1672) 
None

>  <rmsd(smina/fragmenstein)>  (1672) 
0.741

>  <alias>  (1672) 
None

>  <energy_score>  (1672) 
-54.110983

>  <HIPPO Pose ID>  (1672) 
131736

>  <distance_score>  (1672) 
0.431766

>  <HIPPO Compound ID>  (1672) 
157764

>  <gnina_score_min>  (1672) 
6.129

>  <name>  (1672) 
P131736

>  <exports>  (1672) 
['/opt/xchem-fragalysis-2/maxwin/BulkDock/OUTPUTS/openbind_d68ev3c_c2_elabs_1LOTQJ3.sdf', '/opt/xchem-fragalysis-2/maxwin/BulkDock/OUTPUTS/openbind_d68ev3c_c2_elabs_1LSYI5W.sdf']

$$$$
P131738
     RDKit          3D

 27 29  0  0  0  0  0  0  0  0999 V2000
  -18.2702    1.2356   13.2959 C   0  0  0  0  0  0  0  0  0  0  0  0
  -17.0917    0.9008   12.5338 N   0  0  0  0  0  0  0  0  0  0  0  0
  -15.8886    0.8928   13.1465 N   0  0  0  0  0  0  0  0  0  0  0  0
  -15.0413    0.5540   12.1665 C   0  0  0  0  0  0  0  0  0  0  0  0
  -15.6880    0.3150   10.9283 C   0  0  0  0  0  0  0  0  0  0  0  0
  -15.0804   -0.1292    9.6515 C   0  0  0  0  0  0  0  0  0  0  0  0
  -14.4773    0.9769    8.9221 N   0  0  0  0  0  0  0  0  0  0  0  0
  -13.2794    1.5105    9.5812 C   0  0  0  0  0  0  0  0  0  0  0  0
  -12.3647    2.2295    8.5691 C   0  0  0  0  0  0  0  0  0  0  0  0
  -11.1674    1.5224    8.1016 N   0  0  0  0  0  0  0  0  0  0  0  0
  -11.4400    0.1481    7.6362 C   0  0  0  0  0  0  0  0  0  0  0  0
  -10.1904   -0.5122    7.0084 C   0  0  0  0  0  0  0  0  0  0  0  0
   -9.0010   -0.4427    7.8983 N   0  0  0  0  0  0  0  0  0  0  0  0
   -7.8650   -1.1165    7.4131 C   0  0  0  0  0  0  0  0  0  0  0  0
   -7.9716   -2.4195    6.8976 C   0  0  0  0  0  0  0  0  0  0  0  0
   -6.8685   -3.1087    6.3882 C   0  0  0  0  0  0  0  0  0  0  0  0
   -5.6123   -2.5180    6.4089 C   0  0  0  0  0  0  0  0  0  0  0  0
   -5.4476   -1.2448    6.9584 C   0  0  0  0  0  0  0  0  0  0  0  0
   -4.0760   -0.6354    7.0262 C   0  0  0  0  0  0  0  0  0  0  0  0
   -3.2812   -1.2255    7.9600 F   0  0  0  0  0  0  0  0  0  0  0  0
   -4.0723    0.6955    7.3213 F   0  0  0  0  0  0  0  0  0  0  0  0
   -3.4056   -0.7486    5.8441 F   0  0  0  0  0  0  0  0  0  0  0  0
   -6.5724   -0.5644    7.4568 C   0  0  0  0  0  0  0  0  0  0  0  0
   -8.8025    0.8874    8.5117 C   0  0  0  0  0  0  0  0  0  0  0  0
  -10.1014    1.4584    9.1153 C   0  0  0  0  0  0  0  0  0  0  0  0
  -17.0085    0.5636   11.2166 C   0  0  0  0  0  0  0  0  0  0  0  0
  -18.4027    0.4981   10.2413 Cl  0  0  0  0  0  0  0  0  0  0  0  0
  1  2  1  0
  2  3  1  0
  3  4  2  0
  4  5  1  0
  5  6  1  0
  6  7  1  0
  7  8  1  0
  8  9  1  0
  9 10  1  0
 10 11  1  0
 11 12  1  0
 12 13  1  0
 13 14  1  0
 14 15  2  0
 15 16  1  0
 16 17  2  0
 17 18  1  0
 18 19  1  0
 19 20  1  0
 19 21  1  0
 19 22  1  0
 18 23  2  0
 13 24  1  0
 24 25  1  0
  5 26  2  0
 26 27  1  0
 26  2  1  0
 25 10  1  0
 23 14  1  0
M  END
>  <ref_mols>  (1673) 
B0426a

>  <gnina_score>  (1673) 
5.417

>  <smina_score_min>  (1673) 
-6.425

>  <ref_pdb>  (1673) 
B0426a

>  <inspiration_score>  (1673) 
None

>  <inchikey>  (1673) 
PLKYZAVOBTXGTK-UHFFFAOYSA-N

>  <tags>  (1673) 
BulkDock Fragalysis export,openbind_d68ev3c_c2_elabs_scored,openbind_d68ev3c_c2_elabs_scored_4.5plus,openbind_d68ev3c_c2_elabs,openbind_d68ev3c_c2_elabs_scored_5plus,syndirella_product,openbind_d68ev3c_c2_elabs_scored_top80percent,syndirella_placed

>  <smiles>  (1673) 
Cn1ncc(CNCCN2CCN(c3cccc(C(F)(F)F)c3)CC2)c1Cl

>  <subsites>  (1673) 
None

>  <rmsd(smina/fragmenstein)>  (1673) 
1.598

>  <alias>  (1673) 
None

>  <energy_score>  (1673) 
-51.031671

>  <HIPPO Pose ID>  (1673) 
131738

>  <distance_score>  (1673) 
0.586828

>  <HIPPO Compound ID>  (1673) 
157765

>  <gnina_score_min>  (1673) 
5.606

>  <name>  (1673) 
P131738

>  <exports>  (1673) 
['/opt/xchem-fragalysis-2/maxwin/BulkDock/OUTPUTS/openbind_d68ev3c_c2_elabs_1LOTQJ3.sdf', '/opt/xchem-fragalysis-2/maxwin/BulkDock/OUTPUTS/openbind_d68ev3c_c2_elabs_1LSYI5W.sdf']

$$$$
P131739
     RDKit          3D

 27 29  0  0  0  0  0  0  0  0999 V2000
  -10.5709    5.3289    6.7644 C   0  0  0  0  0  0  0  0  0  0  0  0
  -10.5577    3.8183    6.9475 C   0  0  0  0  0  0  0  0  0  0  0  0
   -9.8896    3.4265    8.2701 C   0  0  0  0  0  0  0  0  0  0  0  0
   -9.8689    1.9039    8.5639 C   0  0  2  0  0  0  0  0  0  0  0  0
   -8.8517    1.2095    7.5978 C   0  0  0  0  0  0  0  0  0  0  0  0
   -8.7706   -0.2397    7.8663 N   0  0  0  0  0  0  0  0  0  0  0  0
   -7.7032   -0.9435    7.2985 C   0  0  0  0  0  0  0  0  0  0  0  0
   -7.8602   -2.1531    6.5982 C   0  0  0  0  0  0  0  0  0  0  0  0
   -6.7713   -2.8649    6.0908 C   0  0  0  0  0  0  0  0  0  0  0  0
   -5.4867   -2.3768    6.2690 C   0  0  0  0  0  0  0  0  0  0  0  0
   -5.2848   -1.1825    6.9669 C   0  0  0  0  0  0  0  0  0  0  0  0
   -3.8931   -0.6673    7.1696 C   0  0  0  0  0  0  0  0  0  0  0  0
   -3.2274   -1.3025    8.1689 F   0  0  0  0  0  0  0  0  0  0  0  0
   -3.8317    0.6630    7.4576 F   0  0  0  0  0  0  0  0  0  0  0  0
   -3.1366   -0.8328    6.0498 F   0  0  0  0  0  0  0  0  0  0  0  0
   -6.3904   -0.4908    7.4839 C   0  0  0  0  0  0  0  0  0  0  0  0
  -10.0974   -0.8733    7.8160 C   0  0  0  0  0  0  0  0  0  0  0  0
  -11.0641   -0.1869    8.7932 C   0  0  0  0  0  0  0  0  0  0  0  0
  -11.2269    1.2715    8.5480 N   0  0  0  0  0  0  0  0  0  0  0  0
  -12.1024    1.8840    9.5661 C   0  0  0  0  0  0  0  0  0  0  0  0
  -13.4122    1.1905    9.7075 C   0  0  0  0  0  0  0  0  0  0  0  0
  -13.9185    0.5691   10.8765 C   0  0  0  0  0  0  0  0  0  0  0  0
  -15.1356    0.0416   10.7104 N   0  0  0  0  0  0  0  0  0  0  0  0
  -15.4176    0.3146    9.4136 N   0  0  0  0  0  0  0  0  0  0  0  0
  -16.6972   -0.0639    8.8686 C   0  0  0  0  0  0  0  0  0  0  0  0
  -14.4206    1.0067    8.7945 C   0  0  0  0  0  0  0  0  0  0  0  0
  -14.5609    1.4888    7.1680 Cl  0  0  0  0  0  0  0  0  0  0  0  0
  1  2  1  0
  2  3  1  0
  4  3  1  6
  4  5  1  0
  5  6  1  0
  6  7  1  0
  7  8  2  0
  8  9  1  0
  9 10  2  0
 10 11  1  0
 11 12  1  0
 12 13  1  0
 12 14  1  0
 12 15  1  0
 11 16  2  0
  6 17  1  0
 17 18  1  0
 18 19  1  0
 19 20  1  0
 20 21  1  0
 21 22  1  0
 22 23  2  0
 23 24  1  0
 24 25  1  0
 24 26  1  0
 26 27  1  0
 19  4  1  0
 26 21  2  0
 16  7  1  0
M  END
>  <ref_mols>  (1674) 
B0426a

>  <gnina_score>  (1674) 
5.788

>  <smina_score_min>  (1674) 
-5.327

>  <ref_pdb>  (1674) 
B0426a

>  <inspiration_score>  (1674) 
None

>  <inchikey>  (1674) 
QKFSAFYSSPXUJX-QGZVFWFLSA-N

>  <tags>  (1674) 
BulkDock Fragalysis export,openbind_d68ev3c_c2_elabs_scored,openbind_d68ev3c_c2_elabs_scored_4.5plus,openbind_d68ev3c_c2_elabs,openbind_d68ev3c_c2_elabs_scored_5plus,syndirella_product,openbind_d68ev3c_c2_elabs_scored_top80percent,syndirella_placed

>  <smiles>  (1674) 
CCC[C@@H]1CN(c2cccc(C(F)(F)F)c2)CCN1Cc1cnn(C)c1Cl

>  <subsites>  (1674) 
None

>  <rmsd(smina/fragmenstein)>  (1674) 
0.546

>  <alias>  (1674) 
None

>  <energy_score>  (1674) 
-44.419792

>  <HIPPO Pose ID>  (1674) 
131739

>  <distance_score>  (1674) 
0.398013

>  <HIPPO Compound ID>  (1674) 
157768

>  <gnina_score_min>  (1674) 
5.877

>  <name>  (1674) 
P131739

>  <exports>  (1674) 
['/opt/xchem-fragalysis-2/maxwin/BulkDock/OUTPUTS/openbind_d68ev3c_c2_elabs_1LOTQJ3.sdf', '/opt/xchem-fragalysis-2/maxwin/BulkDock/OUTPUTS/openbind_d68ev3c_c2_elabs_1LSYI5W.sdf']

$$$$
P131742
     RDKit          3D

 27 29  0  0  0  0  0  0  0  0999 V2000
  -10.3736    3.9086   11.7024 C   0  0  0  0  0  0  0  0  0  0  0  0
  -10.1153    3.6676   10.2222 C   0  0  0  0  0  0  0  0  0  0  0  0
  -10.0897    2.1710    9.8632 C   0  0  0  0  0  0  0  0  0  0  0  0
  -10.2784    1.9397    8.3411 C   0  0  1  0  0  0  0  0  0  0  0  0
   -9.0241    1.2496    7.6930 C   0  0  0  0  0  0  0  0  0  0  0  0
   -9.0009   -0.2244    7.8579 N   0  0  0  0  0  0  0  0  0  0  0  0
   -7.8752   -0.9123    7.3525 C   0  0  0  0  0  0  0  0  0  0  0  0
   -7.9690   -2.1644    6.7089 C   0  0  0  0  0  0  0  0  0  0  0  0
   -6.8514   -2.8612    6.2403 C   0  0  0  0  0  0  0  0  0  0  0  0
   -5.5874   -2.3230    6.4042 C   0  0  0  0  0  0  0  0  0  0  0  0
   -5.4351   -1.0920    7.0489 C   0  0  0  0  0  0  0  0  0  0  0  0
   -4.0528   -0.5355    7.2336 C   0  0  0  0  0  0  0  0  0  0  0  0
   -3.2867   -0.7072    6.1183 F   0  0  0  0  0  0  0  0  0  0  0  0
   -4.0228    0.8007    7.4936 F   0  0  0  0  0  0  0  0  0  0  0  0
   -3.3697   -1.1344    8.2448 F   0  0  0  0  0  0  0  0  0  0  0  0
   -6.5739   -0.4125    7.5285 C   0  0  0  0  0  0  0  0  0  0  0  0
  -10.3149   -0.8369    7.5601 C   0  0  0  0  0  0  0  0  0  0  0  0
  -11.4656   -0.1722    8.3337 C   0  0  0  0  0  0  0  0  0  0  0  0
  -11.5619    1.2610    8.0219 N   0  0  0  0  0  0  0  0  0  0  0  0
  -12.7287    1.9843    8.5413 C   0  0  0  0  0  0  0  0  0  0  0  0
  -13.7680    1.1839    9.2374 C   0  0  0  0  0  0  0  0  0  0  0  0
  -14.9678    0.7325    8.7218 C   0  0  0  0  0  0  0  0  0  0  0  0
  -15.6724    0.2239    9.7749 N   0  0  0  0  0  0  0  0  0  0  0  0
  -17.0783   -0.0863    9.7627 C   0  0  0  0  0  0  0  0  0  0  0  0
  -14.9856    0.2153   10.9347 N   0  0  0  0  0  0  0  0  0  0  0  0
  -13.8537    0.8121   10.5885 C   0  0  0  0  0  0  0  0  0  0  0  0
  -13.0071    1.0182   11.5917 O   0  0  0  0  0  0  0  0  0  0  0  0
  1  2  1  0
  2  3  1  0
  4  3  1  1
  4  5  1  0
  5  6  1  0
  6  7  1  0
  7  8  2  0
  8  9  1  0
  9 10  2  0
 10 11  1  0
 11 12  1  0
 12 13  1  0
 12 14  1  0
 12 15  1  0
 11 16  2  0
  6 17  1  0
 17 18  1  0
 18 19  1  0
 19 20  1  0
 20 21  1  0
 21 22  2  0
 22 23  1  0
 23 24  1  0
 23 25  1  0
 25 26  2  0
 26 27  1  0
 19  4  1  0
 26 21  1  0
 16  7  1  0
M  END
>  <ref_mols>  (1675) 
B0426a

>  <gnina_score>  (1675) 
5.664

>  <smina_score_min>  (1675) 
-5.709

>  <ref_pdb>  (1675) 
B0426a

>  <inspiration_score>  (1675) 
None

>  <inchikey>  (1675) 
LFQNCCILZLAOLQ-KRWDZBQOSA-N

>  <tags>  (1675) 
BulkDock Fragalysis export,openbind_d68ev3c_c2_elabs_scored,openbind_d68ev3c_c2_elabs_scored_4.5plus,openbind_d68ev3c_c2_elabs,openbind_d68ev3c_c2_elabs_scored_5plus,syndirella_product,openbind_d68ev3c_c2_elabs_scored_top80percent,syndirella_placed

>  <smiles>  (1675) 
CCC[C@H]1CN(c2cccc(C(F)(F)F)c2)CCN1Cc1cn(C)nc1O

>  <subsites>  (1675) 
None

>  <rmsd(smina/fragmenstein)>  (1675) 
1.484

>  <alias>  (1675) 
None

>  <energy_score>  (1675) 
-69.435148

>  <HIPPO Pose ID>  (1675) 
131742

>  <distance_score>  (1675) 
0.395723

>  <HIPPO Compound ID>  (1675) 
157770

>  <gnina_score_min>  (1675) 
5.461

>  <name>  (1675) 
P131742

>  <exports>  (1675) 
['/opt/xchem-fragalysis-2/maxwin/BulkDock/OUTPUTS/openbind_d68ev3c_c2_elabs_1LOTQJ3.sdf', '/opt/xchem-fragalysis-2/maxwin/BulkDock/OUTPUTS/openbind_d68ev3c_c2_elabs_1LSYI5W.sdf']

$$$$
P131743
     RDKit          3D

 27 29  0  0  0  0  0  0  0  0999 V2000
  -12.9994    1.3188   14.3249 C   0  0  0  0  0  0  0  0  0  0  0  0
  -13.9967    0.9990   13.3358 N   0  0  0  0  0  0  0  0  0  0  0  0
  -13.7637    0.5403   12.0702 C   0  0  0  0  0  0  0  0  0  0  0  0
  -14.9851    0.5464   11.4162 C   0  0  0  0  0  0  0  0  0  0  0  0
  -15.3093    0.2769    9.9886 C   0  0  0  0  0  0  0  0  0  0  0  0
  -14.1610    0.4077    9.0950 N   0  0  0  0  0  0  0  0  0  0  0  0
  -13.5070    1.7188    9.1507 C   0  0  0  0  0  0  0  0  0  0  0  0
  -12.5765    2.0177    7.9594 C   0  0  0  0  0  0  0  0  0  0  0  0
  -11.3316    1.2783    7.7603 N   0  0  0  0  0  0  0  0  0  0  0  0
  -11.5046   -0.1554    7.5054 C   0  0  0  0  0  0  0  0  0  0  0  0
  -10.2096   -0.7834    6.9629 C   0  0  0  0  0  0  0  0  0  0  0  0
   -9.0417   -0.5361    7.8518 N   0  0  0  0  0  0  0  0  0  0  0  0
   -7.8580   -1.1712    7.4203 C   0  0  0  0  0  0  0  0  0  0  0  0
   -7.8895   -2.4837    6.9113 C   0  0  0  0  0  0  0  0  0  0  0  0
   -6.7497   -3.1267    6.4261 C   0  0  0  0  0  0  0  0  0  0  0  0
   -5.5220   -2.4859    6.4802 C   0  0  0  0  0  0  0  0  0  0  0  0
   -5.4262   -1.2075    7.0363 C   0  0  0  0  0  0  0  0  0  0  0  0
   -4.0778   -0.5538    7.1403 C   0  0  0  0  0  0  0  0  0  0  0  0
   -4.1254    0.7841    7.3922 F   0  0  0  0  0  0  0  0  0  0  0  0
   -3.3053   -1.0923    8.1221 F   0  0  0  0  0  0  0  0  0  0  0  0
   -3.3589   -0.6844    5.9894 F   0  0  0  0  0  0  0  0  0  0  0  0
   -6.5908   -0.5691    7.5039 C   0  0  0  0  0  0  0  0  0  0  0  0
   -8.9487    0.8653    8.3317 C   0  0  0  0  0  0  0  0  0  0  0  0
  -10.3108    1.4415    8.8024 C   0  0  0  0  0  0  0  0  0  0  0  0
  -15.8811    0.9079   12.4468 C   0  0  0  0  0  0  0  0  0  0  0  0
  -17.2094    1.0425   12.4159 O   0  0  0  0  0  0  0  0  0  0  0  0
  -15.3009    1.1640   13.6114 N   0  0  0  0  0  0  0  0  0  0  0  0
  1  2  1  0
  2  3  1  0
  3  4  2  0
  4  5  1  0
  5  6  1  0
  6  7  1  0
  7  8  1  0
  8  9  1  0
  9 10  1  0
 10 11  1  0
 11 12  1  0
 12 13  1  0
 13 14  2  0
 14 15  1  0
 15 16  2  0
 16 17  1  0
 17 18  1  0
 18 19  1  0
 18 20  1  0
 18 21  1  0
 17 22  2  0
 12 23  1  0
 23 24  1  0
  4 25  1  0
 25 26  1  0
 25 27  2  0
 27  2  1  0
 24  9  1  0
 22 13  1  0
M  END
>  <ref_mols>  (1676) 
B0426a

>  <gnina_score>  (1676) 
5.52

>  <smina_score_min>  (1676) 
-5.918

>  <ref_pdb>  (1676) 
B0426a

>  <inspiration_score>  (1676) 
None

>  <inchikey>  (1676) 
ROGSCXORKSDJLJ-UHFFFAOYSA-N

>  <tags>  (1676) 
BulkDock Fragalysis export,openbind_d68ev3c_c2_elabs_scored,openbind_d68ev3c_c2_elabs_scored_4.5plus,openbind_d68ev3c_c2_elabs,openbind_d68ev3c_c2_elabs_scored_5plus,syndirella_product,openbind_d68ev3c_c2_elabs_scored_top80percent,syndirella_placed

>  <smiles>  (1676) 
Cn1cc(CNCCN2CCN(c3cccc(C(F)(F)F)c3)CC2)c(O)n1

>  <subsites>  (1676) 
None

>  <rmsd(smina/fragmenstein)>  (1676) 
0.629

>  <alias>  (1676) 
None

>  <energy_score>  (1676) 
-52.954467

>  <HIPPO Pose ID>  (1676) 
131743

>  <distance_score>  (1676) 
0.572514

>  <HIPPO Compound ID>  (1676) 
157771

>  <gnina_score_min>  (1676) 
5.544

>  <name>  (1676) 
P131743

>  <exports>  (1676) 
['/opt/xchem-fragalysis-2/maxwin/BulkDock/OUTPUTS/openbind_d68ev3c_c2_elabs_1LOTQJ3.sdf', '/opt/xchem-fragalysis-2/maxwin/BulkDock/OUTPUTS/openbind_d68ev3c_c2_elabs_1LSYI5W.sdf']

$$$$
P131745
     RDKit          3D

 27 29  0  0  0  0  0  0  0  0999 V2000
  -13.1209    1.3217   14.3469 C   0  0  0  0  0  0  0  0  0  0  0  0
  -14.0906    1.0287   13.3220 N   0  0  0  0  0  0  0  0  0  0  0  0
  -13.8277    0.5205   12.0841 C   0  0  0  0  0  0  0  0  0  0  0  0
  -15.0191    0.5619   11.3807 C   0  0  0  0  0  0  0  0  0  0  0  0
  -15.3151    0.2317    9.9579 C   0  0  1  0  0  0  0  0  0  0  0  0
  -16.3713    1.0106    9.4371 O   0  0  0  0  0  0  0  0  0  0  0  0
  -14.1785    0.4002    9.0697 N   0  0  0  0  0  0  0  0  0  0  0  0
  -13.4905    1.6935    9.1874 C   0  0  0  0  0  0  0  0  0  0  0  0
  -12.5700    2.0242    7.9967 C   0  0  0  0  0  0  0  0  0  0  0  0
  -11.3269    1.2866    7.7766 N   0  0  0  0  0  0  0  0  0  0  0  0
  -10.2972    1.4455    8.8118 C   0  0  0  0  0  0  0  0  0  0  0  0
   -8.9387    0.8703    8.3314 C   0  0  0  0  0  0  0  0  0  0  0  0
   -9.0369   -0.5302    7.8502 N   0  0  0  0  0  0  0  0  0  0  0  0
   -7.8553   -1.1678    7.4173 C   0  0  0  0  0  0  0  0  0  0  0  0
   -7.8899   -2.4805    6.9095 C   0  0  0  0  0  0  0  0  0  0  0  0
   -6.7512   -3.1260    6.4247 C   0  0  0  0  0  0  0  0  0  0  0  0
   -5.5223   -2.4875    6.4777 C   0  0  0  0  0  0  0  0  0  0  0  0
   -5.4237   -1.2088    7.0324 C   0  0  0  0  0  0  0  0  0  0  0  0
   -4.0745   -0.5569    7.1360 C   0  0  0  0  0  0  0  0  0  0  0  0
   -4.1204    0.7811    7.3874 F   0  0  0  0  0  0  0  0  0  0  0  0
   -3.3026   -1.0960    8.1178 F   0  0  0  0  0  0  0  0  0  0  0  0
   -3.3562   -0.6889    5.9849 F   0  0  0  0  0  0  0  0  0  0  0  0
   -6.5870   -0.5679    7.4994 C   0  0  0  0  0  0  0  0  0  0  0  0
  -10.2063   -0.7709    6.9622 C   0  0  0  0  0  0  0  0  0  0  0  0
  -11.4992   -0.1455    7.5136 C   0  0  0  0  0  0  0  0  0  0  0  0
  -15.9525    1.0126   12.3490 C   0  0  0  0  0  0  0  0  0  0  0  0
  -15.3954    1.2643   13.5371 N   0  0  0  0  0  0  0  0  0  0  0  0
  1  2  1  0
  2  3  1  0
  3  4  2  0
  4  5  1  0
  5  6  1  6
  5  7  1  0
  7  8  1  0
  8  9  1  0
  9 10  1  0
 10 11  1  0
 11 12  1  0
 12 13  1  0
 13 14  1  0
 14 15  2  0
 15 16  1  0
 16 17  2  0
 17 18  1  0
 18 19  1  0
 19 20  1  0
 19 21  1  0
 19 22  1  0
 18 23  2  0
 13 24  1  0
 24 25  1  0
  4 26  1  0
 26 27  2  0
 27  2  1  0
 25 10  1  0
 23 14  1  0
M  END
>  <ref_mols>  (1677) 
B0426a

>  <gnina_score>  (1677) 
5.405

>  <smina_score_min>  (1677) 
-5.943

>  <ref_pdb>  (1677) 
B0426a

>  <inspiration_score>  (1677) 
None

>  <inchikey>  (1677) 
GBDSGXWAZWFXBJ-QGZVFWFLSA-N

>  <tags>  (1677) 
BulkDock Fragalysis export,openbind_d68ev3c_c2_elabs_scored,openbind_d68ev3c_c2_elabs_scored_4.5plus,openbind_d68ev3c_c2_elabs,openbind_d68ev3c_c2_elabs_scored_5plus,syndirella_product,openbind_d68ev3c_c2_elabs_scored_top80percent,syndirella_placed

>  <smiles>  (1677) 
Cn1cc([C@@H](O)NCCN2CCN(c3cccc(C(F)(F)F)c3)CC2)cn1

>  <subsites>  (1677) 
None

>  <rmsd(smina/fragmenstein)>  (1677) 
0.796

>  <alias>  (1677) 
None

>  <energy_score>  (1677) 
-52.507203

>  <HIPPO Pose ID>  (1677) 
131745

>  <distance_score>  (1677) 
0.562619

>  <HIPPO Compound ID>  (1677) 
157772

>  <gnina_score_min>  (1677) 
5.555

>  <name>  (1677) 
P131745

>  <exports>  (1677) 
['/opt/xchem-fragalysis-2/maxwin/BulkDock/OUTPUTS/openbind_d68ev3c_c2_elabs_1LOTQJ3.sdf', '/opt/xchem-fragalysis-2/maxwin/BulkDock/OUTPUTS/openbind_d68ev3c_c2_elabs_1LSYI5W.sdf']

$$$$
P131746
     RDKit          3D

 27 29  0  0  0  0  0  0  0  0999 V2000
  -13.1497    1.5420   14.3582 C   0  0  0  0  0  0  0  0  0  0  0  0
  -14.1592    1.1587   13.4036 N   0  0  0  0  0  0  0  0  0  0  0  0
  -13.9475    0.8858   12.0836 C   0  0  0  0  0  0  0  0  0  0  0  0
  -15.1811    0.5649   11.5461 C   0  0  0  0  0  0  0  0  0  0  0  0
  -15.5552    0.2099   10.1506 C   0  0  0  0  0  0  0  0  0  0  0  0
  -14.8655    1.0907    9.2097 N   0  0  0  0  0  0  0  0  0  0  0  0
  -13.5529    0.5604    8.8385 C   0  0  0  0  0  0  0  0  0  0  0  0
  -12.6114    1.6818    8.3438 C   0  0  0  0  0  0  0  0  0  0  0  0
  -11.2659    1.2771    7.9152 N   0  0  0  0  0  0  0  0  0  0  0  0
  -10.3176    1.1129    9.0371 C   0  0  0  0  0  0  0  0  0  0  0  0
   -8.8948    0.7378    8.5446 C   0  0  0  0  0  0  0  0  0  0  0  0
   -8.9401   -0.4794    7.7118 N   0  0  0  0  0  0  0  0  0  0  0  0
   -7.7575   -1.1263    7.3468 C   0  0  0  0  0  0  0  0  0  0  0  0
   -7.8232   -2.4313    6.8260 C   0  0  0  0  0  0  0  0  0  0  0  0
   -6.6888   -3.1079    6.3865 C   0  0  0  0  0  0  0  0  0  0  0  0
   -5.4474   -2.4975    6.4898 C   0  0  0  0  0  0  0  0  0  0  0  0
   -5.3343   -1.2184    7.0476 C   0  0  0  0  0  0  0  0  0  0  0  0
   -3.9766   -0.5938    7.1755 C   0  0  0  0  0  0  0  0  0  0  0  0
   -3.2554   -0.7262    6.0275 F   0  0  0  0  0  0  0  0  0  0  0  0
   -4.0006    0.7418    7.4425 F   0  0  0  0  0  0  0  0  0  0  0  0
   -3.2239   -1.1600    8.1558 F   0  0  0  0  0  0  0  0  0  0  0  0
   -6.4906   -0.5475    7.4771 C   0  0  0  0  0  0  0  0  0  0  0  0
   -9.9008   -0.3588    6.5934 C   0  0  0  0  0  0  0  0  0  0  0  0
  -11.2878    0.0291    7.1229 C   0  0  0  0  0  0  0  0  0  0  0  0
  -16.0519    0.6585   12.6545 C   0  0  0  0  0  0  0  0  0  0  0  0
  -17.3674    0.4164   12.5849 F   0  0  0  0  0  0  0  0  0  0  0  0
  -15.4406    1.0131   13.7861 N   0  0  0  0  0  0  0  0  0  0  0  0
  1  2  1  0
  2  3  1  0
  3  4  2  0
  4  5  1  0
  5  6  1  0
  6  7  1  0
  7  8  1  0
  8  9  1  0
  9 10  1  0
 10 11  1  0
 11 12  1  0
 12 13  1  0
 13 14  2  0
 14 15  1  0
 15 16  2  0
 16 17  1  0
 17 18  1  0
 18 19  1  0
 18 20  1  0
 18 21  1  0
 17 22  2  0
 12 23  1  0
 23 24  1  0
  4 25  1  0
 25 26  1  0
 25 27  2  0
 27  2  1  0
 24  9  1  0
 22 13  1  0
M  END
>  <ref_mols>  (1678) 
B0426a

>  <gnina_score>  (1678) 
5.433

>  <smina_score_min>  (1678) 
-6.346

>  <ref_pdb>  (1678) 
B0426a

>  <inspiration_score>  (1678) 
None

>  <inchikey>  (1678) 
CQVPVIFGEAJNGV-UHFFFAOYSA-N

>  <tags>  (1678) 
BulkDock Fragalysis export,openbind_d68ev3c_c2_elabs_scored,openbind_d68ev3c_c2_elabs_scored_4.5plus,openbind_d68ev3c_c2_elabs,openbind_d68ev3c_c2_elabs_scored_5plus,syndirella_product,openbind_d68ev3c_c2_elabs_scored_top80percent,syndirella_placed

>  <smiles>  (1678) 
Cn1cc(CNCCN2CCN(c3cccc(C(F)(F)F)c3)CC2)c(F)n1

>  <subsites>  (1678) 
None

>  <rmsd(smina/fragmenstein)>  (1678) 
0.632

>  <alias>  (1678) 
None

>  <energy_score>  (1678) 
-48.858137

>  <HIPPO Pose ID>  (1678) 
131746

>  <distance_score>  (1678) 
0.654618

>  <HIPPO Compound ID>  (1678) 
157773

>  <gnina_score_min>  (1678) 
5.411

>  <name>  (1678) 
P131746

>  <exports>  (1678) 
['/opt/xchem-fragalysis-2/maxwin/BulkDock/OUTPUTS/openbind_d68ev3c_c2_elabs_1LOTQJ3.sdf', '/opt/xchem-fragalysis-2/maxwin/BulkDock/OUTPUTS/openbind_d68ev3c_c2_elabs_1LSYI5W.sdf']

$$$$
P131748
     RDKit          3D

 27 29  0  0  0  0  0  0  0  0999 V2000
   -8.9205    5.6724    8.9057 C   0  0  0  0  0  0  0  0  0  0  0  0
   -8.9246    4.2838    8.2830 C   0  0  0  0  0  0  0  0  0  0  0  0
   -9.9195    3.3584    8.9905 C   0  0  0  0  0  0  0  0  0  0  0  0
  -10.0869    1.9762    8.3148 C   0  0  1  0  0  0  0  0  0  0  0  0
   -8.7376    1.1945    8.2512 C   0  0  0  0  0  0  0  0  0  0  0  0
   -8.8926   -0.0993    7.5566 N   0  0  0  0  0  0  0  0  0  0  0  0
   -7.7902   -0.8605    7.1806 C   0  0  0  0  0  0  0  0  0  0  0  0
   -7.9310   -2.0850    6.5014 C   0  0  0  0  0  0  0  0  0  0  0  0
   -6.8337   -2.8553    6.1063 C   0  0  0  0  0  0  0  0  0  0  0  0
   -5.5482   -2.3979    6.3477 C   0  0  0  0  0  0  0  0  0  0  0  0
   -5.3553   -1.1741    6.9924 C   0  0  0  0  0  0  0  0  0  0  0  0
   -3.9607   -0.6663    7.2143 C   0  0  0  0  0  0  0  0  0  0  0  0
   -3.1904   -0.8203    6.1012 F   0  0  0  0  0  0  0  0  0  0  0  0
   -3.8955    0.6596    7.5211 F   0  0  0  0  0  0  0  0  0  0  0  0
   -3.3080   -1.3178    8.2120 F   0  0  0  0  0  0  0  0  0  0  0  0
   -6.4736   -0.4327    7.4130 C   0  0  0  0  0  0  0  0  0  0  0  0
  -10.1992   -0.7574    7.7385 C   0  0  0  0  0  0  0  0  0  0  0  0
  -10.9309   -0.2258    8.9837 C   0  0  0  0  0  0  0  0  0  0  0  0
  -11.1634    1.2346    9.0284 N   0  0  0  0  0  0  0  0  0  0  0  0
  -12.4893    1.6024    8.5273 C   0  0  0  0  0  0  0  0  0  0  0  0
  -13.5836    1.0792    9.3926 C   0  0  0  0  0  0  0  0  0  0  0  0
  -14.8323    0.6530    8.9789 C   0  0  0  0  0  0  0  0  0  0  0  0
  -15.5145    0.3167   10.1090 N   0  0  0  0  0  0  0  0  0  0  0  0
  -16.9138   -0.0120   10.1976 C   0  0  0  0  0  0  0  0  0  0  0  0
  -14.7915    0.4294   11.2331 N   0  0  0  0  0  0  0  0  0  0  0  0
  -13.6286    0.9174   10.7959 C   0  0  0  0  0  0  0  0  0  0  0  0
  -12.6214    1.2183   11.6259 F   0  0  0  0  0  0  0  0  0  0  0  0
  1  2  1  0
  2  3  1  0
  4  3  1  1
  4  5  1  0
  5  6  1  0
  6  7  1  0
  7  8  2  0
  8  9  1  0
  9 10  2  0
 10 11  1  0
 11 12  1  0
 12 13  1  0
 12 14  1  0
 12 15  1  0
 11 16  2  0
  6 17  1  0
 17 18  1  0
 18 19  1  0
 19 20  1  0
 20 21  1  0
 21 22  2  0
 22 23  1  0
 23 24  1  0
 23 25  1  0
 25 26  2  0
 26 27  1  0
 19  4  1  0
 26 21  1  0
 16  7  1  0
M  END
>  <ref_mols>  (1679) 
B0426a

>  <gnina_score>  (1679) 
5.932

>  <smina_score_min>  (1679) 
-5.882

>  <ref_pdb>  (1679) 
B0426a

>  <inspiration_score>  (1679) 
None

>  <inchikey>  (1679) 
XCGMTFVHLDFUDF-KRWDZBQOSA-N

>  <tags>  (1679) 
BulkDock Fragalysis export,openbind_d68ev3c_c2_elabs_scored,openbind_d68ev3c_c2_elabs_scored_4.5plus,openbind_d68ev3c_c2_elabs,openbind_d68ev3c_c2_elabs_scored_5plus,syndirella_product,openbind_d68ev3c_c2_elabs_scored_top80percent,syndirella_placed

>  <smiles>  (1679) 
CCC[C@H]1CN(c2cccc(C(F)(F)F)c2)CCN1Cc1cn(C)nc1F

>  <subsites>  (1679) 
None

>  <rmsd(smina/fragmenstein)>  (1679) 
0.846

>  <alias>  (1679) 
None

>  <energy_score>  (1679) 
-39.660146

>  <HIPPO Pose ID>  (1679) 
131748

>  <distance_score>  (1679) 
0.464735

>  <HIPPO Compound ID>  (1679) 
157774

>  <gnina_score_min>  (1679) 
5.965

>  <name>  (1679) 
P131748

>  <exports>  (1679) 
['/opt/xchem-fragalysis-2/maxwin/BulkDock/OUTPUTS/openbind_d68ev3c_c2_elabs_1LOTQJ3.sdf', '/opt/xchem-fragalysis-2/maxwin/BulkDock/OUTPUTS/openbind_d68ev3c_c2_elabs_1LSYI5W.sdf']

$$$$
P131749
     RDKit          3D

 28 30  0  0  0  0  0  0  0  0999 V2000
   -9.2495    3.8331    6.5260 C   0  0  0  0  0  0  0  0  0  0  0  0
  -10.1546    4.1006    7.7141 C   0  0  0  0  0  0  0  0  0  0  0  0
   -9.9515    3.1853    8.9351 C   0  0  0  0  0  0  0  0  0  0  0  0
  -10.2020    1.6545    8.7904 C   0  0  2  0  0  0  0  0  0  0  0  0
   -8.8999    0.9718    8.2502 C   0  0  0  0  0  0  0  0  0  0  0  0
   -9.0400   -0.4601    7.9026 N   0  0  0  0  0  0  0  0  0  0  0  0
   -7.8881   -1.1269    7.4290 C   0  0  0  0  0  0  0  0  0  0  0  0
   -7.9535   -2.4303    6.9030 C   0  0  0  0  0  0  0  0  0  0  0  0
   -6.8292   -3.0966    6.4057 C   0  0  0  0  0  0  0  0  0  0  0  0
   -5.5843   -2.4879    6.4538 C   0  0  0  0  0  0  0  0  0  0  0  0
   -5.4534   -1.2182    7.0184 C   0  0  0  0  0  0  0  0  0  0  0  0
   -4.0926   -0.5900    7.1231 C   0  0  0  0  0  0  0  0  0  0  0  0
   -3.3744   -0.7287    5.9719 F   0  0  0  0  0  0  0  0  0  0  0  0
   -4.1157    0.7488    7.3773 F   0  0  0  0  0  0  0  0  0  0  0  0
   -3.3287   -1.1428    8.1037 F   0  0  0  0  0  0  0  0  0  0  0  0
   -6.6004   -0.5610    7.5029 C   0  0  0  0  0  0  0  0  0  0  0  0
  -10.2961   -0.7662    7.1752 C   0  0  0  0  0  0  0  0  0  0  0  0
  -11.5242   -0.1394    7.8535 C   0  0  0  0  0  0  0  0  0  0  0  0
  -11.4070    1.3218    8.0089 N   0  0  0  0  0  0  0  0  0  0  0  0
  -12.6562    1.9633    8.4159 C   0  0  0  0  0  0  0  0  0  0  0  0
  -13.5125    1.2394    9.3946 C   0  0  0  0  0  0  0  0  0  0  0  0
  -13.2720    0.9213   10.7497 C   0  0  0  0  0  0  0  0  0  0  0  0
  -14.3464    0.4056   11.3564 N   0  0  0  0  0  0  0  0  0  0  0  0
  -15.2770    0.3764   10.3841 N   0  0  0  0  0  0  0  0  0  0  0  0
  -16.6745    0.1339   10.6922 C   0  0  0  0  0  0  0  0  0  0  0  0
  -16.9532   -0.2724   12.1348 C   0  0  0  0  0  0  0  0  0  0  0  0
  -16.6719    0.7952   13.0385 O   0  0  0  0  0  0  0  0  0  0  0  0
  -14.8084    0.8117    9.1804 C   0  0  0  0  0  0  0  0  0  0  0  0
  1  2  1  0
  2  3  1  0
  4  3  1  6
  4  5  1  0
  5  6  1  0
  6  7  1  0
  7  8  2  0
  8  9  1  0
  9 10  2  0
 10 11  1  0
 11 12  1  0
 12 13  1  0
 12 14  1  0
 12 15  1  0
 11 16  2  0
  6 17  1  0
 17 18  1  0
 18 19  1  0
 19 20  1  0
 20 21  1  0
 21 22  1  0
 22 23  2  0
 23 24  1  0
 24 25  1  0
 25 26  1  0
 26 27  1  0
 24 28  1  0
 19  4  1  0
 28 21  2  0
 16  7  1  0
M  END
>  <ref_mols>  (1680) 
B0426a

>  <gnina_score>  (1680) 
5.725

>  <smina_score_min>  (1680) 
-5.572

>  <ref_pdb>  (1680) 
B0426a

>  <inspiration_score>  (1680) 
None

>  <inchikey>  (1680) 
BHLBQFNKVRGKCU-LJQANCHMSA-N

>  <tags>  (1680) 
BulkDock Fragalysis export,openbind_d68ev3c_c2_elabs_scored,openbind_d68ev3c_c2_elabs_scored_4.5plus,openbind_d68ev3c_c2_elabs,openbind_d68ev3c_c2_elabs_scored_5plus,syndirella_product,openbind_d68ev3c_c2_elabs_scored_top80percent,syndirella_placed

>  <smiles>  (1680) 
CCC[C@@H]1CN(c2cccc(C(F)(F)F)c2)CCN1Cc1cnn(CCO)c1

>  <subsites>  (1680) 
None

>  <rmsd(smina/fragmenstein)>  (1680) 
0.782

>  <alias>  (1680) 
None

>  <energy_score>  (1680) 
-45.446061

>  <HIPPO Pose ID>  (1680) 
131749

>  <distance_score>  (1680) 
0.429234

>  <HIPPO Compound ID>  (1680) 
157776

>  <gnina_score_min>  (1680) 
5.869

>  <name>  (1680) 
P131749

>  <exports>  (1680) 
['/opt/xchem-fragalysis-2/maxwin/BulkDock/OUTPUTS/openbind_d68ev3c_c2_elabs_1LOTQJ3.sdf', '/opt/xchem-fragalysis-2/maxwin/BulkDock/OUTPUTS/openbind_d68ev3c_c2_elabs_1LSYI5W.sdf']

$$$$
P131751
     RDKit          3D

 28 30  0  0  0  0  0  0  0  0999 V2000
  -12.2911    0.3185   14.5229 O   0  0  0  0  0  0  0  0  0  0  0  0
  -12.6382    1.6509   14.1755 C   0  0  0  0  0  0  0  0  0  0  0  0
  -14.1336    1.9176   14.3123 C   0  0  0  0  0  0  0  0  0  0  0  0
  -14.8861    1.3279   13.2202 N   0  0  0  0  0  0  0  0  0  0  0  0
  -14.6906    1.5760   11.8968 C   0  0  0  0  0  0  0  0  0  0  0  0
  -15.4083    0.6266   11.1987 C   0  0  0  0  0  0  0  0  0  0  0  0
  -15.4836    0.3895    9.7298 C   0  0  0  0  0  0  0  0  0  0  0  0
  -14.1621    0.3075    9.1071 N   0  0  0  0  0  0  0  0  0  0  0  0
  -13.3943    1.5562    9.1622 C   0  0  0  0  0  0  0  0  0  0  0  0
  -12.5441    1.8809    7.9212 C   0  0  0  0  0  0  0  0  0  0  0  0
  -11.3007    1.1572    7.6793 N   0  0  0  0  0  0  0  0  0  0  0  0
  -11.4602   -0.3033    7.6707 C   0  0  0  0  0  0  0  0  0  0  0  0
  -10.1952   -0.9912    7.1341 C   0  0  0  0  0  0  0  0  0  0  0  0
   -8.9548   -0.5860    7.8471 N   0  0  0  0  0  0  0  0  0  0  0  0
   -7.7791   -1.2177    7.3872 C   0  0  0  0  0  0  0  0  0  0  0  0
   -7.8067   -2.5039    6.8143 C   0  0  0  0  0  0  0  0  0  0  0  0
   -6.6619   -3.1303    6.3194 C   0  0  0  0  0  0  0  0  0  0  0  0
   -5.4336   -2.4986    6.4172 C   0  0  0  0  0  0  0  0  0  0  0  0
   -5.3425   -1.2467    7.0279 C   0  0  0  0  0  0  0  0  0  0  0  0
   -3.9986   -0.5956    7.1703 C   0  0  0  0  0  0  0  0  0  0  0  0
   -3.2476   -1.1426    8.1628 F   0  0  0  0  0  0  0  0  0  0  0  0
   -3.2589   -0.7178    6.0328 F   0  0  0  0  0  0  0  0  0  0  0  0
   -4.0520    0.7405    7.4309 F   0  0  0  0  0  0  0  0  0  0  0  0
   -6.5092   -0.6281    7.5119 C   0  0  0  0  0  0  0  0  0  0  0  0
   -8.8761    0.8639    8.1523 C   0  0  0  0  0  0  0  0  0  0  0  0
  -10.2184    1.4707    8.6259 C   0  0  0  0  0  0  0  0  0  0  0  0
  -16.1490   -0.0212   12.2180 C   0  0  0  0  0  0  0  0  0  0  0  0
  -15.8571    0.4300   13.4432 N   0  0  0  0  0  0  0  0  0  0  0  0
  1  2  1  0
  2  3  1  0
  3  4  1  0
  4  5  1  0
  5  6  2  0
  6  7  1  0
  7  8  1  0
  8  9  1  0
  9 10  1  0
 10 11  1  0
 11 12  1  0
 12 13  1  0
 13 14  1  0
 14 15  1  0
 15 16  2  0
 16 17  1  0
 17 18  2  0
 18 19  1  0
 19 20  1  0
 20 21  1  0
 20 22  1  0
 20 23  1  0
 19 24  2  0
 14 25  1  0
 25 26  1  0
  6 27  1  0
 27 28  2  0
 28  4  1  0
 26 11  1  0
 24 15  1  0
M  END
>  <ref_mols>  (1681) 
B0426a

>  <gnina_score>  (1681) 
5.322

>  <smina_score_min>  (1681) 
-5.881

>  <ref_pdb>  (1681) 
B0426a

>  <inspiration_score>  (1681) 
None

>  <inchikey>  (1681) 
FKGJZLPVNYMLLJ-UHFFFAOYSA-N

>  <tags>  (1681) 
BulkDock Fragalysis export,openbind_d68ev3c_c2_elabs_scored,openbind_d68ev3c_c2_elabs_scored_4.5plus,openbind_d68ev3c_c2_elabs,openbind_d68ev3c_c2_elabs_scored_5plus,syndirella_product,openbind_d68ev3c_c2_elabs_scored_top80percent,syndirella_placed

>  <smiles>  (1681) 
OCCn1cc(CNCCN2CCN(c3cccc(C(F)(F)F)c3)CC2)cn1

>  <subsites>  (1681) 
None

>  <rmsd(smina/fragmenstein)>  (1681) 
0.688

>  <alias>  (1681) 
None

>  <energy_score>  (1681) 
-29.281385

>  <HIPPO Pose ID>  (1681) 
131751

>  <distance_score>  (1681) 
0.645067

>  <HIPPO Compound ID>  (1681) 
157777

>  <gnina_score_min>  (1681) 
5.312

>  <name>  (1681) 
P131751

>  <exports>  (1681) 
['/opt/xchem-fragalysis-2/maxwin/BulkDock/OUTPUTS/openbind_d68ev3c_c2_elabs_1LOTQJ3.sdf', '/opt/xchem-fragalysis-2/maxwin/BulkDock/OUTPUTS/openbind_d68ev3c_c2_elabs_1LSYI5W.sdf']

$$$$
P131752
     RDKit          3D

 28 30  0  0  0  0  0  0  0  0999 V2000
  -17.6640    2.2162    5.8383 C   0  0  0  0  0  0  0  0  0  0  0  0
  -17.2723    1.3438    6.9192 N   0  0  0  0  0  0  0  0  0  0  0  0
  -17.2933    0.0075    6.7244 N   0  0  0  0  0  0  0  0  0  0  0  0
  -16.8331   -0.4816    7.8769 C   0  0  0  0  0  0  0  0  0  0  0  0
  -16.5694    0.5123    8.8510 C   0  0  0  0  0  0  0  0  0  0  0  0
  -16.1709    0.3153   10.2689 C   0  0  0  0  0  0  0  0  0  0  0  0
  -14.8988   -0.3750   10.4049 N   0  0  0  0  0  0  0  0  0  0  0  0
  -13.7411    0.5032   10.5471 C   0  0  0  0  0  0  0  0  0  0  0  0
  -13.4932    1.4341    9.3592 C   0  0  0  0  0  0  0  0  0  0  0  0
  -12.0683    1.9981    9.3581 C   0  0  0  0  0  0  0  0  0  0  0  0
  -11.1413    1.3133    8.4461 N   0  0  0  0  0  0  0  0  0  0  0  0
   -9.7780    1.8653    8.6117 C   0  0  0  0  0  0  0  0  0  0  0  0
   -8.7323    1.2054    7.6840 C   0  0  0  0  0  0  0  0  0  0  0  0
   -8.7252   -0.2634    7.8565 N   0  0  0  0  0  0  0  0  0  0  0  0
   -7.6592   -0.9756    7.2984 C   0  0  0  0  0  0  0  0  0  0  0  0
   -7.8212   -2.1815    6.5929 C   0  0  0  0  0  0  0  0  0  0  0  0
   -6.7360   -2.8943    6.0787 C   0  0  0  0  0  0  0  0  0  0  0  0
   -5.4496   -2.4105    6.2541 C   0  0  0  0  0  0  0  0  0  0  0  0
   -5.2427   -1.2241    6.9619 C   0  0  0  0  0  0  0  0  0  0  0  0
   -3.8528   -0.7045    7.1568 C   0  0  0  0  0  0  0  0  0  0  0  0
   -3.1085   -0.8551    6.0273 F   0  0  0  0  0  0  0  0  0  0  0  0
   -3.7944    0.6237    7.4562 F   0  0  0  0  0  0  0  0  0  0  0  0
   -3.1739   -1.3453    8.1431 F   0  0  0  0  0  0  0  0  0  0  0  0
   -6.3433   -0.5363    7.4908 C   0  0  0  0  0  0  0  0  0  0  0  0
  -10.0762   -0.8430    7.7149 C   0  0  0  0  0  0  0  0  0  0  0  0
  -11.0766   -0.1499    8.6578 C   0  0  0  0  0  0  0  0  0  0  0  0
  -16.8898    1.6749    8.1869 C   0  0  0  0  0  0  0  0  0  0  0  0
  -16.8963    3.2977    8.7058 Cl  0  0  0  0  0  0  0  0  0  0  0  0
  1  2  1  0
  2  3  1  0
  3  4  2  0
  4  5  1  0
  5  6  1  0
  6  7  1  0
  7  8  1  0
  8  9  1  0
  9 10  1  0
 10 11  1  0
 11 12  1  0
 12 13  1  0
 13 14  1  0
 14 15  1  0
 15 16  2  0
 16 17  1  0
 17 18  2  0
 18 19  1  0
 19 20  1  0
 20 21  1  0
 20 22  1  0
 20 23  1  0
 19 24  2  0
 14 25  1  0
 25 26  1  0
  5 27  2  0
 27 28  1  0
 27  2  1  0
 26 11  1  0
 24 15  1  0
M  END
>  <ref_mols>  (1682) 
B0426a

>  <gnina_score>  (1682) 
5.467

>  <smina_score_min>  (1682) 
-5.843

>  <ref_pdb>  (1682) 
B0426a

>  <inspiration_score>  (1682) 
None

>  <inchikey>  (1682) 
CBEHHHGTCBFWKB-UHFFFAOYSA-N

>  <tags>  (1682) 
BulkDock Fragalysis export,openbind_d68ev3c_c2_elabs_scored,openbind_d68ev3c_c2_elabs_scored_4.5plus,openbind_d68ev3c_c2_elabs,openbind_d68ev3c_c2_elabs_scored_5plus,syndirella_product,openbind_d68ev3c_c2_elabs_scored_top80percent,syndirella_placed

>  <smiles>  (1682) 
Cn1ncc(CNCCCN2CCN(c3cccc(C(F)(F)F)c3)CC2)c1Cl

>  <subsites>  (1682) 
None

>  <rmsd(smina/fragmenstein)>  (1682) 
1.113

>  <alias>  (1682) 
None

>  <energy_score>  (1682) 
-44.015166

>  <HIPPO Pose ID>  (1682) 
131752

>  <distance_score>  (1682) 
0.602074

>  <HIPPO Compound ID>  (1682) 
157778

>  <gnina_score_min>  (1682) 
5.343

>  <name>  (1682) 
P131752

>  <exports>  (1682) 
['/opt/xchem-fragalysis-2/maxwin/BulkDock/OUTPUTS/openbind_d68ev3c_c2_elabs_1LOTQJ3.sdf', '/opt/xchem-fragalysis-2/maxwin/BulkDock/OUTPUTS/openbind_d68ev3c_c2_elabs_1LSYI5W.sdf']

$$$$
P131753
     RDKit          3D

 28 30  0  0  0  0  0  0  0  0999 V2000
  -14.5778   -0.1522    4.6934 C   0  0  0  0  0  0  0  0  0  0  0  0
  -15.7873   -0.9147    5.2080 C   0  0  0  0  0  0  0  0  0  0  0  0
  -16.2598   -0.4205    6.4868 N   0  0  0  0  0  0  0  0  0  0  0  0
  -15.5723   -0.4372    7.6621 C   0  0  0  0  0  0  0  0  0  0  0  0
  -16.3647    0.1779    8.6090 C   0  0  0  0  0  0  0  0  0  0  0  0
  -16.1311    0.4622   10.0505 C   0  0  0  0  0  0  0  0  0  0  0  0
  -14.9259   -0.1733   10.5592 N   0  0  0  0  0  0  0  0  0  0  0  0
  -13.7517    0.6921   10.6632 C   0  0  0  0  0  0  0  0  0  0  0  0
  -13.4485    1.5810    9.4520 C   0  0  0  0  0  0  0  0  0  0  0  0
  -12.0067    2.0981    9.4615 C   0  0  0  0  0  0  0  0  0  0  0  0
  -11.1103    1.3918    8.5329 N   0  0  0  0  0  0  0  0  0  0  0  0
   -9.7395    1.9336    8.6524 C   0  0  0  0  0  0  0  0  0  0  0  0
   -8.7273    1.2521    7.7045 C   0  0  0  0  0  0  0  0  0  0  0  0
   -8.7210   -0.2120    7.9065 N   0  0  0  0  0  0  0  0  0  0  0  0
   -7.6724   -0.9381    7.3335 C   0  0  0  0  0  0  0  0  0  0  0  0
   -7.8572   -2.1469    6.6395 C   0  0  0  0  0  0  0  0  0  0  0  0
   -6.7862   -2.8725    6.1121 C   0  0  0  0  0  0  0  0  0  0  0  0
   -5.4921   -2.3999    6.2638 C   0  0  0  0  0  0  0  0  0  0  0  0
   -5.2625   -1.2111    6.9606 C   0  0  0  0  0  0  0  0  0  0  0  0
   -3.8644   -0.7049    7.1362 C   0  0  0  0  0  0  0  0  0  0  0  0
   -3.1782   -1.3540    8.1124 F   0  0  0  0  0  0  0  0  0  0  0  0
   -3.1357   -0.8597    5.9967 F   0  0  0  0  0  0  0  0  0  0  0  0
   -3.7892    0.6220    7.4379 F   0  0  0  0  0  0  0  0  0  0  0  0
   -6.3492   -0.5089    7.5002 C   0  0  0  0  0  0  0  0  0  0  0  0
  -10.0783   -0.7890    7.8185 C   0  0  0  0  0  0  0  0  0  0  0  0
  -11.0539   -0.0697    8.7708 C   0  0  0  0  0  0  0  0  0  0  0  0
  -17.5488    0.4742    7.8881 C   0  0  0  0  0  0  0  0  0  0  0  0
  -17.5080    0.0708    6.6165 N   0  0  0  0  0  0  0  0  0  0  0  0
  1  2  1  0
  2  3  1  0
  3  4  1  0
  4  5  2  0
  5  6  1  0
  6  7  1  0
  7  8  1  0
  8  9  1  0
  9 10  1  0
 10 11  1  0
 11 12  1  0
 12 13  1  0
 13 14  1  0
 14 15  1  0
 15 16  2  0
 16 17  1  0
 17 18  2  0
 18 19  1  0
 19 20  1  0
 20 21  1  0
 20 22  1  0
 20 23  1  0
 19 24  2  0
 14 25  1  0
 25 26  1  0
  5 27  1  0
 27 28  2  0
 28  3  1  0
 26 11  1  0
 24 15  1  0
M  END
>  <ref_mols>  (1683) 
B0426a

>  <gnina_score>  (1683) 
5.442

>  <smina_score_min>  (1683) 
-5.554

>  <ref_pdb>  (1683) 
B0426a

>  <inspiration_score>  (1683) 
None

>  <inchikey>  (1683) 
VJBSVPZBMJKWNP-UHFFFAOYSA-N

>  <tags>  (1683) 
BulkDock Fragalysis export,openbind_d68ev3c_c2_elabs_scored,openbind_d68ev3c_c2_elabs_scored_4.5plus,openbind_d68ev3c_c2_elabs,openbind_d68ev3c_c2_elabs_scored_5plus,syndirella_product,openbind_d68ev3c_c2_elabs_scored_top80percent,syndirella_placed

>  <smiles>  (1683) 
CCn1cc(CNCCCN2CCN(c3cccc(C(F)(F)F)c3)CC2)cn1

>  <subsites>  (1683) 
None

>  <rmsd(smina/fragmenstein)>  (1683) 
0.795

>  <alias>  (1683) 
None

>  <energy_score>  (1683) 
-39.674714

>  <HIPPO Pose ID>  (1683) 
131753

>  <distance_score>  (1683) 
0.585513

>  <HIPPO Compound ID>  (1683) 
157779

>  <gnina_score_min>  (1683) 
5.43

>  <name>  (1683) 
P131753

>  <exports>  (1683) 
['/opt/xchem-fragalysis-2/maxwin/BulkDock/OUTPUTS/openbind_d68ev3c_c2_elabs_1LOTQJ3.sdf', '/opt/xchem-fragalysis-2/maxwin/BulkDock/OUTPUTS/openbind_d68ev3c_c2_elabs_1LSYI5W.sdf']

$$$$
P131754
     RDKit          3D

 28 30  0  0  0  0  0  0  0  0999 V2000
  -17.0482    2.4376    5.8317 C   0  0  0  0  0  0  0  0  0  0  0  0
  -16.8853    1.4795    6.8976 N   0  0  0  0  0  0  0  0  0  0  0  0
  -16.5878    1.7467    8.2025 C   0  0  0  0  0  0  0  0  0  0  0  0
  -16.4561    0.5255    8.8421 C   0  0  0  0  0  0  0  0  0  0  0  0
  -16.1690    0.1871   10.2632 C   0  0  2  0  0  0  0  0  0  0  0  0
  -16.5141    1.5135   11.3853 Cl  0  0  0  0  0  0  0  0  0  0  0  0
  -14.8409   -0.3632   10.4687 N   0  0  0  0  0  0  0  0  0  0  0  0
  -13.7035    0.5427   10.5833 C   0  0  0  0  0  0  0  0  0  0  0  0
  -13.4625    1.4648    9.3885 C   0  0  0  0  0  0  0  0  0  0  0  0
  -12.0357    2.0232    9.3729 C   0  0  0  0  0  0  0  0  0  0  0  0
  -11.1218    1.3295    8.4540 N   0  0  0  0  0  0  0  0  0  0  0  0
  -11.0572   -0.1327    8.6755 C   0  0  0  0  0  0  0  0  0  0  0  0
  -10.0662   -0.8349    7.7293 C   0  0  0  0  0  0  0  0  0  0  0  0
   -8.7144   -0.2553    7.8559 N   0  0  0  0  0  0  0  0  0  0  0  0
   -7.6523   -0.9725    7.2980 C   0  0  0  0  0  0  0  0  0  0  0  0
   -7.8190   -2.1789    6.5949 C   0  0  0  0  0  0  0  0  0  0  0  0
   -6.7361   -2.8949    6.0803 C   0  0  0  0  0  0  0  0  0  0  0  0
   -5.4484   -2.4136    6.2530 C   0  0  0  0  0  0  0  0  0  0  0  0
   -5.2375   -1.2268    6.9590 C   0  0  0  0  0  0  0  0  0  0  0  0
   -3.8467   -0.7090    7.1510 C   0  0  0  0  0  0  0  0  0  0  0  0
   -3.1059   -0.8593    6.0193 F   0  0  0  0  0  0  0  0  0  0  0  0
   -3.7861    0.6189    7.4514 F   0  0  0  0  0  0  0  0  0  0  0  0
   -3.1661   -1.3515    8.1349 F   0  0  0  0  0  0  0  0  0  0  0  0
   -6.3354   -0.5360    7.4884 C   0  0  0  0  0  0  0  0  0  0  0  0
   -8.7211    1.2115    7.6689 C   0  0  0  0  0  0  0  0  0  0  0  0
   -9.7560    1.8805    8.6012 C   0  0  0  0  0  0  0  0  0  0  0  0
  -16.7399   -0.4060    7.8123 C   0  0  0  0  0  0  0  0  0  0  0  0
  -17.0379    0.1685    6.6488 N   0  0  0  0  0  0  0  0  0  0  0  0
  1  2  1  0
  2  3  1  0
  3  4  2  0
  4  5  1  0
  5  6  1  1
  5  7  1  0
  7  8  1  0
  8  9  1  0
  9 10  1  0
 10 11  1  0
 11 12  1  0
 12 13  1  0
 13 14  1  0
 14 15  1  0
 15 16  2  0
 16 17  1  0
 17 18  2  0
 18 19  1  0
 19 20  1  0
 20 21  1  0
 20 22  1  0
 20 23  1  0
 19 24  2  0
 14 25  1  0
 25 26  1  0
  4 27  1  0
 27 28  2  0
 28  2  1  0
 26 11  1  0
 24 15  1  0
M  END
>  <ref_mols>  (1684) 
B0426a

>  <gnina_score>  (1684) 
5.522

>  <smina_score_min>  (1684) 
-5.894

>  <ref_pdb>  (1684) 
B0426a

>  <inspiration_score>  (1684) 
None

>  <inchikey>  (1684) 
NPQYEGMYUXQIJI-GOSISDBHSA-N

>  <tags>  (1684) 
BulkDock Fragalysis export,openbind_d68ev3c_c2_elabs_scored,openbind_d68ev3c_c2_elabs_scored_4.5plus,openbind_d68ev3c_c2_elabs,openbind_d68ev3c_c2_elabs_scored_5plus,syndirella_product,openbind_d68ev3c_c2_elabs_scored_top80percent,syndirella_placed

>  <smiles>  (1684) 
Cn1cc([C@H](Cl)NCCCN2CCN(c3cccc(C(F)(F)F)c3)CC2)cn1

>  <subsites>  (1684) 
None

>  <rmsd(smina/fragmenstein)>  (1684) 
1.007

>  <alias>  (1684) 
None

>  <energy_score>  (1684) 
-41.33755

>  <HIPPO Pose ID>  (1684) 
131754

>  <distance_score>  (1684) 
0.58301

>  <HIPPO Compound ID>  (1684) 
157780

>  <gnina_score_min>  (1684) 
5.513

>  <name>  (1684) 
P131754

>  <exports>  (1684) 
['/opt/xchem-fragalysis-2/maxwin/BulkDock/OUTPUTS/openbind_d68ev3c_c2_elabs_1LOTQJ3.sdf', '/opt/xchem-fragalysis-2/maxwin/BulkDock/OUTPUTS/openbind_d68ev3c_c2_elabs_1LSYI5W.sdf']

$$$$
P131756
     RDKit          3D

 28 31  0  0  0  0  0  0  0  0999 V2000
   -3.1809   -1.2005    8.1513 F   0  0  0  0  0  0  0  0  0  0  0  0
   -3.9337   -0.6159    7.1823 C   0  0  0  0  0  0  0  0  0  0  0  0
   -3.9384    0.7176    7.4604 F   0  0  0  0  0  0  0  0  0  0  0  0
   -3.2230   -0.7473    6.0276 F   0  0  0  0  0  0  0  0  0  0  0  0
   -5.2983   -1.2228    7.0549 C   0  0  0  0  0  0  0  0  0  0  0  0
   -5.4267   -2.5027    6.5012 C   0  0  0  0  0  0  0  0  0  0  0  0
   -6.6760   -3.0951    6.3889 C   0  0  0  0  0  0  0  0  0  0  0  0
   -7.8026   -2.3979    6.8141 C   0  0  0  0  0  0  0  0  0  0  0  0
   -7.7182   -1.0927    7.3317 C   0  0  0  0  0  0  0  0  0  0  0  0
   -8.8934   -0.4242    7.6722 N   0  0  0  0  0  0  0  0  0  0  0  0
   -9.8058   -0.2481    6.5242 C   0  0  0  0  0  0  0  0  0  0  0  0
  -11.2050    0.1267    7.0243 C   0  0  0  0  0  0  0  0  0  0  0  0
  -11.2058    1.3495    7.8570 N   0  0  0  0  0  0  0  0  0  0  0  0
  -12.5653    1.7256    8.2746 C   0  0  0  0  0  0  0  0  0  0  0  0
  -13.4793    0.5665    8.7239 C   0  0  0  0  0  0  0  0  0  0  0  0
  -14.8223    1.0172    9.0899 N   0  0  0  0  0  0  0  0  0  0  0  0
  -15.4133    0.0994   10.0597 C   0  0  0  0  0  0  0  0  0  0  0  0
  -15.0906    0.5888   11.4220 C   0  0  0  0  0  0  0  0  0  0  0  0
  -13.8163    0.6939   12.0712 C   0  0  0  0  0  0  0  0  0  0  0  0
  -13.8914    1.2288   13.3007 N   0  0  0  0  0  0  0  0  0  0  0  0
  -15.1805    1.4968   13.3989 N   0  0  0  0  0  0  0  0  0  0  0  0
  -15.9497    1.0779   12.3693 C   0  0  0  0  0  0  0  0  0  0  0  0
  -17.3736    1.3134   12.6573 C   0  0  0  0  0  0  0  0  0  0  0  0
  -17.3311    1.5182   14.1971 C   0  0  0  0  0  0  0  0  0  0  0  0
  -15.9196    2.0571   14.5077 C   0  0  0  0  0  0  0  0  0  0  0  0
  -10.2855    1.1500    9.0003 C   0  0  0  0  0  0  0  0  0  0  0  0
   -8.8532    0.7682    8.5409 C   0  0  0  0  0  0  0  0  0  0  0  0
   -6.4458   -0.5323    7.4731 C   0  0  0  0  0  0  0  0  0  0  0  0
  1  2  1  0
  2  3  1  0
  2  4  1  0
  2  5  1  0
  5  6  2  0
  6  7  1  0
  7  8  2  0
  8  9  1  0
  9 10  1  0
 10 11  1  0
 11 12  1  0
 12 13  1  0
 13 14  1  0
 14 15  1  0
 15 16  1  0
 16 17  1  0
 17 18  1  0
 18 19  1  0
 19 20  2  0
 20 21  1  0
 21 22  1  0
 22 23  1  0
 23 24  1  0
 24 25  1  0
 13 26  1  0
 26 27  1  0
  9 28  2  0
 28  5  1  0
 27 10  1  0
 22 18  2  0
 25 21  1  0
M  END
>  <ref_mols>  (1685) 
B0426a

>  <gnina_score>  (1685) 
5.482

>  <smina_score_min>  (1685) 
-6.61

>  <ref_pdb>  (1685) 
B0426a

>  <inspiration_score>  (1685) 
None

>  <inchikey>  (1685) 
CGTXCWDCAOKSJO-UHFFFAOYSA-N

>  <tags>  (1685) 
BulkDock Fragalysis export,openbind_d68ev3c_c2_elabs_scored,openbind_d68ev3c_c2_elabs_scored_4.5plus,openbind_d68ev3c_c2_elabs,openbind_d68ev3c_c2_elabs_scored_5plus,syndirella_product,openbind_d68ev3c_c2_elabs_scored_top80percent,syndirella_placed

>  <smiles>  (1685) 
FC(F)(F)c1cccc(N2CCN(CCNCc3cnn4c3CCC4)CC2)c1

>  <subsites>  (1685) 
None

>  <rmsd(smina/fragmenstein)>  (1685) 
0.682

>  <alias>  (1685) 
None

>  <energy_score>  (1685) 
-36.048432

>  <HIPPO Pose ID>  (1685) 
131756

>  <distance_score>  (1685) 
0.654503

>  <HIPPO Compound ID>  (1685) 
157783

>  <gnina_score_min>  (1685) 
5.72

>  <name>  (1685) 
P131756

>  <exports>  (1685) 
['/opt/xchem-fragalysis-2/maxwin/BulkDock/OUTPUTS/openbind_d68ev3c_c2_elabs_1LOTQJ3.sdf', '/opt/xchem-fragalysis-2/maxwin/BulkDock/OUTPUTS/openbind_d68ev3c_c2_elabs_1LSYI5W.sdf']

$$$$
P131757
     RDKit          3D

 28 30  0  0  0  0  0  0  0  0999 V2000
  -12.1864    0.5590   14.7401 F   0  0  0  0  0  0  0  0  0  0  0  0
  -12.8795    1.6093   14.2254 C   0  0  0  0  0  0  0  0  0  0  0  0
  -11.9724    2.3871   13.5730 F   0  0  0  0  0  0  0  0  0  0  0  0
  -13.9227    1.1534   13.3169 N   0  0  0  0  0  0  0  0  0  0  0  0
  -13.7153    0.5838   12.0923 C   0  0  0  0  0  0  0  0  0  0  0  0
  -14.9388    0.5591   11.4534 C   0  0  0  0  0  0  0  0  0  0  0  0
  -15.2632    0.2012   10.0452 C   0  0  0  0  0  0  0  0  0  0  0  0
  -14.1084    0.3467    9.1626 N   0  0  0  0  0  0  0  0  0  0  0  0
  -13.5400    1.6977    9.1320 C   0  0  0  0  0  0  0  0  0  0  0  0
  -12.6118    1.9837    7.9328 C   0  0  0  0  0  0  0  0  0  0  0  0
  -11.3679    1.2422    7.7324 N   0  0  0  0  0  0  0  0  0  0  0  0
  -10.3143    1.5020    8.7247 C   0  0  0  0  0  0  0  0  0  0  0  0
   -8.9606    0.9001    8.2605 C   0  0  0  0  0  0  0  0  0  0  0  0
   -9.0408   -0.5332    7.8810 N   0  0  0  0  0  0  0  0  0  0  0  0
   -7.8630   -1.1667    7.4281 C   0  0  0  0  0  0  0  0  0  0  0  0
   -7.8918   -2.4695    6.8926 C   0  0  0  0  0  0  0  0  0  0  0  0
   -6.7506   -3.1072    6.4013 C   0  0  0  0  0  0  0  0  0  0  0  0
   -5.5226   -2.4702    6.4684 C   0  0  0  0  0  0  0  0  0  0  0  0
   -5.4279   -1.2005    7.0435 C   0  0  0  0  0  0  0  0  0  0  0  0
   -4.0793   -0.5494    7.1579 C   0  0  0  0  0  0  0  0  0  0  0  0
   -4.1257    0.7884    7.4100 F   0  0  0  0  0  0  0  0  0  0  0  0
   -3.3532   -0.6801    6.0110 F   0  0  0  0  0  0  0  0  0  0  0  0
   -3.3134   -1.0907    8.1430 F   0  0  0  0  0  0  0  0  0  0  0  0
   -6.5933   -0.5694    7.5215 C   0  0  0  0  0  0  0  0  0  0  0  0
  -10.2643   -0.8891    7.1140 C   0  0  0  0  0  0  0  0  0  0  0  0
  -11.5375   -0.2147    7.6525 C   0  0  0  0  0  0  0  0  0  0  0  0
  -15.8437    0.9916   12.4536 C   0  0  0  0  0  0  0  0  0  0  0  0
  -15.2397    1.3324   13.5964 N   0  0  0  0  0  0  0  0  0  0  0  0
  1  2  1  0
  2  3  1  0
  2  4  1  0
  4  5  1  0
  5  6  2  0
  6  7  1  0
  7  8  1  0
  8  9  1  0
  9 10  1  0
 10 11  1  0
 11 12  1  0
 12 13  1  0
 13 14  1  0
 14 15  1  0
 15 16  2  0
 16 17  1  0
 17 18  2  0
 18 19  1  0
 19 20  1  0
 20 21  1  0
 20 22  1  0
 20 23  1  0
 19 24  2  0
 14 25  1  0
 25 26  1  0
  6 27  1  0
 27 28  2  0
 28  4  1  0
 26 11  1  0
 24 15  1  0
M  END
>  <ref_mols>  (1686) 
B0426a

>  <gnina_score>  (1686) 
5.76

>  <smina_score_min>  (1686) 
-6.327

>  <ref_pdb>  (1686) 
B0426a

>  <inspiration_score>  (1686) 
None

>  <inchikey>  (1686) 
CMDUHWHWJZDNGG-UHFFFAOYSA-N

>  <tags>  (1686) 
BulkDock Fragalysis export,openbind_d68ev3c_c2_elabs_scored,openbind_d68ev3c_c2_elabs_scored_4.5plus,openbind_d68ev3c_c2_elabs,openbind_d68ev3c_c2_elabs_scored_5plus,syndirella_product,openbind_d68ev3c_c2_elabs_scored_top80percent,syndirella_placed

>  <smiles>  (1686) 
FC(F)n1cc(CNCCN2CCN(c3cccc(C(F)(F)F)c3)CC2)cn1

>  <subsites>  (1686) 
None

>  <rmsd(smina/fragmenstein)>  (1686) 
0.614

>  <alias>  (1686) 
None

>  <energy_score>  (1686) 
-34.357315

>  <HIPPO Pose ID>  (1686) 
131757

>  <distance_score>  (1686) 
0.568897

>  <HIPPO Compound ID>  (1686) 
157784

>  <gnina_score_min>  (1686) 
5.762

>  <name>  (1686) 
P131757

>  <exports>  (1686) 
['/opt/xchem-fragalysis-2/maxwin/BulkDock/OUTPUTS/openbind_d68ev3c_c2_elabs_1LOTQJ3.sdf', '/opt/xchem-fragalysis-2/maxwin/BulkDock/OUTPUTS/openbind_d68ev3c_c2_elabs_1LSYI5W.sdf']

$$$$
P131760
     RDKit          3D

 28 30  0  0  0  0  0  0  0  0999 V2000
   -8.6911    5.6723    7.5506 C   0  0  0  0  0  0  0  0  0  0  0  0
   -8.5400    4.1735    7.7709 C   0  0  0  0  0  0  0  0  0  0  0  0
   -9.9004    3.5020    7.9968 C   0  0  0  0  0  0  0  0  0  0  0  0
   -9.8632    2.0063    8.4298 C   0  0  2  0  0  0  0  0  0  0  0  0
   -8.8266    1.2359    7.5426 C   0  0  0  0  0  0  0  0  0  0  0  0
   -8.7683   -0.2007    7.8714 N   0  0  0  0  0  0  0  0  0  0  0  0
   -7.7075   -0.9318    7.3194 C   0  0  0  0  0  0  0  0  0  0  0  0
   -7.8778   -2.1525    6.6427 C   0  0  0  0  0  0  0  0  0  0  0  0
   -6.7961   -2.8774    6.1369 C   0  0  0  0  0  0  0  0  0  0  0  0
   -5.5067   -2.3931    6.2954 C   0  0  0  0  0  0  0  0  0  0  0  0
   -5.2914   -1.1915    6.9757 C   0  0  0  0  0  0  0  0  0  0  0  0
   -3.8952   -0.6797    7.1594 C   0  0  0  0  0  0  0  0  0  0  0  0
   -3.2163   -1.3210    8.1460 F   0  0  0  0  0  0  0  0  0  0  0  0
   -3.1551   -0.8414    6.0278 F   0  0  0  0  0  0  0  0  0  0  0  0
   -3.8262    0.6491    7.4525 F   0  0  0  0  0  0  0  0  0  0  0  0
   -6.3891   -0.4871    7.4916 C   0  0  0  0  0  0  0  0  0  0  0  0
  -10.0952   -0.8232    7.8403 C   0  0  0  0  0  0  0  0  0  0  0  0
  -11.0611   -0.0749    8.7676 C   0  0  0  0  0  0  0  0  0  0  0  0
  -11.2352    1.3639    8.4141 N   0  0  0  0  0  0  0  0  0  0  0  0
  -12.1630    2.0212    9.3499 C   0  0  1  0  0  0  0  0  0  0  0  0
  -12.5660    3.2657    8.8053 O   0  0  0  0  0  0  0  0  0  0  0  0
  -13.4093    1.2319    9.6234 C   0  0  0  0  0  0  0  0  0  0  0  0
  -13.7877    0.7112   10.8879 C   0  0  0  0  0  0  0  0  0  0  0  0
  -14.9736    0.0989   10.8719 N   0  0  0  0  0  0  0  0  0  0  0  0
  -15.3839    0.2529    9.5951 N   0  0  0  0  0  0  0  0  0  0  0  0
  -16.7288   -0.1212    9.2360 C   0  0  0  0  0  0  0  0  0  0  0  0
  -14.4627    0.8749    8.7999 C   0  0  0  0  0  0  0  0  0  0  0  0
  -14.6414    1.2506    6.7516 I   0  0  0  0  0  0  0  0  0  0  0  0
  1  2  1  0
  2  3  1  0
  4  3  1  6
  4  5  1  0
  5  6  1  0
  6  7  1  0
  7  8  2  0
  8  9  1  0
  9 10  2  0
 10 11  1  0
 11 12  1  0
 12 13  1  0
 12 14  1  0
 12 15  1  0
 11 16  2  0
  6 17  1  0
 17 18  1  0
 18 19  1  0
 19 20  1  0
 20 21  1  6
 20 22  1  0
 22 23  1  0
 23 24  2  0
 24 25  1  0
 25 26  1  0
 25 27  1  0
 27 28  1  0
 19  4  1  0
 27 22  2  0
 16  7  1  0
M  END
>  <ref_mols>  (1687) 
B0426a

>  <gnina_score>  (1687) 
5.86

>  <smina_score_min>  (1687) 
-5.868

>  <ref_pdb>  (1687) 
B0426a

>  <inspiration_score>  (1687) 
None

>  <inchikey>  (1687) 
VOWSREHWPUOYHY-QAPCUYQASA-N

>  <tags>  (1687) 
BulkDock Fragalysis export,openbind_d68ev3c_c2_elabs_scored,openbind_d68ev3c_c2_elabs_scored_4.5plus,openbind_d68ev3c_c2_elabs,openbind_d68ev3c_c2_elabs_scored_5plus,syndirella_product,openbind_d68ev3c_c2_elabs_scored_top80percent,syndirella_placed

>  <smiles>  (1687) 
CCC[C@@H]1CN(c2cccc(C(F)(F)F)c2)CCN1[C@@H](O)c1cnn(C)c1I

>  <subsites>  (1687) 
None

>  <rmsd(smina/fragmenstein)>  (1687) 
1.038

>  <alias>  (1687) 
None

>  <energy_score>  (1687) 
-54.386361

>  <HIPPO Pose ID>  (1687) 
131760

>  <distance_score>  (1687) 
0.376383

>  <HIPPO Compound ID>  (1687) 
157785

>  <gnina_score_min>  (1687) 
5.95

>  <name>  (1687) 
P131760

>  <exports>  (1687) 
['/opt/xchem-fragalysis-2/maxwin/BulkDock/OUTPUTS/openbind_d68ev3c_c2_elabs_1LOTQJ3.sdf', '/opt/xchem-fragalysis-2/maxwin/BulkDock/OUTPUTS/openbind_d68ev3c_c2_elabs_1LSYI5W.sdf']

$$$$
P131762
     RDKit          3D

 28 30  0  0  0  0  0  0  0  0999 V2000
   -9.0587    5.6553    7.2295 C   0  0  0  0  0  0  0  0  0  0  0  0
   -8.7834    4.2014    7.5861 C   0  0  0  0  0  0  0  0  0  0  0  0
  -10.0864    3.4218    7.8015 C   0  0  0  0  0  0  0  0  0  0  0  0
   -9.8984    1.9845    8.3638 C   0  0  2  0  0  0  0  0  0  0  0  0
   -8.8817    1.1969    7.4686 C   0  0  0  0  0  0  0  0  0  0  0  0
   -8.7372   -0.2053    7.9004 N   0  0  0  0  0  0  0  0  0  0  0  0
   -7.6866   -0.9323    7.3285 C   0  0  0  0  0  0  0  0  0  0  0  0
   -7.8628   -2.1598    6.6667 C   0  0  0  0  0  0  0  0  0  0  0  0
   -6.7848   -2.8831    6.1534 C   0  0  0  0  0  0  0  0  0  0  0  0
   -5.4961   -2.3906    6.2943 C   0  0  0  0  0  0  0  0  0  0  0  0
   -5.2784   -1.1793    6.9584 C   0  0  0  0  0  0  0  0  0  0  0  0
   -3.8819   -0.6666    7.1299 C   0  0  0  0  0  0  0  0  0  0  0  0
   -3.1494   -0.8389    5.9953 F   0  0  0  0  0  0  0  0  0  0  0  0
   -3.8095    0.6642    7.4123 F   0  0  0  0  0  0  0  0  0  0  0  0
   -3.1975   -1.3009    8.1177 F   0  0  0  0  0  0  0  0  0  0  0  0
   -6.3724   -0.4703    7.4728 C   0  0  0  0  0  0  0  0  0  0  0  0
  -10.0305   -0.8889    8.0073 C   0  0  0  0  0  0  0  0  0  0  0  0
  -10.9712   -0.1160    8.9382 C   0  0  0  0  0  0  0  0  0  0  0  0
  -11.2255    1.2848    8.4996 N   0  0  0  0  0  0  0  0  0  0  0  0
  -12.0771    1.9669    9.4982 C   0  0  0  0  0  0  0  0  0  0  0  0
  -13.3607    1.2539    9.7533 C   0  0  0  0  0  0  0  0  0  0  0  0
  -14.3897    0.9533    8.8822 C   0  0  0  0  0  0  0  0  0  0  0  0
  -15.3516    0.3328    9.6255 N   0  0  0  0  0  0  0  0  0  0  0  0
  -16.6541   -0.0623    9.1536 C   0  0  0  0  0  0  0  0  0  0  0  0
  -15.0281    0.1944   10.9269 N   0  0  0  0  0  0  0  0  0  0  0  0
  -13.8251    0.7657   10.9913 C   0  0  0  0  0  0  0  0  0  0  0  0
  -13.1528    0.7799   12.1594 O   0  0  0  0  0  0  0  0  0  0  0  0
  -13.9389    1.2947   13.2275 C   0  0  0  0  0  0  0  0  0  0  0  0
  1  2  1  0
  2  3  1  0
  4  3  1  6
  4  5  1  0
  5  6  1  0
  6  7  1  0
  7  8  2  0
  8  9  1  0
  9 10  2  0
 10 11  1  0
 11 12  1  0
 12 13  1  0
 12 14  1  0
 12 15  1  0
 11 16  2  0
  6 17  1  0
 17 18  1  0
 18 19  1  0
 19 20  1  0
 20 21  1  0
 21 22  2  0
 22 23  1  0
 23 24  1  0
 23 25  1  0
 25 26  2  0
 26 27  1  0
 27 28  1  0
 19  4  1  0
 26 21  1  0
 16  7  1  0
M  END
>  <ref_mols>  (1688) 
B0426a

>  <gnina_score>  (1688) 
5.973

>  <smina_score_min>  (1688) 
-5.64

>  <ref_pdb>  (1688) 
B0426a

>  <inspiration_score>  (1688) 
None

>  <inchikey>  (1688) 
QZQVWUFPGKPLLC-GOSISDBHSA-N

>  <tags>  (1688) 
BulkDock Fragalysis export,openbind_d68ev3c_c2_elabs_scored,openbind_d68ev3c_c2_elabs_scored_4.5plus,openbind_d68ev3c_c2_elabs,openbind_d68ev3c_c2_elabs_scored_5plus,syndirella_product,openbind_d68ev3c_c2_elabs_scored_top80percent,syndirella_placed

>  <smiles>  (1688) 
CCC[C@@H]1CN(c2cccc(C(F)(F)F)c2)CCN1Cc1cn(C)nc1OC

>  <subsites>  (1688) 
None

>  <rmsd(smina/fragmenstein)>  (1688) 
0.644

>  <alias>  (1688) 
None

>  <energy_score>  (1688) 
-50.307522

>  <HIPPO Pose ID>  (1688) 
131762

>  <distance_score>  (1688) 
0.443306

>  <HIPPO Compound ID>  (1688) 
157788

>  <gnina_score_min>  (1688) 
6.08

>  <name>  (1688) 
P131762

>  <exports>  (1688) 
['/opt/xchem-fragalysis-2/maxwin/BulkDock/OUTPUTS/openbind_d68ev3c_c2_elabs_1LOTQJ3.sdf', '/opt/xchem-fragalysis-2/maxwin/BulkDock/OUTPUTS/openbind_d68ev3c_c2_elabs_1LSYI5W.sdf']

$$$$
P131764
     RDKit          3D

 28 30  0  0  0  0  0  0  0  0999 V2000
  -18.1328    1.2218   13.3328 C   0  0  0  0  0  0  0  0  0  0  0  0
  -17.3606    0.9283   12.1757 O   0  0  0  0  0  0  0  0  0  0  0  0
  -16.0281    0.8708   12.3973 C   0  0  0  0  0  0  0  0  0  0  0  0
  -15.5129    1.1506   13.5974 N   0  0  0  0  0  0  0  0  0  0  0  0
  -14.1871    1.0245   13.3888 N   0  0  0  0  0  0  0  0  0  0  0  0
  -13.2483    1.3466   14.4332 C   0  0  0  0  0  0  0  0  0  0  0  0
  -13.8695    0.5872   12.1389 C   0  0  0  0  0  0  0  0  0  0  0  0
  -15.0532    0.5412   11.4275 C   0  0  0  0  0  0  0  0  0  0  0  0
  -15.3003    0.2348    9.9948 C   0  0  0  0  0  0  0  0  0  0  0  0
  -14.0922    0.3547    9.1785 N   0  0  0  0  0  0  0  0  0  0  0  0
  -13.5036    1.6973    9.1833 C   0  0  0  0  0  0  0  0  0  0  0  0
  -12.5838    2.0029    7.9824 C   0  0  0  0  0  0  0  0  0  0  0  0
  -11.3448    1.2589    7.7608 N   0  0  0  0  0  0  0  0  0  0  0  0
  -10.2844    1.5038    8.7489 C   0  0  0  0  0  0  0  0  0  0  0  0
   -8.9373    0.9010    8.2708 C   0  0  0  0  0  0  0  0  0  0  0  0
   -9.0265   -0.5300    7.8872 N   0  0  0  0  0  0  0  0  0  0  0  0
   -7.8524   -1.1665    7.4294 C   0  0  0  0  0  0  0  0  0  0  0  0
   -7.8868   -2.4681    6.8920 C   0  0  0  0  0  0  0  0  0  0  0  0
   -6.7482   -3.1080    6.3972 C   0  0  0  0  0  0  0  0  0  0  0  0
   -5.5181   -2.4745    6.4626 C   0  0  0  0  0  0  0  0  0  0  0  0
   -5.4185   -1.2062    7.0393 C   0  0  0  0  0  0  0  0  0  0  0  0
   -4.0688   -0.5575    7.1531 C   0  0  0  0  0  0  0  0  0  0  0  0
   -4.1136    0.7806    7.4047 F   0  0  0  0  0  0  0  0  0  0  0  0
   -3.3042   -1.0990    8.1391 F   0  0  0  0  0  0  0  0  0  0  0  0
   -3.3432   -0.6898    6.0065 F   0  0  0  0  0  0  0  0  0  0  0  0
   -6.5808   -0.5730    7.5205 C   0  0  0  0  0  0  0  0  0  0  0  0
  -10.2524   -0.8740    7.1183 C   0  0  0  0  0  0  0  0  0  0  0  0
  -11.5212   -0.1966    7.6645 C   0  0  0  0  0  0  0  0  0  0  0  0
  1  2  1  0
  2  3  1  0
  3  4  2  0
  4  5  1  0
  5  6  1  0
  5  7  1  0
  7  8  2  0
  8  9  1  0
  9 10  1  0
 10 11  1  0
 11 12  1  0
 12 13  1  0
 13 14  1  0
 14 15  1  0
 15 16  1  0
 16 17  1  0
 17 18  2  0
 18 19  1  0
 19 20  2  0
 20 21  1  0
 21 22  1  0
 22 23  1  0
 22 24  1  0
 22 25  1  0
 21 26  2  0
 16 27  1  0
 27 28  1  0
  8  3  1  0
 28 13  1  0
 26 17  1  0
M  END
>  <ref_mols>  (1689) 
B0426a

>  <gnina_score>  (1689) 
5.562

>  <smina_score_min>  (1689) 
-5.895

>  <ref_pdb>  (1689) 
B0426a

>  <inspiration_score>  (1689) 
None

>  <inchikey>  (1689) 
QVVKTESQWDZSRA-UHFFFAOYSA-N

>  <tags>  (1689) 
BulkDock Fragalysis export,openbind_d68ev3c_c2_elabs_scored,openbind_d68ev3c_c2_elabs_scored_4.5plus,openbind_d68ev3c_c2_elabs,openbind_d68ev3c_c2_elabs_scored_5plus,syndirella_product,openbind_d68ev3c_c2_elabs_scored_top80percent,syndirella_placed

>  <smiles>  (1689) 
COc1nn(C)cc1CNCCN1CCN(c2cccc(C(F)(F)F)c2)CC1

>  <subsites>  (1689) 
None

>  <rmsd(smina/fragmenstein)>  (1689) 
0.758

>  <alias>  (1689) 
None

>  <energy_score>  (1689) 
-51.986228

>  <HIPPO Pose ID>  (1689) 
131764

>  <distance_score>  (1689) 
0.564944

>  <HIPPO Compound ID>  (1689) 
157789

>  <gnina_score_min>  (1689) 
5.677

>  <name>  (1689) 
P131764

>  <exports>  (1689) 
['/opt/xchem-fragalysis-2/maxwin/BulkDock/OUTPUTS/openbind_d68ev3c_c2_elabs_1LOTQJ3.sdf', '/opt/xchem-fragalysis-2/maxwin/BulkDock/OUTPUTS/openbind_d68ev3c_c2_elabs_1LSYI5W.sdf']

$$$$
P131767
     RDKit          3D

 28 30  0  0  0  0  0  0  0  0999 V2000
   -8.7595    5.7088    7.5023 C   0  0  0  0  0  0  0  0  0  0  0  0
   -8.5901    4.2205    7.7744 C   0  0  0  0  0  0  0  0  0  0  0  0
   -9.9470    3.5237    7.9335 C   0  0  0  0  0  0  0  0  0  0  0  0
   -9.8953    2.0450    8.4178 C   0  0  2  0  0  0  0  0  0  0  0  0
   -8.8437    1.2555    7.5640 C   0  0  0  0  0  0  0  0  0  0  0  0
   -8.7528   -0.1627    7.9579 N   0  0  0  0  0  0  0  0  0  0  0  0
   -7.7056   -0.9022    7.3855 C   0  0  0  0  0  0  0  0  0  0  0  0
   -7.8929   -2.1341    6.7329 C   0  0  0  0  0  0  0  0  0  0  0  0
   -6.8244   -2.8651    6.2082 C   0  0  0  0  0  0  0  0  0  0  0  0
   -5.5314   -2.3792    6.3291 C   0  0  0  0  0  0  0  0  0  0  0  0
   -5.2993   -1.1675    6.9868 C   0  0  0  0  0  0  0  0  0  0  0  0
   -3.8970   -0.6614    7.1399 C   0  0  0  0  0  0  0  0  0  0  0  0
   -3.2045   -1.2985    8.1203 F   0  0  0  0  0  0  0  0  0  0  0  0
   -3.8161    0.6691    7.4217 F   0  0  0  0  0  0  0  0  0  0  0  0
   -3.1772   -0.8364    5.9972 F   0  0  0  0  0  0  0  0  0  0  0  0
   -6.3847   -0.4515    7.5138 C   0  0  0  0  0  0  0  0  0  0  0  0
  -10.0630   -0.8177    8.0111 C   0  0  0  0  0  0  0  0  0  0  0  0
  -11.0431   -0.0260    8.8874 C   0  0  0  0  0  0  0  0  0  0  0  0
  -11.2551    1.3717    8.4118 N   0  0  0  0  0  0  0  0  0  0  0  0
  -12.2295    2.0827    9.2590 C   0  0  1  0  0  0  0  0  0  0  0  0
  -12.6739    3.2184    8.5326 O   0  0  0  0  0  0  0  0  0  0  0  0
  -13.4557    1.2739    9.5677 C   0  0  0  0  0  0  0  0  0  0  0  0
  -14.4026    0.8060    8.6688 C   0  0  0  0  0  0  0  0  0  0  0  0
  -15.3867    0.2259    9.4078 N   0  0  0  0  0  0  0  0  0  0  0  0
  -16.6742   -0.1881    8.9108 C   0  0  0  0  0  0  0  0  0  0  0  0
  -15.1240    0.1969   10.7244 N   0  0  0  0  0  0  0  0  0  0  0  0
  -13.9743    0.8719   10.8247 C   0  0  0  0  0  0  0  0  0  0  0  0
  -13.1630    1.2931   12.6919 I   0  0  0  0  0  0  0  0  0  0  0  0
  1  2  1  0
  2  3  1  0
  4  3  1  6
  4  5  1  0
  5  6  1  0
  6  7  1  0
  7  8  2  0
  8  9  1  0
  9 10  2  0
 10 11  1  0
 11 12  1  0
 12 13  1  0
 12 14  1  0
 12 15  1  0
 11 16  2  0
  6 17  1  0
 17 18  1  0
 18 19  1  0
 19 20  1  0
 20 21  1  6
 20 22  1  0
 22 23  2  0
 23 24  1  0
 24 25  1  0
 24 26  1  0
 26 27  2  0
 27 28  1  0
 19  4  1  0
 27 22  1  0
 16  7  1  0
M  END
>  <ref_mols>  (1690) 
B0426a

>  <gnina_score>  (1690) 
6.005

>  <smina_score_min>  (1690) 
-5.785

>  <ref_pdb>  (1690) 
B0426a

>  <inspiration_score>  (1690) 
None

>  <inchikey>  (1690) 
MOOCEAOUOYZGDV-QAPCUYQASA-N

>  <tags>  (1690) 
BulkDock Fragalysis export,openbind_d68ev3c_c2_elabs_scored,openbind_d68ev3c_c2_elabs_scored_4.5plus,openbind_d68ev3c_c2_elabs,openbind_d68ev3c_c2_elabs_scored_5plus,syndirella_product,openbind_d68ev3c_c2_elabs_scored_top80percent,syndirella_placed

>  <smiles>  (1690) 
CCC[C@@H]1CN(c2cccc(C(F)(F)F)c2)CCN1[C@@H](O)c1cn(C)nc1I

>  <subsites>  (1690) 
None

>  <rmsd(smina/fragmenstein)>  (1690) 
0.595

>  <alias>  (1690) 
None

>  <energy_score>  (1690) 
-79.233517

>  <HIPPO Pose ID>  (1690) 
131767

>  <distance_score>  (1690) 
0.406943

>  <HIPPO Compound ID>  (1690) 
157790

>  <gnina_score_min>  (1690) 
6.107

>  <name>  (1690) 
P131767

>  <exports>  (1690) 
['/opt/xchem-fragalysis-2/maxwin/BulkDock/OUTPUTS/openbind_d68ev3c_c2_elabs_1LOTQJ3.sdf', '/opt/xchem-fragalysis-2/maxwin/BulkDock/OUTPUTS/openbind_d68ev3c_c2_elabs_1LSYI5W.sdf']

$$$$
P131770
     RDKit          3D

 28 30  0  0  0  0  0  0  0  0999 V2000
  -13.1023    1.3603   14.3426 C   0  0  0  0  0  0  0  0  0  0  0  0
  -14.0800    1.0066   13.3445 N   0  0  0  0  0  0  0  0  0  0  0  0
  -13.8191    0.5993   12.0712 C   0  0  0  0  0  0  0  0  0  0  0  0
  -15.0391    0.5309   11.4123 C   0  0  0  0  0  0  0  0  0  0  0  0
  -15.3174    0.2487    9.9705 C   0  0  1  0  0  0  0  0  0  0  0  0
  -16.3203    1.0809    9.4289 O   0  0  0  0  0  0  0  0  0  0  0  0
  -14.1565    0.3908    9.1062 N   0  0  0  0  0  0  0  0  0  0  0  0
  -13.4881    1.6976    9.1752 C   0  0  0  0  0  0  0  0  0  0  0  0
  -12.5775    2.0025    7.9705 C   0  0  0  0  0  0  0  0  0  0  0  0
  -11.3329    1.2665    7.7599 N   0  0  0  0  0  0  0  0  0  0  0  0
  -10.3003    1.4442    8.7886 C   0  0  0  0  0  0  0  0  0  0  0  0
   -8.9415    0.8672    8.3114 C   0  0  0  0  0  0  0  0  0  0  0  0
   -9.0354   -0.5397    7.8486 N   0  0  0  0  0  0  0  0  0  0  0  0
   -7.8522   -1.1751    7.4152 C   0  0  0  0  0  0  0  0  0  0  0  0
   -7.8829   -2.4869    6.9047 C   0  0  0  0  0  0  0  0  0  0  0  0
   -6.7425   -3.1290    6.4196 C   0  0  0  0  0  0  0  0  0  0  0  0
   -5.5150   -2.4882    6.4751 C   0  0  0  0  0  0  0  0  0  0  0  0
   -5.4199   -1.2106    7.0326 C   0  0  0  0  0  0  0  0  0  0  0  0
   -4.0721   -0.5562    7.1385 C   0  0  0  0  0  0  0  0  0  0  0  0
   -4.1211    0.7817    7.3898 F   0  0  0  0  0  0  0  0  0  0  0  0
   -3.3009   -1.0938    8.1215 F   0  0  0  0  0  0  0  0  0  0  0  0
   -3.3519   -0.6869    5.9885 F   0  0  0  0  0  0  0  0  0  0  0  0
   -6.5850   -0.5731    7.4999 C   0  0  0  0  0  0  0  0  0  0  0  0
  -10.2099   -0.7997    6.9725 C   0  0  0  0  0  0  0  0  0  0  0  0
  -11.5023   -0.1700    7.5197 C   0  0  0  0  0  0  0  0  0  0  0  0
  -15.9711    0.7533   12.4653 C   0  0  0  0  0  0  0  0  0  0  0  0
  -18.0472    0.6280   12.3445 I   0  0  0  0  0  0  0  0  0  0  0  0
  -15.3874    1.0332   13.6360 N   0  0  0  0  0  0  0  0  0  0  0  0
  1  2  1  0
  2  3  1  0
  3  4  2  0
  4  5  1  0
  5  6  1  6
  5  7  1  0
  7  8  1  0
  8  9  1  0
  9 10  1  0
 10 11  1  0
 11 12  1  0
 12 13  1  0
 13 14  1  0
 14 15  2  0
 15 16  1  0
 16 17  2  0
 17 18  1  0
 18 19  1  0
 19 20  1  0
 19 21  1  0
 19 22  1  0
 18 23  2  0
 13 24  1  0
 24 25  1  0
  4 26  1  0
 26 27  1  0
 26 28  2  0
 28  2  1  0
 25 10  1  0
 23 14  1  0
M  END
>  <ref_mols>  (1691) 
B0426a

>  <gnina_score>  (1691) 
5.592

>  <smina_score_min>  (1691) 
-6.161

>  <ref_pdb>  (1691) 
B0426a

>  <inspiration_score>  (1691) 
None

>  <inchikey>  (1691) 
JEZNCKYNNJEUKJ-QGZVFWFLSA-N

>  <tags>  (1691) 
BulkDock Fragalysis export,openbind_d68ev3c_c2_elabs_scored,openbind_d68ev3c_c2_elabs_scored_4.5plus,openbind_d68ev3c_c2_elabs,openbind_d68ev3c_c2_elabs_scored_5plus,syndirella_product,openbind_d68ev3c_c2_elabs_scored_top80percent,syndirella_placed

>  <smiles>  (1691) 
Cn1cc([C@@H](O)NCCN2CCN(c3cccc(C(F)(F)F)c3)CC2)c(I)n1

>  <subsites>  (1691) 
None

>  <rmsd(smina/fragmenstein)>  (1691) 
0.985

>  <alias>  (1691) 
None

>  <energy_score>  (1691) 
-48.781624

>  <HIPPO Pose ID>  (1691) 
131770

>  <distance_score>  (1691) 
0.567679

>  <HIPPO Compound ID>  (1691) 
157791

>  <gnina_score_min>  (1691) 
5.731

>  <name>  (1691) 
P131770

>  <exports>  (1691) 
['/opt/xchem-fragalysis-2/maxwin/BulkDock/OUTPUTS/openbind_d68ev3c_c2_elabs_1LOTQJ3.sdf', '/opt/xchem-fragalysis-2/maxwin/BulkDock/OUTPUTS/openbind_d68ev3c_c2_elabs_1LSYI5W.sdf']

$$$$
P131771
     RDKit          3D

 28 30  0  0  0  0  0  0  0  0999 V2000
  -13.6565    1.3961   14.4027 C   0  0  0  0  0  0  0  0  0  0  0  0
  -14.5191    1.0230   13.3090 N   0  0  0  0  0  0  0  0  0  0  0  0
  -14.1329    0.8064   12.0166 C   0  0  0  0  0  0  0  0  0  0  0  0
  -15.2866    0.5893   11.2835 C   0  0  0  0  0  0  0  0  0  0  0  0
  -15.5005    0.4440    9.8163 C   0  0  2  0  0  0  0  0  0  0  0  0
  -16.2524   -0.7135    9.5401 O   0  0  0  0  0  0  0  0  0  0  0  0
  -14.2432    0.3591    9.1086 N   0  0  0  0  0  0  0  0  0  0  0  0
  -13.7139    1.6926    8.7793 C   0  0  0  0  0  0  0  0  0  0  0  0
  -12.2196    1.9176    9.0969 C   0  0  0  0  0  0  0  0  0  0  0  0
  -11.2404    1.2967    8.1894 N   0  0  0  0  0  0  0  0  0  0  0  0
  -11.2541   -0.1820    8.3030 C   0  0  0  0  0  0  0  0  0  0  0  0
  -10.1523   -0.8676    7.4685 C   0  0  0  0  0  0  0  0  0  0  0  0
   -8.8042   -0.3454    7.7941 N   0  0  0  0  0  0  0  0  0  0  0  0
   -7.7037   -1.0463    7.2790 C   0  0  0  0  0  0  0  0  0  0  0  0
   -7.8259   -2.2642    6.5856 C   0  0  0  0  0  0  0  0  0  0  0  0
   -6.7182   -2.9568    6.0903 C   0  0  0  0  0  0  0  0  0  0  0  0
   -5.4447   -2.4445    6.2745 C   0  0  0  0  0  0  0  0  0  0  0  0
   -5.2714   -1.2525    6.9795 C   0  0  0  0  0  0  0  0  0  0  0  0
   -3.8928   -0.7036    7.1857 C   0  0  0  0  0  0  0  0  0  0  0  0
   -3.1355   -0.8333    6.0618 F   0  0  0  0  0  0  0  0  0  0  0  0
   -3.2080   -1.3349    8.1742 F   0  0  0  0  0  0  0  0  0  0  0  0
   -3.8647    0.6239    7.4921 F   0  0  0  0  0  0  0  0  0  0  0  0
   -6.3951   -0.5868    7.4926 C   0  0  0  0  0  0  0  0  0  0  0  0
   -8.7575    1.1316    7.7279 C   0  0  0  0  0  0  0  0  0  0  0  0
   -9.8839    1.7598    8.5731 C   0  0  0  0  0  0  0  0  0  0  0  0
  -16.2801    0.5817   12.2848 C   0  0  0  0  0  0  0  0  0  0  0  0
  -17.5839    0.3175   12.1607 O   0  0  0  0  0  0  0  0  0  0  0  0
  -15.8415    0.8676   13.5061 N   0  0  0  0  0  0  0  0  0  0  0  0
  1  2  1  0
  2  3  1  0
  3  4  2  0
  4  5  1  0
  5  6  1  1
  5  7  1  0
  7  8  1  0
  8  9  1  0
  9 10  1  0
 10 11  1  0
 11 12  1  0
 12 13  1  0
 13 14  1  0
 14 15  2  0
 15 16  1  0
 16 17  2  0
 17 18  1  0
 18 19  1  0
 19 20  1  0
 19 21  1  0
 19 22  1  0
 18 23  2  0
 13 24  1  0
 24 25  1  0
  4 26  1  0
 26 27  1  0
 26 28  2  0
 28  2  1  0
 25 10  1  0
 23 14  1  0
M  END
>  <ref_mols>  (1692) 
B0426a

>  <gnina_score>  (1692) 
5.63

>  <smina_score_min>  (1692) 
-6.986

>  <ref_pdb>  (1692) 
B0426a

>  <inspiration_score>  (1692) 
None

>  <inchikey>  (1692) 
HEOGCRHCEQPIJX-INIZCTEOSA-N

>  <tags>  (1692) 
BulkDock Fragalysis export,openbind_d68ev3c_c2_elabs_scored,openbind_d68ev3c_c2_elabs_scored_4.5plus,openbind_d68ev3c_c2_elabs,openbind_d68ev3c_c2_elabs_scored_5plus,syndirella_product,openbind_d68ev3c_c2_elabs_scored_top80percent,syndirella_placed

>  <smiles>  (1692) 
Cn1cc([C@H](O)NCCN2CCN(c3cccc(C(F)(F)F)c3)CC2)c(O)n1

>  <subsites>  (1692) 
None

>  <rmsd(smina/fragmenstein)>  (1692) 
0.686

>  <alias>  (1692) 
None

>  <energy_score>  (1692) 
-72.331222

>  <HIPPO Pose ID>  (1692) 
131771

>  <distance_score>  (1692) 
0.532989

>  <HIPPO Compound ID>  (1692) 
157792

>  <gnina_score_min>  (1692) 
5.428

>  <name>  (1692) 
P131771

>  <exports>  (1692) 
['/opt/xchem-fragalysis-2/maxwin/BulkDock/OUTPUTS/openbind_d68ev3c_c2_elabs_1LOTQJ3.sdf', '/opt/xchem-fragalysis-2/maxwin/BulkDock/OUTPUTS/openbind_d68ev3c_c2_elabs_1LSYI5W.sdf']

$$$$
P131775
     RDKit          3D

 28 30  0  0  0  0  0  0  0  0999 V2000
   -8.7214    5.6884    7.4742 C   0  0  0  0  0  0  0  0  0  0  0  0
   -8.5569    4.1993    7.7444 C   0  0  0  0  0  0  0  0  0  0  0  0
   -9.9162    3.5036    7.8865 C   0  0  0  0  0  0  0  0  0  0  0  0
   -9.8684    2.0231    8.3670 C   0  0  2  0  0  0  0  0  0  0  0  0
   -8.8205    1.2333    7.5131 C   0  0  0  0  0  0  0  0  0  0  0  0
   -8.7473   -0.1889    7.8954 N   0  0  0  0  0  0  0  0  0  0  0  0
   -7.6920   -0.9292    7.3428 C   0  0  0  0  0  0  0  0  0  0  0  0
   -7.8691   -2.1593    6.6848 C   0  0  0  0  0  0  0  0  0  0  0  0
   -6.7924   -2.8881    6.1747 C   0  0  0  0  0  0  0  0  0  0  0  0
   -5.5021   -2.3999    6.3139 C   0  0  0  0  0  0  0  0  0  0  0  0
   -5.2809   -1.1903    6.9784 C   0  0  0  0  0  0  0  0  0  0  0  0
   -3.8832   -0.6775    7.1452 C   0  0  0  0  0  0  0  0  0  0  0  0
   -3.1939   -1.3156    8.1267 F   0  0  0  0  0  0  0  0  0  0  0  0
   -3.1558   -0.8427    6.0062 F   0  0  0  0  0  0  0  0  0  0  0  0
   -3.8114    0.6521    7.4336 F   0  0  0  0  0  0  0  0  0  0  0  0
   -6.3735   -0.4794    7.4948 C   0  0  0  0  0  0  0  0  0  0  0  0
  -10.0653   -0.8307    7.9129 C   0  0  0  0  0  0  0  0  0  0  0  0
  -11.0464   -0.0461    8.7941 C   0  0  0  0  0  0  0  0  0  0  0  0
  -11.2342    1.3656    8.3551 N   0  0  0  0  0  0  0  0  0  0  0  0
  -12.1796    2.0836    9.2276 C   0  0  1  0  0  0  0  0  0  0  0  0
  -12.6798    3.1781    8.4717 O   0  0  0  0  0  0  0  0  0  0  0  0
  -13.3562    1.2723    9.6592 C   0  0  0  0  0  0  0  0  0  0  0  0
  -14.4966    0.9217    8.9555 C   0  0  0  0  0  0  0  0  0  0  0  0
  -15.3123    0.2749    9.8396 N   0  0  0  0  0  0  0  0  0  0  0  0
  -16.6816   -0.0996    9.5978 C   0  0  0  0  0  0  0  0  0  0  0  0
  -14.7655    0.1139   11.0634 N   0  0  0  0  0  0  0  0  0  0  0  0
  -13.5993    0.7299   10.9281 C   0  0  0  0  0  0  0  0  0  0  0  0
  -12.8387    0.7566   12.0184 O   0  0  0  0  0  0  0  0  0  0  0  0
  1  2  1  0
  2  3  1  0
  4  3  1  6
  4  5  1  0
  5  6  1  0
  6  7  1  0
  7  8  2  0
  8  9  1  0
  9 10  2  0
 10 11  1  0
 11 12  1  0
 12 13  1  0
 12 14  1  0
 12 15  1  0
 11 16  2  0
  6 17  1  0
 17 18  1  0
 18 19  1  0
 19 20  1  0
 20 21  1  6
 20 22  1  0
 22 23  2  0
 23 24  1  0
 24 25  1  0
 24 26  1  0
 26 27  2  0
 27 28  1  0
 19  4  1  0
 27 22  1  0
 16  7  1  0
M  END
>  <ref_mols>  (1693) 
B0426a

>  <gnina_score>  (1693) 
5.569

>  <smina_score_min>  (1693) 
-5.96

>  <ref_pdb>  (1693) 
B0426a

>  <inspiration_score>  (1693) 
None

>  <inchikey>  (1693) 
QXUOBHBHOJVNLZ-QAPCUYQASA-N

>  <tags>  (1693) 
BulkDock Fragalysis export,openbind_d68ev3c_c2_elabs_scored,openbind_d68ev3c_c2_elabs_scored_4.5plus,openbind_d68ev3c_c2_elabs,openbind_d68ev3c_c2_elabs_scored_5plus,syndirella_product,openbind_d68ev3c_c2_elabs_scored_top80percent,syndirella_placed

>  <smiles>  (1693) 
CCC[C@@H]1CN(c2cccc(C(F)(F)F)c2)CCN1[C@@H](O)c1cn(C)nc1O

>  <subsites>  (1693) 
None

>  <rmsd(smina/fragmenstein)>  (1693) 
0.979

>  <alias>  (1693) 
None

>  <energy_score>  (1693) 
-78.464144

>  <HIPPO Pose ID>  (1693) 
131775

>  <distance_score>  (1693) 
0.396405

>  <HIPPO Compound ID>  (1693) 
157793

>  <gnina_score_min>  (1693) 
5.56

>  <name>  (1693) 
P131775

>  <exports>  (1693) 
['/opt/xchem-fragalysis-2/maxwin/BulkDock/OUTPUTS/openbind_d68ev3c_c2_elabs_1LOTQJ3.sdf', '/opt/xchem-fragalysis-2/maxwin/BulkDock/OUTPUTS/openbind_d68ev3c_c2_elabs_1LSYI5W.sdf']

$$$$
P131777
     RDKit          3D

 28 31  0  0  0  0  0  0  0  0999 V2000
  -10.5413    5.3708    6.9580 C   0  0  0  0  0  0  0  0  0  0  0  0
  -10.5468    3.8542    7.0835 C   0  0  0  0  0  0  0  0  0  0  0  0
   -9.8942    3.4050    8.3956 C   0  0  0  0  0  0  0  0  0  0  0  0
   -9.8880    1.8717    8.6286 C   0  0  2  0  0  0  0  0  0  0  0  0
   -8.8596    1.2090    7.6507 C   0  0  0  0  0  0  0  0  0  0  0  0
   -8.7934   -0.2521    7.8553 N   0  0  0  0  0  0  0  0  0  0  0  0
   -7.7195   -0.9457    7.2885 C   0  0  0  0  0  0  0  0  0  0  0  0
   -7.8687   -2.1489    6.5752 C   0  0  0  0  0  0  0  0  0  0  0  0
   -6.7756   -2.8560    6.0694 C   0  0  0  0  0  0  0  0  0  0  0  0
   -5.4927   -2.3687    6.2598 C   0  0  0  0  0  0  0  0  0  0  0  0
   -5.2970   -1.1800    6.9686 C   0  0  0  0  0  0  0  0  0  0  0  0
   -3.9070   -0.6639    7.1821 C   0  0  0  0  0  0  0  0  0  0  0  0
   -3.1415   -0.8274    6.0677 F   0  0  0  0  0  0  0  0  0  0  0  0
   -3.8480    0.6660    7.4721 F   0  0  0  0  0  0  0  0  0  0  0  0
   -3.2475   -1.3002    8.1849 F   0  0  0  0  0  0  0  0  0  0  0  0
   -6.4072   -0.4950    7.4864 C   0  0  0  0  0  0  0  0  0  0  0  0
  -10.1279   -0.8687    7.7575 C   0  0  0  0  0  0  0  0  0  0  0  0
  -11.1008   -0.2160    8.7511 C   0  0  0  0  0  0  0  0  0  0  0  0
  -11.2499    1.2535    8.5639 N   0  0  0  0  0  0  0  0  0  0  0  0
  -12.1342    1.8188    9.6044 C   0  0  0  0  0  0  0  0  0  0  0  0
  -13.4614    1.1435    9.6723 C   0  0  0  0  0  0  0  0  0  0  0  0
  -14.1026    0.6127   10.8377 C   0  0  0  0  0  0  0  0  0  0  0  0
  -15.3064    0.0674   10.5890 N   0  0  0  0  0  0  0  0  0  0  0  0
  -15.4000    0.2239    9.2705 N   0  0  0  0  0  0  0  0  0  0  0  0
  -14.3717    0.8773    8.6828 C   0  0  0  0  0  0  0  0  0  0  0  0
  -14.6061    1.0322    7.2356 C   0  0  0  0  0  0  0  0  0  0  0  0
  -15.8002    0.0679    7.0007 C   0  0  0  0  0  0  0  0  0  0  0  0
  -16.4855   -0.1016    8.3694 C   0  0  0  0  0  0  0  0  0  0  0  0
  1  2  1  0
  2  3  1  0
  4  3  1  6
  4  5  1  0
  5  6  1  0
  6  7  1  0
  7  8  2  0
  8  9  1  0
  9 10  2  0
 10 11  1  0
 11 12  1  0
 12 13  1  0
 12 14  1  0
 12 15  1  0
 11 16  2  0
  6 17  1  0
 17 18  1  0
 18 19  1  0
 19 20  1  0
 20 21  1  0
 21 22  1  0
 22 23  2  0
 23 24  1  0
 24 25  1  0
 25 26  1  0
 26 27  1  0
 27 28  1  0
 19  4  1  0
 25 21  2  0
 16  7  1  0
 28 24  1  0
M  END
>  <ref_mols>  (1694) 
B0426a

>  <gnina_score>  (1694) 
5.916

>  <smina_score_min>  (1694) 
-5.45

>  <ref_pdb>  (1694) 
B0426a

>  <inspiration_score>  (1694) 
None

>  <inchikey>  (1694) 
WMTDJZJCGXHHMP-LJQANCHMSA-N

>  <tags>  (1694) 
BulkDock Fragalysis export,openbind_d68ev3c_c2_elabs_scored,openbind_d68ev3c_c2_elabs_scored_4.5plus,openbind_d68ev3c_c2_elabs,openbind_d68ev3c_c2_elabs_scored_5plus,syndirella_product,openbind_d68ev3c_c2_elabs_scored_top80percent,syndirella_placed

>  <smiles>  (1694) 
CCC[C@@H]1CN(c2cccc(C(F)(F)F)c2)CCN1Cc1cnn2c1CCC2

>  <subsites>  (1694) 
None

>  <rmsd(smina/fragmenstein)>  (1694) 
0.606

>  <alias>  (1694) 
None

>  <energy_score>  (1694) 
-49.41503

>  <HIPPO Pose ID>  (1694) 
131777

>  <distance_score>  (1694) 
0.397656

>  <HIPPO Compound ID>  (1694) 
157794

>  <gnina_score_min>  (1694) 
5.934

>  <name>  (1694) 
P131777

>  <exports>  (1694) 
['/opt/xchem-fragalysis-2/maxwin/BulkDock/OUTPUTS/openbind_d68ev3c_c2_elabs_1LOTQJ3.sdf', '/opt/xchem-fragalysis-2/maxwin/BulkDock/OUTPUTS/openbind_d68ev3c_c2_elabs_1LSYI5W.sdf']

$$$$
P131779
     RDKit          3D

 28 30  0  0  0  0  0  0  0  0999 V2000
   -8.7750    5.0086    8.3722 C   0  0  0  0  0  0  0  0  0  0  0  0
  -10.2136    4.5767    8.1296 C   0  0  0  0  0  0  0  0  0  0  0  0
  -10.3019    3.2796    7.3175 C   0  0  0  0  0  0  0  0  0  0  0  0
  -10.0059    1.9929    8.1405 C   0  0  2  0  0  0  0  0  0  0  0  0
   -8.9951    1.1282    7.3107 C   0  0  0  0  0  0  0  0  0  0  0  0
   -8.7286   -0.1708    7.9559 N   0  0  0  0  0  0  0  0  0  0  0  0
   -7.6946   -0.9187    7.3760 C   0  0  0  0  0  0  0  0  0  0  0  0
   -7.8848   -2.1652    6.7576 C   0  0  0  0  0  0  0  0  0  0  0  0
   -6.8153   -2.8953    6.2368 C   0  0  0  0  0  0  0  0  0  0  0  0
   -5.5255   -2.3920    6.3337 C   0  0  0  0  0  0  0  0  0  0  0  0
   -5.2970   -1.1591    6.9551 C   0  0  0  0  0  0  0  0  0  0  0  0
   -3.8970   -0.6432    7.0867 C   0  0  0  0  0  0  0  0  0  0  0  0
   -3.8175    0.6890    7.3598 F   0  0  0  0  0  0  0  0  0  0  0  0
   -3.1918   -0.8230    5.9354 F   0  0  0  0  0  0  0  0  0  0  0  0
   -3.1872   -1.2714    8.0613 F   0  0  0  0  0  0  0  0  0  0  0  0
   -6.3830   -0.4366    7.4667 C   0  0  0  0  0  0  0  0  0  0  0  0
   -9.9721   -0.9011    8.2391 C   0  0  0  0  0  0  0  0  0  0  0  0
  -10.9041   -0.0460    9.1052 C   0  0  0  0  0  0  0  0  0  0  0  0
  -11.2627    1.2493    8.4737 N   0  0  0  0  0  0  0  0  0  0  0  0
  -12.1470    2.0265    9.3589 C   0  0  0  0  0  0  0  0  0  0  0  0
  -13.4143    1.2928    9.6637 C   0  0  0  0  0  0  0  0  0  0  0  0
  -13.8333    0.7845   10.9314 C   0  0  0  0  0  0  0  0  0  0  0  0
  -13.1106    0.8524   12.2278 C   0  0  0  0  0  0  0  0  0  0  0  0
  -15.0295    0.1842   10.8664 N   0  0  0  0  0  0  0  0  0  0  0  0
  -15.3899    0.3284    9.5748 N   0  0  0  0  0  0  0  0  0  0  0  0
  -16.7041   -0.0801    9.1493 C   0  0  0  0  0  0  0  0  0  0  0  0
  -14.4538    0.9663    8.8186 C   0  0  0  0  0  0  0  0  0  0  0  0
  -14.5689    1.3622    6.9595 Br  0  0  0  0  0  0  0  0  0  0  0  0
  1  2  1  0
  2  3  1  0
  4  3  1  6
  4  5  1  0
  5  6  1  0
  6  7  1  0
  7  8  2  0
  8  9  1  0
  9 10  2  0
 10 11  1  0
 11 12  1  0
 12 13  1  0
 12 14  1  0
 12 15  1  0
 11 16  2  0
  6 17  1  0
 17 18  1  0
 18 19  1  0
 19 20  1  0
 20 21  1  0
 21 22  1  0
 22 23  1  0
 22 24  2  0
 24 25  1  0
 25 26  1  0
 25 27  1  0
 27 28  1  0
 19  4  1  0
 27 21  2  0
 16  7  1  0
M  END
>  <ref_mols>  (1695) 
B0426a

>  <gnina_score>  (1695) 
5.977

>  <smina_score_min>  (1695) 
-5.806

>  <ref_pdb>  (1695) 
B0426a

>  <inspiration_score>  (1695) 
None

>  <inchikey>  (1695) 
XBUJSVLSWDBXSW-QGZVFWFLSA-N

>  <tags>  (1695) 
BulkDock Fragalysis export,openbind_d68ev3c_c2_elabs_scored,openbind_d68ev3c_c2_elabs_scored_4.5plus,openbind_d68ev3c_c2_elabs,openbind_d68ev3c_c2_elabs_scored_5plus,syndirella_product,openbind_d68ev3c_c2_elabs_scored_top80percent,syndirella_placed

>  <smiles>  (1695) 
CCC[C@@H]1CN(c2cccc(C(F)(F)F)c2)CCN1Cc1c(C)nn(C)c1Br

>  <subsites>  (1695) 
None

>  <rmsd(smina/fragmenstein)>  (1695) 
0.65

>  <alias>  (1695) 
None

>  <energy_score>  (1695) 
-57.834702

>  <HIPPO Pose ID>  (1695) 
131779

>  <distance_score>  (1695) 
0.488338

>  <HIPPO Compound ID>  (1695) 
157798

>  <gnina_score_min>  (1695) 
6.13

>  <name>  (1695) 
P131779

>  <exports>  (1695) 
['/opt/xchem-fragalysis-2/maxwin/BulkDock/OUTPUTS/openbind_d68ev3c_c2_elabs_1LOTQJ3.sdf', '/opt/xchem-fragalysis-2/maxwin/BulkDock/OUTPUTS/openbind_d68ev3c_c2_elabs_1LSYI5W.sdf']

$$$$
P131781
     RDKit          3D

 28 30  0  0  0  0  0  0  0  0999 V2000
  -15.1584   -0.4988    7.2789 C   0  0  0  0  0  0  0  0  0  0  0  0
  -16.1931    0.0946    8.1683 C   0  0  0  0  0  0  0  0  0  0  0  0
  -17.3334    0.4991    7.5885 N   0  0  0  0  0  0  0  0  0  0  0  0
  -18.0640    0.9990    8.5879 N   0  0  0  0  0  0  0  0  0  0  0  0
  -19.3646    1.5525    8.3023 C   0  0  0  0  0  0  0  0  0  0  0  0
  -17.4555    0.8890    9.7990 C   0  0  0  0  0  0  0  0  0  0  0  0
  -18.2087    1.3980   11.4757 Br  0  0  0  0  0  0  0  0  0  0  0  0
  -16.2053    0.3299    9.5836 C   0  0  0  0  0  0  0  0  0  0  0  0
  -15.1976    0.0275   10.6426 C   0  0  0  0  0  0  0  0  0  0  0  0
  -13.8058    0.2224   10.2631 N   0  0  0  0  0  0  0  0  0  0  0  0
  -13.5091    1.5457    9.7076 C   0  0  0  0  0  0  0  0  0  0  0  0
  -11.9981    1.8684    9.7102 C   0  0  0  0  0  0  0  0  0  0  0  0
  -11.1690    1.3418    8.6027 N   0  0  0  0  0  0  0  0  0  0  0  0
   -9.7709    1.7903    8.8223 C   0  0  0  0  0  0  0  0  0  0  0  0
   -8.7548    1.2190    7.8098 C   0  0  0  0  0  0  0  0  0  0  0  0
   -8.7916   -0.2582    7.8220 N   0  0  0  0  0  0  0  0  0  0  0  0
   -7.7163   -0.9623    7.2752 C   0  0  0  0  0  0  0  0  0  0  0  0
   -7.8688   -2.1625    6.5581 C   0  0  0  0  0  0  0  0  0  0  0  0
   -6.7786   -2.8758    6.0515 C   0  0  0  0  0  0  0  0  0  0  0  0
   -5.4921   -2.3991    6.2427 C   0  0  0  0  0  0  0  0  0  0  0  0
   -5.2898   -1.2196    6.9613 C   0  0  0  0  0  0  0  0  0  0  0  0
   -3.8991   -0.7039    7.1735 C   0  0  0  0  0  0  0  0  0  0  0  0
   -3.8415    0.6220    7.4835 F   0  0  0  0  0  0  0  0  0  0  0  0
   -3.2322   -1.3526    8.1633 F   0  0  0  0  0  0  0  0  0  0  0  0
   -3.1398   -0.8476    6.0524 F   0  0  0  0  0  0  0  0  0  0  0  0
   -6.3971   -0.5347    7.4864 C   0  0  0  0  0  0  0  0  0  0  0  0
  -10.1584   -0.7615    7.5756 C   0  0  0  0  0  0  0  0  0  0  0  0
  -11.1728   -0.1379    8.5579 C   0  0  0  0  0  0  0  0  0  0  0  0
  1  2  1  0
  2  3  2  0
  3  4  1  0
  4  5  1  0
  4  6  1  0
  6  7  1  0
  6  8  2  0
  8  9  1  0
  9 10  1  0
 10 11  1  0
 11 12  1  0
 12 13  1  0
 13 14  1  0
 14 15  1  0
 15 16  1  0
 16 17  1  0
 17 18  2  0
 18 19  1  0
 19 20  2  0
 20 21  1  0
 21 22  1  0
 22 23  1  0
 22 24  1  0
 22 25  1  0
 21 26  2  0
 16 27  1  0
 27 28  1  0
  8  2  1  0
 28 13  1  0
 26 17  1  0
M  END
>  <ref_mols>  (1696) 
B0426a

>  <gnina_score>  (1696) 
5.381

>  <smina_score_min>  (1696) 
-5.742

>  <ref_pdb>  (1696) 
B0426a

>  <inspiration_score>  (1696) 
None

>  <inchikey>  (1696) 
NNHMIHIIIKOJEG-UHFFFAOYSA-N

>  <tags>  (1696) 
BulkDock Fragalysis export,openbind_d68ev3c_c2_elabs_scored,openbind_d68ev3c_c2_elabs_scored_4.5plus,openbind_d68ev3c_c2_elabs,openbind_d68ev3c_c2_elabs_scored_5plus,syndirella_product,openbind_d68ev3c_c2_elabs_scored_top80percent,syndirella_placed

>  <smiles>  (1696) 
Cc1nn(C)c(Br)c1CNCCN1CCN(c2cccc(C(F)(F)F)c2)CC1

>  <subsites>  (1696) 
None

>  <rmsd(smina/fragmenstein)>  (1696) 
1.153

>  <alias>  (1696) 
None

>  <energy_score>  (1696) 
-34.582075

>  <HIPPO Pose ID>  (1696) 
131781

>  <distance_score>  (1696) 
0.574313

>  <HIPPO Compound ID>  (1696) 
157799

>  <gnina_score_min>  (1696) 
5.254

>  <name>  (1696) 
P131781

>  <exports>  (1696) 
['/opt/xchem-fragalysis-2/maxwin/BulkDock/OUTPUTS/openbind_d68ev3c_c2_elabs_1LOTQJ3.sdf', '/opt/xchem-fragalysis-2/maxwin/BulkDock/OUTPUTS/openbind_d68ev3c_c2_elabs_1LSYI5W.sdf']

$$$$
P131782
     RDKit          3D

 28 30  0  0  0  0  0  0  0  0999 V2000
  -18.7876    4.6093    7.9543 C   0  0  0  0  0  0  0  0  0  0  0  0
  -18.1139    3.8265    7.0996 C   0  0  0  0  0  0  0  0  0  0  0  0
  -17.3875    2.6648    7.3839 N   0  0  0  0  0  0  0  0  0  0  0  0
  -17.2280    2.0733    8.6279 C   0  0  0  0  0  0  0  0  0  0  0  0
  -16.4270    0.9605    8.4898 C   0  0  0  0  0  0  0  0  0  0  0  0
  -15.9967   -0.0293    9.5142 C   0  0  0  0  0  0  0  0  0  0  0  0
  -15.4956    0.5850   10.7480 N   0  0  0  0  0  0  0  0  0  0  0  0
  -14.3159    1.4437   10.5759 C   0  0  0  0  0  0  0  0  0  0  0  0
  -13.2710    0.8445    9.6553 C   0  0  0  0  0  0  0  0  0  0  0  0
  -11.9767    1.6480    9.5902 C   0  0  0  0  0  0  0  0  0  0  0  0
  -11.0737    1.1340    8.5440 N   0  0  0  0  0  0  0  0  0  0  0  0
  -10.9896   -0.3450    8.5632 C   0  0  0  0  0  0  0  0  0  0  0  0
   -9.9908   -0.9313    7.5643 C   0  0  0  0  0  0  0  0  0  0  0  0
   -8.6565   -0.3561    7.7768 N   0  0  0  0  0  0  0  0  0  0  0  0
   -7.5729   -1.0329    7.2214 C   0  0  0  0  0  0  0  0  0  0  0  0
   -7.7063   -2.2139    6.4673 C   0  0  0  0  0  0  0  0  0  0  0  0
   -6.6049   -2.9038    5.9615 C   0  0  0  0  0  0  0  0  0  0  0  0
   -5.3302   -2.4173    6.1906 C   0  0  0  0  0  0  0  0  0  0  0  0
   -5.1544   -1.2529    6.9417 C   0  0  0  0  0  0  0  0  0  0  0  0
   -3.7792   -0.7217    7.1832 C   0  0  0  0  0  0  0  0  0  0  0  0
   -3.0019   -0.8750    6.0795 F   0  0  0  0  0  0  0  0  0  0  0  0
   -3.1304   -1.3504    8.1954 F   0  0  0  0  0  0  0  0  0  0  0  0
   -3.7436    0.6090    7.4739 F   0  0  0  0  0  0  0  0  0  0  0  0
   -6.2700   -0.5914    7.4660 C   0  0  0  0  0  0  0  0  0  0  0  0
   -8.6737    1.1236    7.7388 C   0  0  0  0  0  0  0  0  0  0  0  0
   -9.7135    1.6833    8.7389 C   0  0  0  0  0  0  0  0  0  0  0  0
  -16.1529    0.9356    7.1077 C   0  0  0  0  0  0  0  0  0  0  0  0
  -16.7302    1.9318    6.4339 N   0  0  0  0  0  0  0  0  0  0  0  0
  1  2  2  0
  2  3  1  0
  3  4  1  0
  4  5  2  0
  5  6  1  0
  6  7  1  0
  7  8  1  0
  8  9  1  0
  9 10  1  0
 10 11  1  0
 11 12  1  0
 12 13  1  0
 13 14  1  0
 14 15  1  0
 15 16  2  0
 16 17  1  0
 17 18  2  0
 18 19  1  0
 19 20  1  0
 20 21  1  0
 20 22  1  0
 20 23  1  0
 19 24  2  0
 14 25  1  0
 25 26  1  0
  5 27  1  0
 27 28  2  0
 28  3  1  0
 26 11  1  0
 24 15  1  0
M  END
>  <ref_mols>  (1697) 
B0426a

>  <gnina_score>  (1697) 
5.24

>  <smina_score_min>  (1697) 
-5.4

>  <ref_pdb>  (1697) 
B0426a

>  <inspiration_score>  (1697) 
None

>  <inchikey>  (1697) 
UTEFREHUCBBQQS-UHFFFAOYSA-N

>  <tags>  (1697) 
BulkDock Fragalysis export,openbind_d68ev3c_c2_elabs_scored,openbind_d68ev3c_c2_elabs_scored_4.5plus,openbind_d68ev3c_c2_elabs,openbind_d68ev3c_c2_elabs_scored_5plus,syndirella_product,openbind_d68ev3c_c2_elabs_scored_top80percent,syndirella_placed

>  <smiles>  (1697) 
C=Cn1cc(CNCCCN2CCN(c3cccc(C(F)(F)F)c3)CC2)cn1

>  <subsites>  (1697) 
None

>  <rmsd(smina/fragmenstein)>  (1697) 
2.062

>  <alias>  (1697) 
None

>  <energy_score>  (1697) 
-41.822705

>  <HIPPO Pose ID>  (1697) 
131782

>  <distance_score>  (1697) 
0.67426

>  <HIPPO Compound ID>  (1697) 
157800

>  <gnina_score_min>  (1697) 
5.395

>  <name>  (1697) 
P131782

>  <exports>  (1697) 
['/opt/xchem-fragalysis-2/maxwin/BulkDock/OUTPUTS/openbind_d68ev3c_c2_elabs_1LOTQJ3.sdf', '/opt/xchem-fragalysis-2/maxwin/BulkDock/OUTPUTS/openbind_d68ev3c_c2_elabs_1LSYI5W.sdf']

$$$$
P131783
     RDKit          3D

 28 30  0  0  0  0  0  0  0  0999 V2000
  -15.1512    5.3098   11.8668 C   0  0  0  0  0  0  0  0  0  0  0  0
  -15.0189    3.8761   11.9493 N   0  0  0  0  0  0  0  0  0  0  0  0
  -15.8478    2.9338   11.4177 C   0  0  0  0  0  0  0  0  0  0  0  0
  -15.2612    1.7011   11.6691 C   0  0  0  0  0  0  0  0  0  0  0  0
  -15.7461    0.3697   11.2050 C   0  0  0  0  0  0  0  0  0  0  0  0
  -14.9646   -0.0627   10.0627 N   0  0  0  0  0  0  0  0  0  0  0  0
  -15.0929    0.7936    8.8894 C   0  0  0  0  0  0  0  0  0  0  0  0
  -13.8076    0.7326    8.0878 C   0  0  0  0  0  0  0  0  0  0  0  0
  -12.5620    1.1743    8.8779 C   0  0  0  0  0  0  0  0  0  0  0  0
  -11.3061    1.0900    8.0973 N   0  0  0  0  0  0  0  0  0  0  0  0
  -11.2352   -0.2011    7.3762 C   0  0  0  0  0  0  0  0  0  0  0  0
   -9.8937   -0.4658    6.6955 C   0  0  0  0  0  0  0  0  0  0  0  0
   -8.8160   -0.4325    7.6947 N   0  0  0  0  0  0  0  0  0  0  0  0
   -7.6558   -1.0995    7.3206 C   0  0  0  0  0  0  0  0  0  0  0  0
   -7.7338   -2.4215    6.8434 C   0  0  0  0  0  0  0  0  0  0  0  0
   -6.6133   -3.1172    6.4016 C   0  0  0  0  0  0  0  0  0  0  0  0
   -5.3684   -2.5139    6.4749 C   0  0  0  0  0  0  0  0  0  0  0  0
   -5.2409   -1.2237    7.0015 C   0  0  0  0  0  0  0  0  0  0  0  0
   -3.8792   -0.6104    7.1019 C   0  0  0  0  0  0  0  0  0  0  0  0
   -3.1883   -0.7605    5.9384 F   0  0  0  0  0  0  0  0  0  0  0  0
   -3.8825    0.7271    7.3587 F   0  0  0  0  0  0  0  0  0  0  0  0
   -3.1112   -1.1781    8.0691 F   0  0  0  0  0  0  0  0  0  0  0  0
   -6.3845   -0.5295    7.4200 C   0  0  0  0  0  0  0  0  0  0  0  0
   -8.7728    0.8581    8.4057 C   0  0  0  0  0  0  0  0  0  0  0  0
  -10.1523    1.1729    9.0397 C   0  0  0  0  0  0  0  0  0  0  0  0
  -14.1193    2.0415   12.4275 C   0  0  0  0  0  0  0  0  0  0  0  0
  -12.8857    0.8192   13.1284 Br  0  0  0  0  0  0  0  0  0  0  0  0
  -13.9788    3.3542   12.6044 N   0  0  0  0  0  0  0  0  0  0  0  0
  1  2  1  0
  2  3  1  0
  3  4  2  0
  4  5  1  0
  5  6  1  0
  6  7  1  0
  7  8  1  0
  8  9  1  0
  9 10  1  0
 10 11  1  0
 11 12  1  0
 12 13  1  0
 13 14  1  0
 14 15  2  0
 15 16  1  0
 16 17  2  0
 17 18  1  0
 18 19  1  0
 19 20  1  0
 19 21  1  0
 19 22  1  0
 18 23  2  0
 13 24  1  0
 24 25  1  0
  4 26  1  0
 26 27  1  0
 26 28  2  0
 28  2  1  0
 25 10  1  0
 23 14  1  0
M  END
>  <ref_mols>  (1698) 
B0426a

>  <gnina_score>  (1698) 
5.638

>  <smina_score_min>  (1698) 
-6.315

>  <ref_pdb>  (1698) 
B0426a

>  <inspiration_score>  (1698) 
None

>  <inchikey>  (1698) 
MUGQGYOWHRWYKN-UHFFFAOYSA-N

>  <tags>  (1698) 
BulkDock Fragalysis export,openbind_d68ev3c_c2_elabs_scored,openbind_d68ev3c_c2_elabs_scored_4.5plus,openbind_d68ev3c_c2_elabs,openbind_d68ev3c_c2_elabs_scored_5plus,syndirella_product,openbind_d68ev3c_c2_elabs_scored_top80percent,syndirella_placed

>  <smiles>  (1698) 
Cn1cc(CNCCCN2CCN(c3cccc(C(F)(F)F)c3)CC2)c(Br)n1

>  <subsites>  (1698) 
None

>  <rmsd(smina/fragmenstein)>  (1698) 
0.509

>  <alias>  (1698) 
None

>  <energy_score>  (1698) 
-60.009593

>  <HIPPO Pose ID>  (1698) 
131783

>  <distance_score>  (1698) 
0.755799

>  <HIPPO Compound ID>  (1698) 
157801

>  <gnina_score_min>  (1698) 
5.719

>  <name>  (1698) 
P131783

>  <exports>  (1698) 
['/opt/xchem-fragalysis-2/maxwin/BulkDock/OUTPUTS/openbind_d68ev3c_c2_elabs_1LOTQJ3.sdf', '/opt/xchem-fragalysis-2/maxwin/BulkDock/OUTPUTS/openbind_d68ev3c_c2_elabs_1LSYI5W.sdf']

$$$$
P131784
     RDKit          3D

 28 30  0  0  0  0  0  0  0  0999 V2000
  -16.1925    3.1630   11.2641 C   0  0  0  0  0  0  0  0  0  0  0  0
  -15.0459    2.3774   11.7841 C   0  0  0  0  0  0  0  0  0  0  0  0
  -14.7678    1.0236   11.6411 C   0  0  0  0  0  0  0  0  0  0  0  0
  -15.5547   -0.0188   10.9303 C   0  0  0  0  0  0  0  0  0  0  0  0
  -15.6096    0.2035    9.4806 N   0  0  0  0  0  0  0  0  0  0  0  0
  -14.2761    0.1502    8.8663 C   0  0  0  0  0  0  0  0  0  0  0  0
  -13.7080    1.5419    8.5797 C   0  0  0  0  0  0  0  0  0  0  0  0
  -12.2656    1.7718    9.0474 C   0  0  0  0  0  0  0  0  0  0  0  0
  -11.2189    1.2095    8.1755 N   0  0  0  0  0  0  0  0  0  0  0  0
   -9.8936    1.6419    8.6860 C   0  0  0  0  0  0  0  0  0  0  0  0
   -8.7084    1.0660    7.8799 C   0  0  0  0  0  0  0  0  0  0  0  0
   -8.7630   -0.4133    7.8039 N   0  0  0  0  0  0  0  0  0  0  0  0
   -7.6482   -1.0908    7.2888 C   0  0  0  0  0  0  0  0  0  0  0  0
   -7.7509   -2.3171    6.6030 C   0  0  0  0  0  0  0  0  0  0  0  0
   -6.6374   -2.9943    6.1029 C   0  0  0  0  0  0  0  0  0  0  0  0
   -5.3735   -2.4609    6.2797 C   0  0  0  0  0  0  0  0  0  0  0  0
   -5.2179   -1.2630    6.9784 C   0  0  0  0  0  0  0  0  0  0  0  0
   -3.8474   -0.6957    7.1778 C   0  0  0  0  0  0  0  0  0  0  0  0
   -3.1538   -1.3094    8.1708 F   0  0  0  0  0  0  0  0  0  0  0  0
   -3.8332    0.6350    7.4694 F   0  0  0  0  0  0  0  0  0  0  0  0
   -3.0944   -0.8307    6.0527 F   0  0  0  0  0  0  0  0  0  0  0  0
   -6.3478   -0.6085    7.4904 C   0  0  0  0  0  0  0  0  0  0  0  0
  -10.0888   -0.9017    7.3767 C   0  0  0  0  0  0  0  0  0  0  0  0
  -11.2266   -0.2670    8.1885 C   0  0  0  0  0  0  0  0  0  0  0  0
  -13.5609    0.8451   12.3504 C   0  0  0  0  0  0  0  0  0  0  0  0
  -13.1088    1.9726   12.8884 N   0  0  0  0  0  0  0  0  0  0  0  0
  -13.9964    2.9029   12.4982 N   0  0  0  0  0  0  0  0  0  0  0  0
  -13.7500    4.2832   12.8471 C   0  0  0  0  0  0  0  0  0  0  0  0
  1  2  1  0
  2  3  2  0
  3  4  1  0
  4  5  1  0
  5  6  1  0
  6  7  1  0
  7  8  1  0
  8  9  1  0
  9 10  1  0
 10 11  1  0
 11 12  1  0
 12 13  1  0
 13 14  2  0
 14 15  1  0
 15 16  2  0
 16 17  1  0
 17 18  1  0
 18 19  1  0
 18 20  1  0
 18 21  1  0
 17 22  2  0
 12 23  1  0
 23 24  1  0
  3 25  1  0
 25 26  2  0
 26 27  1  0
 27 28  1  0
 27  2  1  0
 24  9  1  0
 22 13  1  0
M  END
>  <ref_mols>  (1699) 
B0426a

>  <gnina_score>  (1699) 
5.744

>  <smina_score_min>  (1699) 
-6.465

>  <ref_pdb>  (1699) 
B0426a

>  <inspiration_score>  (1699) 
None

>  <inchikey>  (1699) 
ZFXSQWKUINBGDT-UHFFFAOYSA-N

>  <tags>  (1699) 
BulkDock Fragalysis export,openbind_d68ev3c_c2_elabs_scored,openbind_d68ev3c_c2_elabs_scored_4.5plus,openbind_d68ev3c_c2_elabs,openbind_d68ev3c_c2_elabs_scored_5plus,syndirella_product,openbind_d68ev3c_c2_elabs_scored_top80percent,syndirella_placed

>  <smiles>  (1699) 
Cc1c(CNCCCN2CCN(c3cccc(C(F)(F)F)c3)CC2)cnn1C

>  <subsites>  (1699) 
None

>  <rmsd(smina/fragmenstein)>  (1699) 
0.941

>  <alias>  (1699) 
None

>  <energy_score>  (1699) 
-42.413022

>  <HIPPO Pose ID>  (1699) 
131784

>  <distance_score>  (1699) 
0.516824

>  <HIPPO Compound ID>  (1699) 
157802

>  <gnina_score_min>  (1699) 
5.532

>  <name>  (1699) 
P131784

>  <exports>  (1699) 
['/opt/xchem-fragalysis-2/maxwin/BulkDock/OUTPUTS/openbind_d68ev3c_c2_elabs_1LOTQJ3.sdf', '/opt/xchem-fragalysis-2/maxwin/BulkDock/OUTPUTS/openbind_d68ev3c_c2_elabs_1LSYI5W.sdf']

$$$$
P131785
     RDKit          3D

 28 30  0  0  0  0  0  0  0  0999 V2000
  -18.5289    1.4246   12.2865 C   0  0  0  0  0  0  0  0  0  0  0  0
  -17.6421    0.1932   12.2410 C   0  0  0  0  0  0  0  0  0  0  0  0
  -16.1950    0.5107   12.4293 C   0  0  0  0  0  0  0  0  0  0  0  0
  -15.7415    0.8634   13.6419 N   0  0  0  0  0  0  0  0  0  0  0  0
  -14.4178    1.0101   13.4525 N   0  0  0  0  0  0  0  0  0  0  0  0
  -13.5645    1.4271   14.5355 C   0  0  0  0  0  0  0  0  0  0  0  0
  -14.0105    0.7095   12.1910 C   0  0  0  0  0  0  0  0  0  0  0  0
  -15.1509    0.4685   11.4524 C   0  0  0  0  0  0  0  0  0  0  0  0
  -15.3111    0.1965    9.9949 C   0  0  0  0  0  0  0  0  0  0  0  0
  -14.0684    0.3216    9.2392 N   0  0  0  0  0  0  0  0  0  0  0  0
  -13.5108    1.6761    9.2146 C   0  0  0  0  0  0  0  0  0  0  0  0
  -12.6006    1.9814    8.0047 C   0  0  0  0  0  0  0  0  0  0  0  0
  -11.3573    1.2470    7.7745 N   0  0  0  0  0  0  0  0  0  0  0  0
  -11.5238   -0.2086    7.6665 C   0  0  0  0  0  0  0  0  0  0  0  0
  -10.2527   -0.8745    7.1127 C   0  0  0  0  0  0  0  0  0  0  0  0
   -9.0293   -0.5324    7.8852 N   0  0  0  0  0  0  0  0  0  0  0  0
   -7.8539   -1.1663    7.4287 C   0  0  0  0  0  0  0  0  0  0  0  0
   -7.8857   -2.4691    6.8937 C   0  0  0  0  0  0  0  0  0  0  0  0
   -6.7463   -3.1079    6.3998 C   0  0  0  0  0  0  0  0  0  0  0  0
   -5.5174   -2.4722    6.4643 C   0  0  0  0  0  0  0  0  0  0  0  0
   -5.4201   -1.2026    7.0389 C   0  0  0  0  0  0  0  0  0  0  0  0
   -4.0711   -0.5524    7.1517 C   0  0  0  0  0  0  0  0  0  0  0  0
   -3.3463   -0.6843    6.0045 F   0  0  0  0  0  0  0  0  0  0  0  0
   -3.3051   -1.0931    8.1370 F   0  0  0  0  0  0  0  0  0  0  0  0
   -4.1169    0.7856    7.4031 F   0  0  0  0  0  0  0  0  0  0  0  0
   -6.5836   -0.5701    7.5185 C   0  0  0  0  0  0  0  0  0  0  0  0
   -8.9452    0.8963    8.2785 C   0  0  0  0  0  0  0  0  0  0  0  0
  -10.2951    1.4907    8.7616 C   0  0  0  0  0  0  0  0  0  0  0  0
  1  2  1  0
  2  3  1  0
  3  4  2  0
  4  5  1  0
  5  6  1  0
  5  7  1  0
  7  8  2  0
  8  9  1  0
  9 10  1  0
 10 11  1  0
 11 12  1  0
 12 13  1  0
 13 14  1  0
 14 15  1  0
 15 16  1  0
 16 17  1  0
 17 18  2  0
 18 19  1  0
 19 20  2  0
 20 21  1  0
 21 22  1  0
 22 23  1  0
 22 24  1  0
 22 25  1  0
 21 26  2  0
 16 27  1  0
 27 28  1  0
  8  3  1  0
 28 13  1  0
 26 17  1  0
M  END
>  <ref_mols>  (1700) 
B0426a

>  <gnina_score>  (1700) 
5.615

>  <smina_score_min>  (1700) 
-6.031

>  <ref_pdb>  (1700) 
B0426a

>  <inspiration_score>  (1700) 
None

>  <inchikey>  (1700) 
LEZJINOGKOYSPZ-UHFFFAOYSA-N

>  <tags>  (1700) 
BulkDock Fragalysis export,openbind_d68ev3c_c2_elabs_scored,openbind_d68ev3c_c2_elabs_scored_4.5plus,openbind_d68ev3c_c2_elabs,openbind_d68ev3c_c2_elabs_scored_5plus,syndirella_product,openbind_d68ev3c_c2_elabs_scored_top80percent,syndirella_placed

>  <smiles>  (1700) 
CCc1nn(C)cc1CNCCN1CCN(c2cccc(C(F)(F)F)c2)CC1

>  <subsites>  (1700) 
None

>  <rmsd(smina/fragmenstein)>  (1700) 
0.648

>  <alias>  (1700) 
None

>  <energy_score>  (1700) 
-48.120334

>  <HIPPO Pose ID>  (1700) 
131785

>  <distance_score>  (1700) 
0.573445

>  <HIPPO Compound ID>  (1700) 
157803

>  <gnina_score_min>  (1700) 
5.486

>  <name>  (1700) 
P131785

>  <exports>  (1700) 
['/opt/xchem-fragalysis-2/maxwin/BulkDock/OUTPUTS/openbind_d68ev3c_c2_elabs_1LOTQJ3.sdf', '/opt/xchem-fragalysis-2/maxwin/BulkDock/OUTPUTS/openbind_d68ev3c_c2_elabs_1LSYI5W.sdf']

$$$$
P131787
     RDKit          3D

 28 30  0  0  0  0  0  0  0  0999 V2000
  -10.7100    3.5441   12.0105 C   0  0  0  0  0  0  0  0  0  0  0  0
  -10.6731    3.3711   10.5019 C   0  0  0  0  0  0  0  0  0  0  0  0
  -10.3514    1.9344   10.0541 C   0  0  0  0  0  0  0  0  0  0  0  0
  -10.3668    1.8025    8.5101 C   0  0  1  0  0  0  0  0  0  0  0  0
   -9.0512    1.1341    7.9522 C   0  0  0  0  0  0  0  0  0  0  0  0
   -9.0678   -0.3521    7.9137 N   0  0  0  0  0  0  0  0  0  0  0  0
   -7.9118   -1.0109    7.4263 C   0  0  0  0  0  0  0  0  0  0  0  0
   -7.9639   -2.2967    6.8450 C   0  0  0  0  0  0  0  0  0  0  0  0
   -6.8321   -2.9648    6.3672 C   0  0  0  0  0  0  0  0  0  0  0  0
   -5.5875   -2.3715    6.4730 C   0  0  0  0  0  0  0  0  0  0  0  0
   -5.4684   -1.1144    7.0711 C   0  0  0  0  0  0  0  0  0  0  0  0
   -4.1008   -0.5083    7.2104 C   0  0  0  0  0  0  0  0  0  0  0  0
   -3.3688   -1.0773    8.2058 F   0  0  0  0  0  0  0  0  0  0  0  0
   -3.3589   -0.6615    6.0755 F   0  0  0  0  0  0  0  0  0  0  0  0
   -4.1071    0.8296    7.4632 F   0  0  0  0  0  0  0  0  0  0  0  0
   -6.6238   -0.4581    7.5496 C   0  0  0  0  0  0  0  0  0  0  0  0
  -10.3568   -0.8875    7.4068 C   0  0  0  0  0  0  0  0  0  0  0  0
  -11.5752   -0.2703    8.1061 C   0  0  0  0  0  0  0  0  0  0  0  0
  -11.5868    1.1846    7.9680 N   0  0  0  0  0  0  0  0  0  0  0  0
  -12.8587    1.8584    8.1921 C   0  0  0  0  0  0  0  0  0  0  0  0
  -13.8119    1.2026    9.1431 C   0  0  0  0  0  0  0  0  0  0  0  0
  -13.8599    1.2773   10.5214 C   0  0  0  0  0  0  0  0  0  0  0  0
  -14.9782    0.6063   10.9123 N   0  0  0  0  0  0  0  0  0  0  0  0
  -15.5082    0.5291   12.2506 C   0  0  0  0  0  0  0  0  0  0  0  0
  -15.6787    0.0898    9.8948 N   0  0  0  0  0  0  0  0  0  0  0  0
  -14.9681    0.4270    8.8090 C   0  0  0  0  0  0  0  0  0  0  0  0
  -15.4587    0.0223    7.4556 C   0  0  0  0  0  0  0  0  0  0  0  0
  -16.3851    1.0608    6.8408 C   0  0  0  0  0  0  0  0  0  0  0  0
  1  2  1  0
  2  3  1  0
  4  3  1  1
  4  5  1  0
  5  6  1  0
  6  7  1  0
  7  8  2  0
  8  9  1  0
  9 10  2  0
 10 11  1  0
 11 12  1  0
 12 13  1  0
 12 14  1  0
 12 15  1  0
 11 16  2  0
  6 17  1  0
 17 18  1  0
 18 19  1  0
 19 20  1  0
 20 21  1  0
 21 22  2  0
 22 23  1  0
 23 24  1  0
 23 25  1  0
 25 26  2  0
 26 27  1  0
 27 28  1  0
 19  4  1  0
 26 21  1  0
 16  7  1  0
M  END
>  <ref_mols>  (1701) 
B0426a

>  <gnina_score>  (1701) 
5.982

>  <smina_score_min>  (1701) 
-5.561

>  <ref_pdb>  (1701) 
B0426a

>  <inspiration_score>  (1701) 
None

>  <inchikey>  (1701) 
LKJCHADXWSZTPC-IBGZPJMESA-N

>  <tags>  (1701) 
BulkDock Fragalysis export,openbind_d68ev3c_c2_elabs_scored,openbind_d68ev3c_c2_elabs_scored_4.5plus,openbind_d68ev3c_c2_elabs,openbind_d68ev3c_c2_elabs_scored_5plus,syndirella_product,openbind_d68ev3c_c2_elabs_scored_top80percent,syndirella_placed

>  <smiles>  (1701) 
CCC[C@H]1CN(c2cccc(C(F)(F)F)c2)CCN1Cc1cn(C)nc1CC

>  <subsites>  (1701) 
None

>  <rmsd(smina/fragmenstein)>  (1701) 
0.522

>  <alias>  (1701) 
None

>  <energy_score>  (1701) 
-48.109861

>  <HIPPO Pose ID>  (1701) 
131787

>  <distance_score>  (1701) 
0.460081

>  <HIPPO Compound ID>  (1701) 
157804

>  <gnina_score_min>  (1701) 
5.882

>  <name>  (1701) 
P131787

>  <exports>  (1701) 
['/opt/xchem-fragalysis-2/maxwin/BulkDock/OUTPUTS/openbind_d68ev3c_c2_elabs_1LOTQJ3.sdf', '/opt/xchem-fragalysis-2/maxwin/BulkDock/OUTPUTS/openbind_d68ev3c_c2_elabs_1LSYI5W.sdf']

$$$$
P131789
     RDKit          3D

 28 30  0  0  0  0  0  0  0  0999 V2000
  -17.6679    0.3003    6.8566 C   0  0  0  0  0  0  0  0  0  0  0  0
  -16.8718   -0.2809    7.7647 C   0  0  0  0  0  0  0  0  0  0  0  0
  -16.7432    0.1700    9.1939 C   0  0  0  0  0  0  0  0  0  0  0  0
  -15.3730    0.4449    9.6131 N   0  0  0  0  0  0  0  0  0  0  0  0
  -14.4185    1.1138    8.9023 C   0  0  0  0  0  0  0  0  0  0  0  0
  -13.3542    1.3073    9.7578 C   0  0  0  0  0  0  0  0  0  0  0  0
  -12.0598    2.0027    9.4929 C   0  0  0  0  0  0  0  0  0  0  0  0
  -11.2447    1.2760    8.4997 N   0  0  0  0  0  0  0  0  0  0  0  0
  -10.9243   -0.0796    9.0262 C   0  0  0  0  0  0  0  0  0  0  0  0
  -10.0045   -0.9012    8.1186 C   0  0  0  0  0  0  0  0  0  0  0  0
   -8.7433   -0.1822    7.9011 N   0  0  0  0  0  0  0  0  0  0  0  0
   -7.6993   -0.9216    7.3312 C   0  0  0  0  0  0  0  0  0  0  0  0
   -7.8798   -2.1604    6.6943 C   0  0  0  0  0  0  0  0  0  0  0  0
   -6.8025   -2.8889    6.1877 C   0  0  0  0  0  0  0  0  0  0  0  0
   -5.5137   -2.3904    6.3140 C   0  0  0  0  0  0  0  0  0  0  0  0
   -5.2942   -1.1651    6.9529 C   0  0  0  0  0  0  0  0  0  0  0  0
   -3.8967   -0.6514    7.1122 C   0  0  0  0  0  0  0  0  0  0  0  0
   -3.2046   -1.2817    8.0979 F   0  0  0  0  0  0  0  0  0  0  0  0
   -3.1710   -0.8294    5.9734 F   0  0  0  0  0  0  0  0  0  0  0  0
   -3.8205    0.6806    7.3883 F   0  0  0  0  0  0  0  0  0  0  0  0
   -6.3876   -0.4468    7.4547 C   0  0  0  0  0  0  0  0  0  0  0  0
   -8.9713    1.1533    7.3222 C   0  0  0  0  0  0  0  0  0  0  0  0
   -9.9672    2.0036    8.1858 C   0  0  1  0  0  0  0  0  0  0  0  0
  -10.2874    3.3322    7.4417 C   0  0  0  0  0  0  0  0  0  0  0  0
   -9.0977    4.1503    6.9227 C   0  0  0  0  0  0  0  0  0  0  0  0
   -8.1350    4.5852    8.0143 C   0  0  0  0  0  0  0  0  0  0  0  0
  -13.7777    0.7104   10.9679 C   0  0  0  0  0  0  0  0  0  0  0  0
  -15.0091    0.1991   10.8919 N   0  0  0  0  0  0  0  0  0  0  0  0
  1  2  2  0
  2  3  1  0
  3  4  1  0
  4  5  1  0
  5  6  2  0
  6  7  1  0
  7  8  1  0
  8  9  1  0
  9 10  1  0
 10 11  1  0
 11 12  1  0
 12 13  2  0
 13 14  1  0
 14 15  2  0
 15 16  1  0
 16 17  1  0
 17 18  1  0
 17 19  1  0
 17 20  1  0
 16 21  2  0
 11 22  1  0
 22 23  1  0
 23 24  1  6
 24 25  1  0
 25 26  1  0
  6 27  1  0
 27 28  2  0
 28  4  1  0
 23  8  1  0
 21 12  1  0
M  END
>  <ref_mols>  (1702) 
B0426a

>  <gnina_score>  (1702) 
5.819

>  <smina_score_min>  (1702) 
-5.152

>  <ref_pdb>  (1702) 
B0426a

>  <inspiration_score>  (1702) 
None

>  <inchikey>  (1702) 
ZBZPTLJQJVZFFP-HXUWFJFHSA-N

>  <tags>  (1702) 
BulkDock Fragalysis export,openbind_d68ev3c_c2_elabs_scored,openbind_d68ev3c_c2_elabs_scored_4.5plus,openbind_d68ev3c_c2_elabs,openbind_d68ev3c_c2_elabs_scored_5plus,syndirella_product,openbind_d68ev3c_c2_elabs_scored_top80percent,syndirella_placed

>  <smiles>  (1702) 
C=CCn1cc(CN2CCN(c3cccc(C(F)(F)F)c3)C[C@H]2CCC)cn1

>  <subsites>  (1702) 
None

>  <rmsd(smina/fragmenstein)>  (1702) 
0.669

>  <alias>  (1702) 
None

>  <energy_score>  (1702) 
-48.436257

>  <HIPPO Pose ID>  (1702) 
131789

>  <distance_score>  (1702) 
0.497815

>  <HIPPO Compound ID>  (1702) 
157806

>  <gnina_score_min>  (1702) 
5.879

>  <name>  (1702) 
P131789

>  <exports>  (1702) 
['/opt/xchem-fragalysis-2/maxwin/BulkDock/OUTPUTS/openbind_d68ev3c_c2_elabs_1LOTQJ3.sdf', '/opt/xchem-fragalysis-2/maxwin/BulkDock/OUTPUTS/openbind_d68ev3c_c2_elabs_1LSYI5W.sdf']

$$$$
P131790
     RDKit          3D

 28 30  0  0  0  0  0  0  0  0999 V2000
  -17.1553    0.5943   12.5474 C   0  0  0  0  0  0  0  0  0  0  0  0
  -16.0382    1.3458   13.0057 O   0  0  0  0  0  0  0  0  0  0  0  0
  -14.8486    0.9587   12.5347 C   0  0  0  0  0  0  0  0  0  0  0  0
  -14.3851    0.4420   11.3327 C   0  0  0  0  0  0  0  0  0  0  0  0
  -15.0870    0.2761   10.0322 C   0  0  0  0  0  0  0  0  0  0  0  0
  -14.1621    0.4941    8.9220 N   0  0  0  0  0  0  0  0  0  0  0  0
  -13.5516    1.8301    8.9321 C   0  0  0  0  0  0  0  0  0  0  0  0
  -12.5770    2.0832    7.7658 C   0  0  0  0  0  0  0  0  0  0  0  0
  -11.3442    1.3095    7.6200 N   0  0  0  0  0  0  0  0  0  0  0  0
  -10.3208    1.5552    8.6475 C   0  0  0  0  0  0  0  0  0  0  0  0
   -8.9650    0.9269    8.2298 C   0  0  0  0  0  0  0  0  0  0  0  0
   -9.0560   -0.5053    7.8471 N   0  0  0  0  0  0  0  0  0  0  0  0
   -7.8762   -1.1510    7.4158 C   0  0  0  0  0  0  0  0  0  0  0  0
   -7.9082   -2.4584    6.8920 C   0  0  0  0  0  0  0  0  0  0  0  0
   -6.7666   -3.1058    6.4143 C   0  0  0  0  0  0  0  0  0  0  0  0
   -5.5359   -2.4736    6.4838 C   0  0  0  0  0  0  0  0  0  0  0  0
   -5.4383   -1.2000    7.0497 C   0  0  0  0  0  0  0  0  0  0  0  0
   -4.0875   -0.5535    7.1652 C   0  0  0  0  0  0  0  0  0  0  0  0
   -3.3616   -0.6842    6.0177 F   0  0  0  0  0  0  0  0  0  0  0  0
   -3.3221   -1.0992    8.1485 F   0  0  0  0  0  0  0  0  0  0  0  0
   -4.1282    0.7842    7.4195 F   0  0  0  0  0  0  0  0  0  0  0  0
   -6.6038   -0.5601    7.5156 C   0  0  0  0  0  0  0  0  0  0  0  0
  -10.2677   -0.8515    7.0570 C   0  0  0  0  0  0  0  0  0  0  0  0
  -11.5434   -0.1441    7.5462 C   0  0  0  0  0  0  0  0  0  0  0  0
  -13.0156    0.1628   11.5874 C   0  0  0  0  0  0  0  0  0  0  0  0
  -12.6229    0.5505   12.7957 N   0  0  0  0  0  0  0  0  0  0  0  0
  -13.7231    1.1156   13.3084 N   0  0  0  0  0  0  0  0  0  0  0  0
  -13.6351    1.8195   14.5598 C   0  0  0  0  0  0  0  0  0  0  0  0
  1  2  1  0
  2  3  1  0
  3  4  2  0
  4  5  1  0
  5  6  1  0
  6  7  1  0
  7  8  1  0
  8  9  1  0
  9 10  1  0
 10 11  1  0
 11 12  1  0
 12 13  1  0
 13 14  2  0
 14 15  1  0
 15 16  2  0
 16 17  1  0
 17 18  1  0
 18 19  1  0
 18 20  1  0
 18 21  1  0
 17 22  2  0
 12 23  1  0
 23 24  1  0
  4 25  1  0
 25 26  2  0
 26 27  1  0
 27 28  1  0
 27  3  1  0
 24  9  1  0
 22 13  1  0
M  END
>  <ref_mols>  (1703) 
B0426a

>  <gnina_score>  (1703) 
5.646

>  <smina_score_min>  (1703) 
-6.129

>  <ref_pdb>  (1703) 
B0426a

>  <inspiration_score>  (1703) 
None

>  <inchikey>  (1703) 
LGYZRSCTTOFDPI-UHFFFAOYSA-N

>  <tags>  (1703) 
BulkDock Fragalysis export,openbind_d68ev3c_c2_elabs_scored,openbind_d68ev3c_c2_elabs_scored_4.5plus,openbind_d68ev3c_c2_elabs,openbind_d68ev3c_c2_elabs_scored_5plus,syndirella_product,openbind_d68ev3c_c2_elabs_scored_top80percent,syndirella_placed

>  <smiles>  (1703) 
COc1c(CNCCN2CCN(c3cccc(C(F)(F)F)c3)CC2)cnn1C

>  <subsites>  (1703) 
None

>  <rmsd(smina/fragmenstein)>  (1703) 
0.763

>  <alias>  (1703) 
None

>  <energy_score>  (1703) 
-38.524488

>  <HIPPO Pose ID>  (1703) 
131790

>  <distance_score>  (1703) 
0.581307

>  <HIPPO Compound ID>  (1703) 
157807

>  <gnina_score_min>  (1703) 
5.664

>  <name>  (1703) 
P131790

>  <exports>  (1703) 
['/opt/xchem-fragalysis-2/maxwin/BulkDock/OUTPUTS/openbind_d68ev3c_c2_elabs_1LOTQJ3.sdf', '/opt/xchem-fragalysis-2/maxwin/BulkDock/OUTPUTS/openbind_d68ev3c_c2_elabs_1LSYI5W.sdf']

$$$$
P131791
     RDKit          3D

 28 30  0  0  0  0  0  0  0  0999 V2000
  -10.4647    5.4008    7.0026 C   0  0  0  0  0  0  0  0  0  0  0  0
  -10.4875    3.8832    7.1123 C   0  0  0  0  0  0  0  0  0  0  0  0
   -9.8537    3.4134    8.4258 C   0  0  0  0  0  0  0  0  0  0  0  0
   -9.8634    1.8780    8.6437 C   0  0  2  0  0  0  0  0  0  0  0  0
   -8.8433    1.2132    7.6584 C   0  0  0  0  0  0  0  0  0  0  0  0
   -8.7830   -0.2481    7.8614 N   0  0  0  0  0  0  0  0  0  0  0  0
   -7.7134   -0.9445    7.2903 C   0  0  0  0  0  0  0  0  0  0  0  0
   -7.8686   -2.1438    6.5722 C   0  0  0  0  0  0  0  0  0  0  0  0
   -6.7787   -2.8527    6.0620 C   0  0  0  0  0  0  0  0  0  0  0  0
   -5.4936   -2.3706    6.2519 C   0  0  0  0  0  0  0  0  0  0  0  0
   -5.2925   -1.1856    6.9652 C   0  0  0  0  0  0  0  0  0  0  0  0
   -3.9012   -0.6730    7.1772 C   0  0  0  0  0  0  0  0  0  0  0  0
   -3.2407   -1.3131    8.1769 F   0  0  0  0  0  0  0  0  0  0  0  0
   -3.8393    0.6561    7.4712 F   0  0  0  0  0  0  0  0  0  0  0  0
   -3.1383   -0.8340    6.0608 F   0  0  0  0  0  0  0  0  0  0  0  0
   -6.3993   -0.4997    7.4884 C   0  0  0  0  0  0  0  0  0  0  0  0
  -10.1214   -0.8587    7.7629 C   0  0  0  0  0  0  0  0  0  0  0  0
  -11.0842   -0.2027    8.7640 C   0  0  0  0  0  0  0  0  0  0  0  0
  -11.2295    1.2695    8.5748 N   0  0  0  0  0  0  0  0  0  0  0  0
  -12.1157    1.8346    9.6097 C   0  0  0  0  0  0  0  0  0  0  0  0
  -13.4539    1.1698    9.6499 C   0  0  0  0  0  0  0  0  0  0  0  0
  -14.0723    0.6150   10.7933 C   0  0  0  0  0  0  0  0  0  0  0  0
  -15.2719    0.0957   10.5340 N   0  0  0  0  0  0  0  0  0  0  0  0
  -15.4148    0.2788    9.2036 N   0  0  0  0  0  0  0  0  0  0  0  0
  -16.6268   -0.1599    8.5530 C   0  0  0  0  0  0  0  0  0  0  0  0
  -14.3659    0.9504    8.6271 C   0  0  0  0  0  0  0  0  0  0  0  0
  -14.3065    1.3079    7.1851 C   0  0  0  0  0  0  0  0  0  0  0  0
  -13.8895   -0.1012    6.1926 Cl  0  0  0  0  0  0  0  0  0  0  0  0
  1  2  1  0
  2  3  1  0
  4  3  1  6
  4  5  1  0
  5  6  1  0
  6  7  1  0
  7  8  2  0
  8  9  1  0
  9 10  2  0
 10 11  1  0
 11 12  1  0
 12 13  1  0
 12 14  1  0
 12 15  1  0
 11 16  2  0
  6 17  1  0
 17 18  1  0
 18 19  1  0
 19 20  1  0
 20 21  1  0
 21 22  1  0
 22 23  2  0
 23 24  1  0
 24 25  1  0
 24 26  1  0
 26 27  1  0
 27 28  1  0
 19  4  1  0
 26 21  2  0
 16  7  1  0
M  END
>  <ref_mols>  (1704) 
B0426a

>  <gnina_score>  (1704) 
5.878

>  <smina_score_min>  (1704) 
-5.153

>  <ref_pdb>  (1704) 
B0426a

>  <inspiration_score>  (1704) 
None

>  <inchikey>  (1704) 
SLHRSKRPQIJVPO-GOSISDBHSA-N

>  <tags>  (1704) 
BulkDock Fragalysis export,openbind_d68ev3c_c2_elabs_scored,openbind_d68ev3c_c2_elabs_scored_4.5plus,openbind_d68ev3c_c2_elabs,openbind_d68ev3c_c2_elabs_scored_5plus,syndirella_product,openbind_d68ev3c_c2_elabs_scored_top80percent,syndirella_placed

>  <smiles>  (1704) 
CCC[C@@H]1CN(c2cccc(C(F)(F)F)c2)CCN1Cc1cnn(C)c1CCl

>  <subsites>  (1704) 
None

>  <rmsd(smina/fragmenstein)>  (1704) 
0.618

>  <alias>  (1704) 
None

>  <energy_score>  (1704) 
-55.662725

>  <HIPPO Pose ID>  (1704) 
131791

>  <distance_score>  (1704) 
0.411107

>  <HIPPO Compound ID>  (1704) 
157809

>  <gnina_score_min>  (1704) 
5.894

>  <name>  (1704) 
P131791

>  <exports>  (1704) 
['/opt/xchem-fragalysis-2/maxwin/BulkDock/OUTPUTS/openbind_d68ev3c_c2_elabs_1LOTQJ3.sdf', '/opt/xchem-fragalysis-2/maxwin/BulkDock/OUTPUTS/openbind_d68ev3c_c2_elabs_1LSYI5W.sdf']

$$$$
P131793
     RDKit          3D

 28 30  0  0  0  0  0  0  0  0999 V2000
  -13.5193    1.8659   14.5462 C   0  0  0  0  0  0  0  0  0  0  0  0
  -13.6573    1.1908   13.2870 N   0  0  0  0  0  0  0  0  0  0  0  0
  -12.6302    0.4939   12.7780 N   0  0  0  0  0  0  0  0  0  0  0  0
  -13.0705    0.1418   11.5698 C   0  0  0  0  0  0  0  0  0  0  0  0
  -14.3934    0.5827   11.3036 C   0  0  0  0  0  0  0  0  0  0  0  0
  -15.1755    0.4977   10.0454 C   0  0  2  0  0  0  0  0  0  0  0  0
  -15.9059   -0.7013    9.9813 O   0  0  0  0  0  0  0  0  0  0  0  0
  -14.3113    0.5894    8.8825 N   0  0  0  0  0  0  0  0  0  0  0  0
  -13.5438    1.8461    8.8758 C   0  0  0  0  0  0  0  0  0  0  0  0
  -12.5881    2.0077    7.6827 C   0  0  0  0  0  0  0  0  0  0  0  0
  -11.3539    1.2335    7.5956 N   0  0  0  0  0  0  0  0  0  0  0  0
  -10.3434    1.4845    8.6301 C   0  0  0  0  0  0  0  0  0  0  0  0
   -8.9759    0.8770    8.2169 C   0  0  0  0  0  0  0  0  0  0  0  0
   -9.0527   -0.5526    7.8185 N   0  0  0  0  0  0  0  0  0  0  0  0
   -7.8609   -1.1856    7.3996 C   0  0  0  0  0  0  0  0  0  0  0  0
   -7.8775   -2.4944    6.8790 C   0  0  0  0  0  0  0  0  0  0  0  0
   -6.7283   -3.1294    6.4052 C   0  0  0  0  0  0  0  0  0  0  0  0
   -5.5049   -2.4843    6.4798 C   0  0  0  0  0  0  0  0  0  0  0  0
   -5.4226   -1.2098    7.0465 C   0  0  0  0  0  0  0  0  0  0  0  0
   -4.0786   -0.5509    7.1662 C   0  0  0  0  0  0  0  0  0  0  0  0
   -3.3115   -1.0907    8.1515 F   0  0  0  0  0  0  0  0  0  0  0  0
   -4.1319    0.7860    7.4214 F   0  0  0  0  0  0  0  0  0  0  0  0
   -3.3490   -0.6753    6.0208 F   0  0  0  0  0  0  0  0  0  0  0  0
   -6.5960   -0.5809    7.5064 C   0  0  0  0  0  0  0  0  0  0  0  0
  -10.2362   -0.8849    6.9769 C   0  0  0  0  0  0  0  0  0  0  0  0
  -11.5292   -0.2147    7.4677 C   0  0  0  0  0  0  0  0  0  0  0  0
  -14.7375    1.2357   12.4638 C   0  0  0  0  0  0  0  0  0  0  0  0
  -15.8933    1.8685   12.7073 F   0  0  0  0  0  0  0  0  0  0  0  0
  1  2  1  0
  2  3  1  0
  3  4  2  0
  4  5  1  0
  5  6  1  0
  6  7  1  1
  6  8  1  0
  8  9  1  0
  9 10  1  0
 10 11  1  0
 11 12  1  0
 12 13  1  0
 13 14  1  0
 14 15  1  0
 15 16  2  0
 16 17  1  0
 17 18  2  0
 18 19  1  0
 19 20  1  0
 20 21  1  0
 20 22  1  0
 20 23  1  0
 19 24  2  0
 14 25  1  0
 25 26  1  0
  5 27  2  0
 27 28  1  0
 27  2  1  0
 26 11  1  0
 24 15  1  0
M  END
>  <ref_mols>  (1705) 
B0426a

>  <gnina_score>  (1705) 
5.688

>  <smina_score_min>  (1705) 
-6.42

>  <ref_pdb>  (1705) 
B0426a

>  <inspiration_score>  (1705) 
None

>  <inchikey>  (1705) 
LUNXWRSTIUFARD-KRWDZBQOSA-N

>  <tags>  (1705) 
BulkDock Fragalysis export,openbind_d68ev3c_c2_elabs_scored,openbind_d68ev3c_c2_elabs_scored_4.5plus,openbind_d68ev3c_c2_elabs,openbind_d68ev3c_c2_elabs_scored_5plus,syndirella_product,openbind_d68ev3c_c2_elabs_scored_top80percent,syndirella_placed

>  <smiles>  (1705) 
Cn1ncc([C@H](O)NCCN2CCN(c3cccc(C(F)(F)F)c3)CC2)c1F

>  <subsites>  (1705) 
None

>  <rmsd(smina/fragmenstein)>  (1705) 
0.725

>  <alias>  (1705) 
None

>  <energy_score>  (1705) 
-41.781056

>  <HIPPO Pose ID>  (1705) 
131793

>  <distance_score>  (1705) 
0.617519

>  <HIPPO Compound ID>  (1705) 
157810

>  <gnina_score_min>  (1705) 
5.584

>  <name>  (1705) 
P131793

>  <exports>  (1705) 
['/opt/xchem-fragalysis-2/maxwin/BulkDock/OUTPUTS/openbind_d68ev3c_c2_elabs_1LOTQJ3.sdf', '/opt/xchem-fragalysis-2/maxwin/BulkDock/OUTPUTS/openbind_d68ev3c_c2_elabs_1LSYI5W.sdf']

$$$$
P131797
     RDKit          3D

 28 30  0  0  0  0  0  0  0  0999 V2000
  -10.1291    5.4877    6.9624 C   0  0  0  0  0  0  0  0  0  0  0  0
  -10.1056    3.9667    7.0006 C   0  0  0  0  0  0  0  0  0  0  0  0
   -9.7278    3.4529    8.3944 C   0  0  0  0  0  0  0  0  0  0  0  0
   -9.8630    1.9180    8.5903 C   0  0  2  0  0  0  0  0  0  0  0  0
   -8.8177    1.2182    7.6583 C   0  0  0  0  0  0  0  0  0  0  0  0
   -8.8093   -0.2433    7.8619 N   0  0  0  0  0  0  0  0  0  0  0  0
   -7.7343   -0.9577    7.3139 C   0  0  0  0  0  0  0  0  0  0  0  0
   -7.8876   -2.1682    6.6145 C   0  0  0  0  0  0  0  0  0  0  0  0
   -6.7967   -2.8794    6.1074 C   0  0  0  0  0  0  0  0  0  0  0  0
   -5.5115   -2.3915    6.2834 C   0  0  0  0  0  0  0  0  0  0  0  0
   -5.3095   -1.2015    6.9863 C   0  0  0  0  0  0  0  0  0  0  0  0
   -3.9177   -0.6813    7.1854 C   0  0  0  0  0  0  0  0  0  0  0  0
   -3.8625    0.6467    7.4861 F   0  0  0  0  0  0  0  0  0  0  0  0
   -3.2440   -1.3219    8.1758 F   0  0  0  0  0  0  0  0  0  0  0  0
   -3.1644   -0.8309    6.0609 F   0  0  0  0  0  0  0  0  0  0  0  0
   -6.4171   -0.5152    7.5094 C   0  0  0  0  0  0  0  0  0  0  0  0
  -10.1563   -0.8101    7.6937 C   0  0  0  0  0  0  0  0  0  0  0  0
  -11.1613   -0.1159    8.6295 C   0  0  0  0  0  0  0  0  0  0  0  0
  -11.2588    1.3623    8.4376 N   0  0  0  0  0  0  0  0  0  0  0  0
  -12.1735    1.9718    9.4189 C   0  0  1  0  0  0  0  0  0  0  0  0
  -12.5631    3.2455    8.9352 O   0  0  0  0  0  0  0  0  0  0  0  0
  -13.4182    1.1884    9.6692 C   0  0  0  0  0  0  0  0  0  0  0  0
  -13.7988    0.5477   10.8764 C   0  0  0  0  0  0  0  0  0  0  0  0
  -15.0030   -0.0332   10.8098 N   0  0  0  0  0  0  0  0  0  0  0  0
  -15.4066    0.2493    9.5524 N   0  0  0  0  0  0  0  0  0  0  0  0
  -16.7294   -0.0960    9.1054 C   0  0  0  0  0  0  0  0  0  0  0  0
  -14.4930    0.9622    8.8421 C   0  0  0  0  0  0  0  0  0  0  0  0
  -14.6347    1.4026    7.5841 F   0  0  0  0  0  0  0  0  0  0  0  0
  1  2  1  0
  2  3  1  0
  4  3  1  6
  4  5  1  0
  5  6  1  0
  6  7  1  0
  7  8  2  0
  8  9  1  0
  9 10  2  0
 10 11  1  0
 11 12  1  0
 12 13  1  0
 12 14  1  0
 12 15  1  0
 11 16  2  0
  6 17  1  0
 17 18  1  0
 18 19  1  0
 19 20  1  0
 20 21  1  6
 20 22  1  0
 22 23  1  0
 23 24  2  0
 24 25  1  0
 25 26  1  0
 25 27  1  0
 27 28  1  0
 19  4  1  0
 27 22  2  0
 16  7  1  0
M  END
>  <ref_mols>  (1706) 
B0426a

>  <gnina_score>  (1706) 
5.732

>  <smina_score_min>  (1706) 
-5.798

>  <ref_pdb>  (1706) 
B0426a

>  <inspiration_score>  (1706) 
None

>  <inchikey>  (1706) 
OSLKINKPZFFBRS-QAPCUYQASA-N

>  <tags>  (1706) 
BulkDock Fragalysis export,openbind_d68ev3c_c2_elabs_scored,openbind_d68ev3c_c2_elabs_scored_4.5plus,openbind_d68ev3c_c2_elabs,openbind_d68ev3c_c2_elabs_scored_5plus,syndirella_product,openbind_d68ev3c_c2_elabs_scored_top80percent,syndirella_placed

>  <smiles>  (1706) 
CCC[C@@H]1CN(c2cccc(C(F)(F)F)c2)CCN1[C@@H](O)c1cnn(C)c1F

>  <subsites>  (1706) 
None

>  <rmsd(smina/fragmenstein)>  (1706) 
1.093

>  <alias>  (1706) 
None

>  <energy_score>  (1706) 
-70.307876

>  <HIPPO Pose ID>  (1706) 
131797

>  <distance_score>  (1706) 
0.334824

>  <HIPPO Compound ID>  (1706) 
157811

>  <gnina_score_min>  (1706) 
5.786

>  <name>  (1706) 
P131797

>  <exports>  (1706) 
['/opt/xchem-fragalysis-2/maxwin/BulkDock/OUTPUTS/openbind_d68ev3c_c2_elabs_1LOTQJ3.sdf', '/opt/xchem-fragalysis-2/maxwin/BulkDock/OUTPUTS/openbind_d68ev3c_c2_elabs_1LSYI5W.sdf']

$$$$
P131800
     RDKit          3D

 28 30  0  0  0  0  0  0  0  0999 V2000
  -10.6172    3.5590   11.9597 C   0  0  0  0  0  0  0  0  0  0  0  0
  -10.5968    3.3824   10.4507 C   0  0  0  0  0  0  0  0  0  0  0  0
  -10.2258    1.9608    9.9915 C   0  0  0  0  0  0  0  0  0  0  0  0
  -10.2931    1.8182    8.4523 C   0  0  1  0  0  0  0  0  0  0  0  0
   -9.0051    1.1352    7.8613 C   0  0  0  0  0  0  0  0  0  0  0  0
   -9.0284   -0.3499    7.8749 N   0  0  0  0  0  0  0  0  0  0  0  0
   -7.8790   -1.0186    7.3882 C   0  0  0  0  0  0  0  0  0  0  0  0
   -7.9414   -2.2900    6.7791 C   0  0  0  0  0  0  0  0  0  0  0  0
   -6.8104   -2.9626    6.3058 C   0  0  0  0  0  0  0  0  0  0  0  0
   -5.5603   -2.3853    6.4378 C   0  0  0  0  0  0  0  0  0  0  0  0
   -5.4342   -1.1412    7.0603 C   0  0  0  0  0  0  0  0  0  0  0  0
   -4.0654   -0.5451    7.2214 C   0  0  0  0  0  0  0  0  0  0  0  0
   -4.0675    0.7919    7.4805 F   0  0  0  0  0  0  0  0  0  0  0  0
   -3.3488   -1.1233    8.2218 F   0  0  0  0  0  0  0  0  0  0  0  0
   -3.3123   -0.6961    6.0940 F   0  0  0  0  0  0  0  0  0  0  0  0
   -6.5866   -0.4847    7.5409 C   0  0  0  0  0  0  0  0  0  0  0  0
  -10.3276   -0.8966    7.4050 C   0  0  0  0  0  0  0  0  0  0  0  0
  -11.5337   -0.2556    8.1073 C   0  0  0  0  0  0  0  0  0  0  0  0
  -11.5297    1.1988    7.9554 N   0  0  0  0  0  0  0  0  0  0  0  0
  -12.7852    1.8885    8.1911 C   0  0  0  0  0  0  0  0  0  0  0  0
  -13.7150    1.2872    9.1920 C   0  0  0  0  0  0  0  0  0  0  0  0
  -13.6267    1.2177   10.6000 C   0  0  0  0  0  0  0  0  0  0  0  0
  -14.7263    0.7235   11.1713 N   0  0  0  0  0  0  0  0  0  0  0  0
  -15.5474    0.5007   10.1335 N   0  0  0  0  0  0  0  0  0  0  0  0
  -16.9607    0.2158   10.3534 C   0  0  0  0  0  0  0  0  0  0  0  0
  -17.2766   -0.2129   11.7891 C   0  0  0  0  0  0  0  0  0  0  0  0
  -17.8274    1.4214    9.9780 C   0  0  0  0  0  0  0  0  0  0  0  0
  -14.9547    0.7345    8.9258 C   0  0  0  0  0  0  0  0  0  0  0  0
  1  2  1  0
  2  3  1  0
  4  3  1  1
  4  5  1  0
  5  6  1  0
  6  7  1  0
  7  8  2  0
  8  9  1  0
  9 10  2  0
 10 11  1  0
 11 12  1  0
 12 13  1  0
 12 14  1  0
 12 15  1  0
 11 16  2  0
  6 17  1  0
 17 18  1  0
 18 19  1  0
 19 20  1  0
 20 21  1  0
 21 22  1  0
 22 23  2  0
 23 24  1  0
 24 25  1  0
 25 26  1  0
 25 27  1  0
 24 28  1  0
 19  4  1  0
 28 21  2  0
 16  7  1  0
M  END
>  <ref_mols>  (1707) 
B0426a

>  <gnina_score>  (1707) 
5.911

>  <smina_score_min>  (1707) 
-5.623

>  <ref_pdb>  (1707) 
B0426a

>  <inspiration_score>  (1707) 
None

>  <inchikey>  (1707) 
XIVHQNQPUALFDQ-FQEVSTJZSA-N

>  <tags>  (1707) 
BulkDock Fragalysis export,openbind_d68ev3c_c2_elabs_scored,openbind_d68ev3c_c2_elabs_scored_4.5plus,openbind_d68ev3c_c2_elabs,openbind_d68ev3c_c2_elabs_scored_5plus,syndirella_product,openbind_d68ev3c_c2_elabs_scored_top80percent,syndirella_placed

>  <smiles>  (1707) 
CCC[C@H]1CN(c2cccc(C(F)(F)F)c2)CCN1Cc1cnn(C(C)C)c1

>  <subsites>  (1707) 
None

>  <rmsd(smina/fragmenstein)>  (1707) 
1.232

>  <alias>  (1707) 
None

>  <energy_score>  (1707) 
-31.652568

>  <HIPPO Pose ID>  (1707) 
131800

>  <distance_score>  (1707) 
0.491647

>  <HIPPO Compound ID>  (1707) 
157813

>  <gnina_score_min>  (1707) 
5.773

>  <name>  (1707) 
P131800

>  <exports>  (1707) 
['/opt/xchem-fragalysis-2/maxwin/BulkDock/OUTPUTS/openbind_d68ev3c_c2_elabs_1LOTQJ3.sdf', '/opt/xchem-fragalysis-2/maxwin/BulkDock/OUTPUTS/openbind_d68ev3c_c2_elabs_1LSYI5W.sdf']

$$$$
P131801
     RDKit          3D

 28 30  0  0  0  0  0  0  0  0999 V2000
  -14.2284    3.3154   13.3865 C   0  0  0  0  0  0  0  0  0  0  0  0
  -14.1746    1.8946   13.9559 C   0  0  0  0  0  0  0  0  0  0  0  0
  -12.7400    1.4429   14.2069 C   0  0  0  0  0  0  0  0  0  0  0  0
  -14.8827    1.0085   13.0360 N   0  0  0  0  0  0  0  0  0  0  0  0
  -14.3848    0.5014   11.8731 C   0  0  0  0  0  0  0  0  0  0  0  0
  -15.4640    0.3731   11.0258 C   0  0  0  0  0  0  0  0  0  0  0  0
  -15.4964    0.1626    9.5575 C   0  0  0  0  0  0  0  0  0  0  0  0
  -14.1821    0.3010    8.9324 N   0  0  0  0  0  0  0  0  0  0  0  0
  -13.5696    1.6276    9.0733 C   0  0  0  0  0  0  0  0  0  0  0  0
  -12.5783    2.0055    7.9504 C   0  0  0  0  0  0  0  0  0  0  0  0
  -11.3380    1.2593    7.7422 N   0  0  0  0  0  0  0  0  0  0  0  0
  -10.3010    1.4739    8.7626 C   0  0  0  0  0  0  0  0  0  0  0  0
   -8.9448    0.8788    8.2998 C   0  0  0  0  0  0  0  0  0  0  0  0
   -9.0301   -0.5434    7.8852 N   0  0  0  0  0  0  0  0  0  0  0  0
   -7.8508   -1.1755    7.4348 C   0  0  0  0  0  0  0  0  0  0  0  0
   -7.8807   -2.4796    6.9031 C   0  0  0  0  0  0  0  0  0  0  0  0
   -6.7408   -3.1158    6.4078 C   0  0  0  0  0  0  0  0  0  0  0  0
   -5.5134   -2.4765    6.4699 C   0  0  0  0  0  0  0  0  0  0  0  0
   -5.4181   -1.2064    7.0438 C   0  0  0  0  0  0  0  0  0  0  0  0
   -4.0704   -0.5532    7.1544 C   0  0  0  0  0  0  0  0  0  0  0  0
   -3.3473   -0.6826    6.0058 F   0  0  0  0  0  0  0  0  0  0  0  0
   -4.1187    0.7845    7.4072 F   0  0  0  0  0  0  0  0  0  0  0  0
   -3.3013   -1.0928    8.1380 F   0  0  0  0  0  0  0  0  0  0  0  0
   -6.5824   -0.5759    7.5242 C   0  0  0  0  0  0  0  0  0  0  0  0
  -10.2368   -0.8664    7.0791 C   0  0  0  0  0  0  0  0  0  0  0  0
  -11.5162   -0.1921    7.6019 C   0  0  0  0  0  0  0  0  0  0  0  0
  -16.5773    0.5480   11.8835 C   0  0  0  0  0  0  0  0  0  0  0  0
  -16.2242    0.9060   13.1214 N   0  0  0  0  0  0  0  0  0  0  0  0
  1  2  1  0
  2  3  1  0
  2  4  1  0
  4  5  1  0
  5  6  2  0
  6  7  1  0
  7  8  1  0
  8  9  1  0
  9 10  1  0
 10 11  1  0
 11 12  1  0
 12 13  1  0
 13 14  1  0
 14 15  1  0
 15 16  2  0
 16 17  1  0
 17 18  2  0
 18 19  1  0
 19 20  1  0
 20 21  1  0
 20 22  1  0
 20 23  1  0
 19 24  2  0
 14 25  1  0
 25 26  1  0
  6 27  1  0
 27 28  2  0
 28  4  1  0
 26 11  1  0
 24 15  1  0
M  END
>  <ref_mols>  (1708) 
B0426a

>  <gnina_score>  (1708) 
5.617

>  <smina_score_min>  (1708) 
-6.125

>  <ref_pdb>  (1708) 
B0426a

>  <inspiration_score>  (1708) 
None

>  <inchikey>  (1708) 
GRMDJTXUBMLURP-UHFFFAOYSA-N

>  <tags>  (1708) 
BulkDock Fragalysis export,openbind_d68ev3c_c2_elabs_scored,openbind_d68ev3c_c2_elabs_scored_4.5plus,openbind_d68ev3c_c2_elabs,openbind_d68ev3c_c2_elabs_scored_5plus,syndirella_product,openbind_d68ev3c_c2_elabs_scored_top80percent,syndirella_placed

>  <smiles>  (1708) 
CC(C)n1cc(CNCCN2CCN(c3cccc(C(F)(F)F)c3)CC2)cn1

>  <subsites>  (1708) 
None

>  <rmsd(smina/fragmenstein)>  (1708) 
0.632

>  <alias>  (1708) 
None

>  <energy_score>  (1708) 
-40.517639

>  <HIPPO Pose ID>  (1708) 
131801

>  <distance_score>  (1708) 
0.545259

>  <HIPPO Compound ID>  (1708) 
157814

>  <gnina_score_min>  (1708) 
5.589

>  <name>  (1708) 
P131801

>  <exports>  (1708) 
['/opt/xchem-fragalysis-2/maxwin/BulkDock/OUTPUTS/openbind_d68ev3c_c2_elabs_1LOTQJ3.sdf', '/opt/xchem-fragalysis-2/maxwin/BulkDock/OUTPUTS/openbind_d68ev3c_c2_elabs_1LSYI5W.sdf']

$$$$
P131802
     RDKit          3D

 28 30  0  0  0  0  0  0  0  0999 V2000
  -15.8179    2.1772   14.3504 C   0  0  0  0  0  0  0  0  0  0  0  0
  -15.3849    1.4432   13.1872 N   0  0  0  0  0  0  0  0  0  0  0  0
  -14.1578    0.9068   13.2147 N   0  0  0  0  0  0  0  0  0  0  0  0
  -13.9862    0.4249   11.9872 C   0  0  0  0  0  0  0  0  0  0  0  0
  -15.1260    0.5951   11.1729 C   0  0  0  0  0  0  0  0  0  0  0  0
  -15.3087    0.2352    9.7388 C   0  0  0  0  0  0  0  0  0  0  0  0
  -14.0909    0.3946    8.9535 N   0  0  0  0  0  0  0  0  0  0  0  0
  -13.4482    1.7035    9.1176 C   0  0  0  0  0  0  0  0  0  0  0  0
  -12.4806    2.0801    7.9821 C   0  0  0  0  0  0  0  0  0  0  0  0
  -11.2415    1.3358    7.7675 N   0  0  0  0  0  0  0  0  0  0  0  0
  -11.4304   -0.0674    7.3829 C   0  0  0  0  0  0  0  0  0  0  0  0
  -10.1209   -0.6752    6.8538 C   0  0  0  0  0  0  0  0  0  0  0  0
   -9.0049   -0.5357    7.8263 N   0  0  0  0  0  0  0  0  0  0  0  0
   -7.8217   -1.1749    7.4093 C   0  0  0  0  0  0  0  0  0  0  0  0
   -7.8646   -2.4840    6.8947 C   0  0  0  0  0  0  0  0  0  0  0  0
   -6.7276   -3.1330    6.4135 C   0  0  0  0  0  0  0  0  0  0  0  0
   -5.4958   -2.4994    6.4764 C   0  0  0  0  0  0  0  0  0  0  0  0
   -5.3929   -1.2237    7.0387 C   0  0  0  0  0  0  0  0  0  0  0  0
   -4.0432   -0.5755    7.1478 C   0  0  0  0  0  0  0  0  0  0  0  0
   -4.0854    0.7621    7.4025 F   0  0  0  0  0  0  0  0  0  0  0  0
   -3.3244   -0.7058    5.9967 F   0  0  0  0  0  0  0  0  0  0  0  0
   -3.2732   -1.1196    8.1282 F   0  0  0  0  0  0  0  0  0  0  0  0
   -6.5536   -0.5802    7.5040 C   0  0  0  0  0  0  0  0  0  0  0  0
   -8.9020    0.8217    8.4168 C   0  0  0  0  0  0  0  0  0  0  0  0
  -10.2723    1.3872    8.8710 C   0  0  0  0  0  0  0  0  0  0  0  0
  -16.0444    1.2284   12.0039 C   0  0  0  0  0  0  0  0  0  0  0  0
  -17.4429    1.6430   11.7302 C   0  0  0  0  0  0  0  0  0  0  0  0
  -17.4745    3.0812   10.6874 Cl  0  0  0  0  0  0  0  0  0  0  0  0
  1  2  1  0
  2  3  1  0
  3  4  2  0
  4  5  1  0
  5  6  1  0
  6  7  1  0
  7  8  1  0
  8  9  1  0
  9 10  1  0
 10 11  1  0
 11 12  1  0
 12 13  1  0
 13 14  1  0
 14 15  2  0
 15 16  1  0
 16 17  2  0
 17 18  1  0
 18 19  1  0
 19 20  1  0
 19 21  1  0
 19 22  1  0
 18 23  2  0
 13 24  1  0
 24 25  1  0
  5 26  2  0
 26 27  1  0
 27 28  1  0
 26  2  1  0
 25 10  1  0
 23 14  1  0
M  END
>  <ref_mols>  (1709) 
B0426a

>  <gnina_score>  (1709) 
5.498

>  <smina_score_min>  (1709) 
-6.138

>  <ref_pdb>  (1709) 
B0426a

>  <inspiration_score>  (1709) 
None

>  <inchikey>  (1709) 
RNGFIXIRRGDFRC-UHFFFAOYSA-N

>  <tags>  (1709) 
BulkDock Fragalysis export,openbind_d68ev3c_c2_elabs_scored,openbind_d68ev3c_c2_elabs_scored_4.5plus,openbind_d68ev3c_c2_elabs,openbind_d68ev3c_c2_elabs_scored_5plus,syndirella_product,openbind_d68ev3c_c2_elabs_scored_top80percent,syndirella_placed

>  <smiles>  (1709) 
Cn1ncc(CNCCN2CCN(c3cccc(C(F)(F)F)c3)CC2)c1CCl

>  <subsites>  (1709) 
None

>  <rmsd(smina/fragmenstein)>  (1709) 
0.909

>  <alias>  (1709) 
None

>  <energy_score>  (1709) 
-38.012955

>  <HIPPO Pose ID>  (1709) 
131802

>  <distance_score>  (1709) 
0.569714

>  <HIPPO Compound ID>  (1709) 
157815

>  <gnina_score_min>  (1709) 
5.718

>  <name>  (1709) 
P131802

>  <exports>  (1709) 
['/opt/xchem-fragalysis-2/maxwin/BulkDock/OUTPUTS/openbind_d68ev3c_c2_elabs_1LOTQJ3.sdf', '/opt/xchem-fragalysis-2/maxwin/BulkDock/OUTPUTS/openbind_d68ev3c_c2_elabs_1LSYI5W.sdf']

$$$$
P131803
     RDKit          3D

 28 30  0  0  0  0  0  0  0  0999 V2000
  -14.2869    4.2446   13.1687 C   0  0  0  0  0  0  0  0  0  0  0  0
  -14.3271    2.8870   12.6842 N   0  0  0  0  0  0  0  0  0  0  0  0
  -15.3285    2.2973   11.9619 C   0  0  0  0  0  0  0  0  0  0  0  0
  -14.9053    1.0101   11.6744 C   0  0  0  0  0  0  0  0  0  0  0  0
  -15.5994   -0.0506   10.9096 C   0  0  0  0  0  0  0  0  0  0  0  0
  -15.6256    0.2228    9.4658 N   0  0  0  0  0  0  0  0  0  0  0  0
  -14.2690    0.2054    8.8967 C   0  0  0  0  0  0  0  0  0  0  0  0
  -13.7109    1.6124    8.6819 C   0  0  0  0  0  0  0  0  0  0  0  0
  -12.2444    1.8123    9.0872 C   0  0  0  0  0  0  0  0  0  0  0  0
  -11.2276    1.2387    8.1862 N   0  0  0  0  0  0  0  0  0  0  0  0
   -9.8877    1.6901    8.6436 C   0  0  0  0  0  0  0  0  0  0  0  0
   -8.7217    1.1007    7.8193 C   0  0  0  0  0  0  0  0  0  0  0  0
   -8.7676   -0.3796    7.7942 N   0  0  0  0  0  0  0  0  0  0  0  0
   -7.6578   -1.0653    7.2803 C   0  0  0  0  0  0  0  0  0  0  0  0
   -7.7672   -2.2888    6.5910 C   0  0  0  0  0  0  0  0  0  0  0  0
   -6.6558   -2.9739    6.0963 C   0  0  0  0  0  0  0  0  0  0  0  0
   -5.3886   -2.4498    6.2797 C   0  0  0  0  0  0  0  0  0  0  0  0
   -5.2274   -1.2534    6.9801 C   0  0  0  0  0  0  0  0  0  0  0  0
   -3.8539   -0.6946    7.1842 C   0  0  0  0  0  0  0  0  0  0  0  0
   -3.8327    0.6359    7.4761 F   0  0  0  0  0  0  0  0  0  0  0  0
   -3.1668   -1.3130    8.1788 F   0  0  0  0  0  0  0  0  0  0  0  0
   -3.0976   -0.8332    6.0614 F   0  0  0  0  0  0  0  0  0  0  0  0
   -6.3550   -0.5924    7.4892 C   0  0  0  0  0  0  0  0  0  0  0  0
  -10.0992   -0.8869    7.4097 C   0  0  0  0  0  0  0  0  0  0  0  0
  -11.2227   -0.2395    8.2338 C   0  0  0  0  0  0  0  0  0  0  0  0
  -13.6584    0.9551   12.3052 C   0  0  0  0  0  0  0  0  0  0  0  0
  -12.7602   -0.0216   12.3401 O   0  0  0  0  0  0  0  0  0  0  0  0
  -13.2944    2.0598   12.9317 N   0  0  0  0  0  0  0  0  0  0  0  0
  1  2  1  0
  2  3  1  0
  3  4  2  0
  4  5  1  0
  5  6  1  0
  6  7  1  0
  7  8  1  0
  8  9  1  0
  9 10  1  0
 10 11  1  0
 11 12  1  0
 12 13  1  0
 13 14  1  0
 14 15  2  0
 15 16  1  0
 16 17  2  0
 17 18  1  0
 18 19  1  0
 19 20  1  0
 19 21  1  0
 19 22  1  0
 18 23  2  0
 13 24  1  0
 24 25  1  0
  4 26  1  0
 26 27  1  0
 26 28  2  0
 28  2  1  0
 25 10  1  0
 23 14  1  0
M  END
>  <ref_mols>  (1710) 
B0426a

>  <gnina_score>  (1710) 
5.429

>  <smina_score_min>  (1710) 
-6.207

>  <ref_pdb>  (1710) 
B0426a

>  <inspiration_score>  (1710) 
None

>  <inchikey>  (1710) 
BHNWGKURHJQPSW-UHFFFAOYSA-N

>  <tags>  (1710) 
BulkDock Fragalysis export,openbind_d68ev3c_c2_elabs_scored,openbind_d68ev3c_c2_elabs_scored_4.5plus,openbind_d68ev3c_c2_elabs,openbind_d68ev3c_c2_elabs_scored_5plus,syndirella_product,openbind_d68ev3c_c2_elabs_scored_top80percent,syndirella_placed

>  <smiles>  (1710) 
Cn1cc(CNCCCN2CCN(c3cccc(C(F)(F)F)c3)CC2)c(O)n1

>  <subsites>  (1710) 
None

>  <rmsd(smina/fragmenstein)>  (1710) 
0.584

>  <alias>  (1710) 
None

>  <energy_score>  (1710) 
-55.002651

>  <HIPPO Pose ID>  (1710) 
131803

>  <distance_score>  (1710) 
0.534351

>  <HIPPO Compound ID>  (1710) 
157816

>  <gnina_score_min>  (1710) 
5.313

>  <name>  (1710) 
P131803

>  <exports>  (1710) 
['/opt/xchem-fragalysis-2/maxwin/BulkDock/OUTPUTS/openbind_d68ev3c_c2_elabs_1LOTQJ3.sdf', '/opt/xchem-fragalysis-2/maxwin/BulkDock/OUTPUTS/openbind_d68ev3c_c2_elabs_1LSYI5W.sdf']

$$$$
P131805
     RDKit          3D

 28 30  0  0  0  0  0  0  0  0999 V2000
  -13.0659    1.3798   14.3590 C   0  0  0  0  0  0  0  0  0  0  0  0
  -14.0450    1.0261   13.3628 N   0  0  0  0  0  0  0  0  0  0  0  0
  -13.7842    0.6254   12.0886 C   0  0  0  0  0  0  0  0  0  0  0  0
  -15.0038    0.5349   11.4342 C   0  0  0  0  0  0  0  0  0  0  0  0
  -15.2764    0.2290    9.9949 C   0  0  1  0  0  0  0  0  0  0  0  0
  -16.2971    1.0319    9.4242 O   0  0  0  0  0  0  0  0  0  0  0  0
  -14.0949    0.3639    9.1614 N   0  0  0  0  0  0  0  0  0  0  0  0
  -13.4984    1.7059    9.1618 C   0  0  0  0  0  0  0  0  0  0  0  0
  -12.5911    1.9980    7.9489 C   0  0  0  0  0  0  0  0  0  0  0  0
  -11.3500    1.2546    7.7345 N   0  0  0  0  0  0  0  0  0  0  0  0
  -11.5238   -0.2022    7.6578 C   0  0  0  0  0  0  0  0  0  0  0  0
  -10.2548   -0.8828    7.1161 C   0  0  0  0  0  0  0  0  0  0  0  0
   -9.0274   -0.5271    7.8785 N   0  0  0  0  0  0  0  0  0  0  0  0
   -7.8525   -1.1655    7.4239 C   0  0  0  0  0  0  0  0  0  0  0  0
   -7.8858   -2.4677    6.8877 C   0  0  0  0  0  0  0  0  0  0  0  0
   -6.7463   -3.1084    6.3961 C   0  0  0  0  0  0  0  0  0  0  0  0
   -5.5161   -2.4754    6.4637 C   0  0  0  0  0  0  0  0  0  0  0  0
   -5.4174   -1.2067    7.0394 C   0  0  0  0  0  0  0  0  0  0  0  0
   -4.0678   -0.5582    7.1551 C   0  0  0  0  0  0  0  0  0  0  0  0
   -3.3046   -1.1000    8.1420 F   0  0  0  0  0  0  0  0  0  0  0  0
   -4.1127    0.7799    7.4068 F   0  0  0  0  0  0  0  0  0  0  0  0
   -3.3408   -0.6905    6.0094 F   0  0  0  0  0  0  0  0  0  0  0  0
   -6.5807   -0.5726    7.5174 C   0  0  0  0  0  0  0  0  0  0  0  0
   -8.9395    0.9098    8.2407 C   0  0  0  0  0  0  0  0  0  0  0  0
  -10.2863    1.5167    8.7142 C   0  0  0  0  0  0  0  0  0  0  0  0
  -15.9294    0.7530   12.4869 C   0  0  0  0  0  0  0  0  0  0  0  0
  -17.8018    0.6220   12.3180 Br  0  0  0  0  0  0  0  0  0  0  0  0
  -15.3559    1.0526   13.6540 N   0  0  0  0  0  0  0  0  0  0  0  0
  1  2  1  0
  2  3  1  0
  3  4  2  0
  4  5  1  0
  5  6  1  6
  5  7  1  0
  7  8  1  0
  8  9  1  0
  9 10  1  0
 10 11  1  0
 11 12  1  0
 12 13  1  0
 13 14  1  0
 14 15  2  0
 15 16  1  0
 16 17  2  0
 17 18  1  0
 18 19  1  0
 19 20  1  0
 19 21  1  0
 19 22  1  0
 18 23  2  0
 13 24  1  0
 24 25  1  0
  4 26  1  0
 26 27  1  0
 26 28  2  0
 28  2  1  0
 25 10  1  0
 23 14  1  0
M  END
>  <ref_mols>  (1711) 
B0426a

>  <gnina_score>  (1711) 
5.592

>  <smina_score_min>  (1711) 
-6.009

>  <ref_pdb>  (1711) 
B0426a

>  <inspiration_score>  (1711) 
None

>  <inchikey>  (1711) 
IHCMFEDERJPCOX-QGZVFWFLSA-N

>  <tags>  (1711) 
BulkDock Fragalysis export,openbind_d68ev3c_c2_elabs_scored,openbind_d68ev3c_c2_elabs_scored_4.5plus,openbind_d68ev3c_c2_elabs,openbind_d68ev3c_c2_elabs_scored_5plus,syndirella_product,openbind_d68ev3c_c2_elabs_scored_top80percent,syndirella_placed

>  <smiles>  (1711) 
Cn1cc([C@@H](O)NCCN2CCN(c3cccc(C(F)(F)F)c3)CC2)c(Br)n1

>  <subsites>  (1711) 
None

>  <rmsd(smina/fragmenstein)>  (1711) 
0.764

>  <alias>  (1711) 
None

>  <energy_score>  (1711) 
-52.983321

>  <HIPPO Pose ID>  (1711) 
131805

>  <distance_score>  (1711) 
0.563229

>  <HIPPO Compound ID>  (1711) 
157819

>  <gnina_score_min>  (1711) 
5.618

>  <name>  (1711) 
P131805

>  <exports>  (1711) 
['/opt/xchem-fragalysis-2/maxwin/BulkDock/OUTPUTS/openbind_d68ev3c_c2_elabs_1LOTQJ3.sdf', '/opt/xchem-fragalysis-2/maxwin/BulkDock/OUTPUTS/openbind_d68ev3c_c2_elabs_1LSYI5W.sdf']

$$$$
P131808
     RDKit          3D

 28 30  0  0  0  0  0  0  0  0999 V2000
   -8.7539    5.7047    7.5419 C   0  0  0  0  0  0  0  0  0  0  0  0
   -8.5867    4.2140    7.8014 C   0  0  0  0  0  0  0  0  0  0  0  0
   -9.9446    3.5177    7.9537 C   0  0  0  0  0  0  0  0  0  0  0  0
   -9.8969    2.0327    8.4199 C   0  0  2  0  0  0  0  0  0  0  0  0
   -8.8403    1.2537    7.5627 C   0  0  0  0  0  0  0  0  0  0  0  0
   -8.7638   -0.1731    7.9271 N   0  0  0  0  0  0  0  0  0  0  0  0
   -7.7096   -0.9084    7.3631 C   0  0  0  0  0  0  0  0  0  0  0  0
   -7.8890   -2.1372    6.7023 C   0  0  0  0  0  0  0  0  0  0  0  0
   -6.8150   -2.8660    6.1859 C   0  0  0  0  0  0  0  0  0  0  0  0
   -5.5237   -2.3801    6.3214 C   0  0  0  0  0  0  0  0  0  0  0  0
   -5.2989   -1.1712    6.9864 C   0  0  0  0  0  0  0  0  0  0  0  0
   -3.8988   -0.6631    7.1517 C   0  0  0  0  0  0  0  0  0  0  0  0
   -3.8223    0.6673    7.4353 F   0  0  0  0  0  0  0  0  0  0  0  0
   -3.2128   -1.3001    8.1364 F   0  0  0  0  0  0  0  0  0  0  0  0
   -3.1700   -0.8355    6.0143 F   0  0  0  0  0  0  0  0  0  0  0  0
   -6.3897   -0.4591    7.5078 C   0  0  0  0  0  0  0  0  0  0  0  0
  -10.0796   -0.8185    7.9435 C   0  0  0  0  0  0  0  0  0  0  0  0
  -11.0620   -0.0443    8.8326 C   0  0  0  0  0  0  0  0  0  0  0  0
  -11.2609    1.3678    8.3975 N   0  0  0  0  0  0  0  0  0  0  0  0
  -12.2265    2.0672    9.2638 C   0  0  1  0  0  0  0  0  0  0  0  0
  -12.6806    3.2078    8.5506 O   0  0  0  0  0  0  0  0  0  0  0  0
  -13.4447    1.2544    9.5856 C   0  0  0  0  0  0  0  0  0  0  0  0
  -14.4566    0.8626    8.7227 C   0  0  0  0  0  0  0  0  0  0  0  0
  -15.3956    0.2362    9.4841 N   0  0  0  0  0  0  0  0  0  0  0  0
  -16.7100   -0.1544    9.0415 C   0  0  0  0  0  0  0  0  0  0  0  0
  -15.0480    0.1151   10.7766 N   0  0  0  0  0  0  0  0  0  0  0  0
  -13.8798    0.7599   10.8382 C   0  0  0  0  0  0  0  0  0  0  0  0
  -12.9662    0.9874   12.4675 Br  0  0  0  0  0  0  0  0  0  0  0  0
  1  2  1  0
  2  3  1  0
  4  3  1  6
  4  5  1  0
  5  6  1  0
  6  7  1  0
  7  8  2  0
  8  9  1  0
  9 10  2  0
 10 11  1  0
 11 12  1  0
 12 13  1  0
 12 14  1  0
 12 15  1  0
 11 16  2  0
  6 17  1  0
 17 18  1  0
 18 19  1  0
 19 20  1  0
 20 21  1  6
 20 22  1  0
 22 23  2  0
 23 24  1  0
 24 25  1  0
 24 26  1  0
 26 27  2  0
 27 28  1  0
 19  4  1  0
 27 22  1  0
 16  7  1  0
M  END
>  <ref_mols>  (1712) 
B0426a

>  <gnina_score>  (1712) 
5.933

>  <smina_score_min>  (1712) 
-5.788

>  <ref_pdb>  (1712) 
B0426a

>  <inspiration_score>  (1712) 
None

>  <inchikey>  (1712) 
FTXUDAWVXOZOME-QAPCUYQASA-N

>  <tags>  (1712) 
BulkDock Fragalysis export,openbind_d68ev3c_c2_elabs_scored,openbind_d68ev3c_c2_elabs_scored_4.5plus,openbind_d68ev3c_c2_elabs,openbind_d68ev3c_c2_elabs_scored_5plus,syndirella_product,openbind_d68ev3c_c2_elabs_scored_top80percent,syndirella_placed

>  <smiles>  (1712) 
CCC[C@@H]1CN(c2cccc(C(F)(F)F)c2)CCN1[C@@H](O)c1cn(C)nc1Br

>  <subsites>  (1712) 
None

>  <rmsd(smina/fragmenstein)>  (1712) 
0.714

>  <alias>  (1712) 
None

>  <energy_score>  (1712) 
-51.057015

>  <HIPPO Pose ID>  (1712) 
131808

>  <distance_score>  (1712) 
0.383741

>  <HIPPO Compound ID>  (1712) 
157820

>  <gnina_score_min>  (1712) 
5.967

>  <name>  (1712) 
P131808

>  <exports>  (1712) 
['/opt/xchem-fragalysis-2/maxwin/BulkDock/OUTPUTS/openbind_d68ev3c_c2_elabs_1LOTQJ3.sdf', '/opt/xchem-fragalysis-2/maxwin/BulkDock/OUTPUTS/openbind_d68ev3c_c2_elabs_1LSYI5W.sdf']

$$$$
P131810
     RDKit          3D

 28 30  0  0  0  0  0  0  0  0999 V2000
  -11.6117    3.4058   12.2077 C   0  0  0  0  0  0  0  0  0  0  0  0
  -12.6479    3.2161   13.0362 C   0  0  0  0  0  0  0  0  0  0  0  0
  -12.9787    1.9491   13.7855 C   0  0  0  0  0  0  0  0  0  0  0  0
  -14.0337    1.2190   13.0997 N   0  0  0  0  0  0  0  0  0  0  0  0
  -13.8531    0.4945   11.9584 C   0  0  0  0  0  0  0  0  0  0  0  0
  -15.0710    0.5117   11.3103 C   0  0  0  0  0  0  0  0  0  0  0  0
  -15.3754    0.1648    9.8980 C   0  0  0  0  0  0  0  0  0  0  0  0
  -14.2015    0.3175    9.0350 N   0  0  0  0  0  0  0  0  0  0  0  0
  -13.6100    1.6613    9.0528 C   0  0  0  0  0  0  0  0  0  0  0  0
  -12.6487    1.9688    7.8847 C   0  0  0  0  0  0  0  0  0  0  0  0
  -11.3997    1.2305    7.7019 N   0  0  0  0  0  0  0  0  0  0  0  0
  -10.3503    1.5074    8.6929 C   0  0  0  0  0  0  0  0  0  0  0  0
   -8.9913    0.9085    8.2377 C   0  0  0  0  0  0  0  0  0  0  0  0
   -9.0626   -0.5311    7.8803 N   0  0  0  0  0  0  0  0  0  0  0  0
   -7.8809   -1.1628    7.4317 C   0  0  0  0  0  0  0  0  0  0  0  0
   -7.9047   -2.4691    6.9035 C   0  0  0  0  0  0  0  0  0  0  0  0
   -6.7616   -3.1058    6.4151 C   0  0  0  0  0  0  0  0  0  0  0  0
   -5.5356   -2.4649    6.4793 C   0  0  0  0  0  0  0  0  0  0  0  0
   -5.4449   -1.1920    7.0481 C   0  0  0  0  0  0  0  0  0  0  0  0
   -4.0965   -0.5392    7.1608 C   0  0  0  0  0  0  0  0  0  0  0  0
   -3.3695   -0.6698    6.0146 F   0  0  0  0  0  0  0  0  0  0  0  0
   -4.1443    0.7984    7.4132 F   0  0  0  0  0  0  0  0  0  0  0  0
   -3.3305   -1.0793    8.1469 F   0  0  0  0  0  0  0  0  0  0  0  0
   -6.6128   -0.5611    7.5222 C   0  0  0  0  0  0  0  0  0  0  0  0
  -10.2830   -0.9020    7.1132 C   0  0  0  0  0  0  0  0  0  0  0  0
  -11.5625   -0.2275    7.6371 C   0  0  0  0  0  0  0  0  0  0  0  0
  -15.9610    1.0181   12.2895 C   0  0  0  0  0  0  0  0  0  0  0  0
  -15.3356    1.4154   13.4036 N   0  0  0  0  0  0  0  0  0  0  0  0
  1  2  2  0
  2  3  1  0
  3  4  1  0
  4  5  1  0
  5  6  2  0
  6  7  1  0
  7  8  1  0
  8  9  1  0
  9 10  1  0
 10 11  1  0
 11 12  1  0
 12 13  1  0
 13 14  1  0
 14 15  1  0
 15 16  2  0
 16 17  1  0
 17 18  2  0
 18 19  1  0
 19 20  1  0
 20 21  1  0
 20 22  1  0
 20 23  1  0
 19 24  2  0
 14 25  1  0
 25 26  1  0
  6 27  1  0
 27 28  2  0
 28  4  1  0
 26 11  1  0
 24 15  1  0
M  END
>  <ref_mols>  (1713) 
B0426a

>  <gnina_score>  (1713) 
5.741

>  <smina_score_min>  (1713) 
-5.714

>  <ref_pdb>  (1713) 
B0426a

>  <inspiration_score>  (1713) 
None

>  <inchikey>  (1713) 
QKDWDTAQCRHEMN-UHFFFAOYSA-N

>  <tags>  (1713) 
BulkDock Fragalysis export,openbind_d68ev3c_c2_elabs_scored,openbind_d68ev3c_c2_elabs_scored_4.5plus,openbind_d68ev3c_c2_elabs,openbind_d68ev3c_c2_elabs_scored_5plus,syndirella_product,openbind_d68ev3c_c2_elabs_scored_top80percent,syndirella_placed

>  <smiles>  (1713) 
C=CCn1cc(CNCCN2CCN(c3cccc(C(F)(F)F)c3)CC2)cn1

>  <subsites>  (1713) 
None

>  <rmsd(smina/fragmenstein)>  (1713) 
0.834

>  <alias>  (1713) 
None

>  <energy_score>  (1713) 
-44.518996

>  <HIPPO Pose ID>  (1713) 
131810

>  <distance_score>  (1713) 
0.550041

>  <HIPPO Compound ID>  (1713) 
157822

>  <gnina_score_min>  (1713) 
5.82

>  <name>  (1713) 
P131810

>  <exports>  (1713) 
['/opt/xchem-fragalysis-2/maxwin/BulkDock/OUTPUTS/openbind_d68ev3c_c2_elabs_1LOTQJ3.sdf', '/opt/xchem-fragalysis-2/maxwin/BulkDock/OUTPUTS/openbind_d68ev3c_c2_elabs_1LSYI5W.sdf']

$$$$
P131812
     RDKit          3D

 28 30  0  0  0  0  0  0  0  0999 V2000
  -10.4779    3.7671   11.8014 C   0  0  0  0  0  0  0  0  0  0  0  0
  -10.2554    3.5601   10.3114 C   0  0  0  0  0  0  0  0  0  0  0  0
  -10.1724    2.0739    9.9217 C   0  0  0  0  0  0  0  0  0  0  0  0
  -10.2975    1.8723    8.3901 C   0  0  1  0  0  0  0  0  0  0  0  0
   -9.0173    1.1963    7.7740 C   0  0  0  0  0  0  0  0  0  0  0  0
   -9.0109   -0.2866    7.8597 N   0  0  0  0  0  0  0  0  0  0  0  0
   -7.8708   -0.9594    7.3614 C   0  0  0  0  0  0  0  0  0  0  0  0
   -7.9451   -2.2162    6.7230 C   0  0  0  0  0  0  0  0  0  0  0  0
   -6.8185   -2.8982    6.2538 C   0  0  0  0  0  0  0  0  0  0  0  0
   -5.5626   -2.3417    6.4134 C   0  0  0  0  0  0  0  0  0  0  0  0
   -5.4274   -1.1079    7.0556 C   0  0  0  0  0  0  0  0  0  0  0  0
   -4.0522   -0.5328    7.2364 C   0  0  0  0  0  0  0  0  0  0  0  0
   -4.0397    0.8039    7.4954 F   0  0  0  0  0  0  0  0  0  0  0  0
   -3.3589   -1.1219    8.2463 F   0  0  0  0  0  0  0  0  0  0  0  0
   -3.2873   -0.6951    6.1191 F   0  0  0  0  0  0  0  0  0  0  0  0
   -6.5753   -0.4430    7.5355 C   0  0  0  0  0  0  0  0  0  0  0  0
  -10.3150   -0.8756    7.4784 C   0  0  0  0  0  0  0  0  0  0  0  0
  -11.4906   -0.2404    8.2348 C   0  0  0  0  0  0  0  0  0  0  0  0
  -11.5592    1.2039    7.9992 N   0  0  0  0  0  0  0  0  0  0  0  0
  -12.7790    1.9027    8.4061 C   0  0  0  0  0  0  0  0  0  0  0  0
  -13.7644    1.1325    9.2177 C   0  0  0  0  0  0  0  0  0  0  0  0
  -13.6914    0.7937   10.5938 C   0  0  0  0  0  0  0  0  0  0  0  0
  -14.8108    0.2343   11.0572 N   0  0  0  0  0  0  0  0  0  0  0  0
  -15.6262    0.2611    9.9871 N   0  0  0  0  0  0  0  0  0  0  0  0
  -17.0294   -0.0153   10.1559 C   0  0  0  0  0  0  0  0  0  0  0  0
  -15.0241    0.6990    8.8371 C   0  0  0  0  0  0  0  0  0  0  0  0
  -15.7040    0.7431    7.6885 O   0  0  0  0  0  0  0  0  0  0  0  0
  -15.0851    0.0332    6.6177 C   0  0  0  0  0  0  0  0  0  0  0  0
  1  2  1  0
  2  3  1  0
  4  3  1  1
  4  5  1  0
  5  6  1  0
  6  7  1  0
  7  8  2  0
  8  9  1  0
  9 10  2  0
 10 11  1  0
 11 12  1  0
 12 13  1  0
 12 14  1  0
 12 15  1  0
 11 16  2  0
  6 17  1  0
 17 18  1  0
 18 19  1  0
 19 20  1  0
 20 21  1  0
 21 22  1  0
 22 23  2  0
 23 24  1  0
 24 25  1  0
 24 26  1  0
 26 27  1  0
 27 28  1  0
 19  4  1  0
 26 21  2  0
 16  7  1  0
M  END
>  <ref_mols>  (1714) 
B0426a

>  <gnina_score>  (1714) 
5.919

>  <smina_score_min>  (1714) 
-5.636

>  <ref_pdb>  (1714) 
B0426a

>  <inspiration_score>  (1714) 
None

>  <inchikey>  (1714) 
UFDDTDZVNVOACV-SFHVURJKSA-N

>  <tags>  (1714) 
BulkDock Fragalysis export,openbind_d68ev3c_c2_elabs_scored,openbind_d68ev3c_c2_elabs_scored_4.5plus,openbind_d68ev3c_c2_elabs,openbind_d68ev3c_c2_elabs_scored_5plus,syndirella_product,openbind_d68ev3c_c2_elabs_scored_top80percent,syndirella_placed

>  <smiles>  (1714) 
CCC[C@H]1CN(c2cccc(C(F)(F)F)c2)CCN1Cc1cnn(C)c1OC

>  <subsites>  (1714) 
None

>  <rmsd(smina/fragmenstein)>  (1714) 
0.992

>  <alias>  (1714) 
None

>  <energy_score>  (1714) 
-48.710093

>  <HIPPO Pose ID>  (1714) 
131812

>  <distance_score>  (1714) 
0.39724

>  <HIPPO Compound ID>  (1714) 
157823

>  <gnina_score_min>  (1714) 
5.714

>  <name>  (1714) 
P131812

>  <exports>  (1714) 
['/opt/xchem-fragalysis-2/maxwin/BulkDock/OUTPUTS/openbind_d68ev3c_c2_elabs_1LOTQJ3.sdf', '/opt/xchem-fragalysis-2/maxwin/BulkDock/OUTPUTS/openbind_d68ev3c_c2_elabs_1LSYI5W.sdf']

$$$$
P131813
     RDKit          3D

 28 30  0  0  0  0  0  0  0  0999 V2000
  -15.1375    3.2458   14.1388 C   0  0  0  0  0  0  0  0  0  0  0  0
  -14.8399    2.1128   13.3066 N   0  0  0  0  0  0  0  0  0  0  0  0
  -13.5638    1.7032   13.1856 N   0  0  0  0  0  0  0  0  0  0  0  0
  -13.6264    0.7660   12.2434 C   0  0  0  0  0  0  0  0  0  0  0  0
  -14.9453    0.5486   11.7755 C   0  0  0  0  0  0  0  0  0  0  0  0
  -15.3744   -0.3847   10.7142 C   0  0  0  0  0  0  0  0  0  0  0  0
  -15.8146    0.3024    9.5003 N   0  0  0  0  0  0  0  0  0  0  0  0
  -14.8610    1.2945    8.9961 C   0  0  0  0  0  0  0  0  0  0  0  0
  -13.4808    0.7241    8.6973 C   0  0  0  0  0  0  0  0  0  0  0  0
  -12.5177    1.8214    8.2364 C   0  0  0  0  0  0  0  0  0  0  0  0
  -11.1786    1.3663    7.8495 N   0  0  0  0  0  0  0  0  0  0  0  0
  -11.2096    0.1192    7.0574 C   0  0  0  0  0  0  0  0  0  0  0  0
   -9.8204   -0.2955    6.5612 C   0  0  0  0  0  0  0  0  0  0  0  0
   -8.8977   -0.4517    7.7053 N   0  0  0  0  0  0  0  0  0  0  0  0
   -7.7198   -1.1146    7.3538 C   0  0  0  0  0  0  0  0  0  0  0  0
   -7.8002   -2.4188    6.8328 C   0  0  0  0  0  0  0  0  0  0  0  0
   -6.6731   -3.1066    6.3933 C   0  0  0  0  0  0  0  0  0  0  0  0
   -5.4262   -2.5076    6.4971 C   0  0  0  0  0  0  0  0  0  0  0  0
   -5.3003   -1.2302    7.0565 C   0  0  0  0  0  0  0  0  0  0  0  0
   -3.9378   -0.6168    7.1788 C   0  0  0  0  0  0  0  0  0  0  0  0
   -3.1792   -1.1986    8.1450 F   0  0  0  0  0  0  0  0  0  0  0  0
   -3.9482    0.7162    7.4586 F   0  0  0  0  0  0  0  0  0  0  0  0
   -3.2304   -0.7436    6.0218 F   0  0  0  0  0  0  0  0  0  0  0  0
   -6.4486   -0.5484    7.4871 C   0  0  0  0  0  0  0  0  0  0  0  0
   -8.8444    0.7596    8.5496 C   0  0  0  0  0  0  0  0  0  0  0  0
  -10.2692    1.1762    9.0011 C   0  0  0  0  0  0  0  0  0  0  0  0
  -15.7113    1.3909   12.5491 C   0  0  0  0  0  0  0  0  0  0  0  0
  -17.6056    1.5252   12.5021 Br  0  0  0  0  0  0  0  0  0  0  0  0
  1  2  1  0
  2  3  1  0
  3  4  2  0
  4  5  1  0
  5  6  1  0
  6  7  1  0
  7  8  1  0
  8  9  1  0
  9 10  1  0
 10 11  1  0
 11 12  1  0
 12 13  1  0
 13 14  1  0
 14 15  1  0
 15 16  2  0
 16 17  1  0
 17 18  2  0
 18 19  1  0
 19 20  1  0
 20 21  1  0
 20 22  1  0
 20 23  1  0
 19 24  2  0
 14 25  1  0
 25 26  1  0
  5 27  2  0
 27 28  1  0
 27  2  1  0
 26 11  1  0
 24 15  1  0
M  END
>  <ref_mols>  (1715) 
B0426a

>  <gnina_score>  (1715) 
5.597

>  <smina_score_min>  (1715) 
-6.26

>  <ref_pdb>  (1715) 
B0426a

>  <inspiration_score>  (1715) 
None

>  <inchikey>  (1715) 
WIJPQJYHDAYJMS-UHFFFAOYSA-N

>  <tags>  (1715) 
BulkDock Fragalysis export,openbind_d68ev3c_c2_elabs_scored,openbind_d68ev3c_c2_elabs_scored_4.5plus,openbind_d68ev3c_c2_elabs,openbind_d68ev3c_c2_elabs_scored_5plus,syndirella_product,openbind_d68ev3c_c2_elabs_scored_top80percent,syndirella_placed

>  <smiles>  (1715) 
Cn1ncc(CNCCCN2CCN(c3cccc(C(F)(F)F)c3)CC2)c1Br

>  <subsites>  (1715) 
None

>  <rmsd(smina/fragmenstein)>  (1715) 
1.267

>  <alias>  (1715) 
None

>  <energy_score>  (1715) 
-36.931983

>  <HIPPO Pose ID>  (1715) 
131813

>  <distance_score>  (1715) 
0.671022

>  <HIPPO Compound ID>  (1715) 
157824

>  <gnina_score_min>  (1715) 
5.719

>  <name>  (1715) 
P131813

>  <exports>  (1715) 
['/opt/xchem-fragalysis-2/maxwin/BulkDock/OUTPUTS/openbind_d68ev3c_c2_elabs_1LOTQJ3.sdf', '/opt/xchem-fragalysis-2/maxwin/BulkDock/OUTPUTS/openbind_d68ev3c_c2_elabs_1LSYI5W.sdf']

$$$$
P131814
     RDKit          3D

 28 30  0  0  0  0  0  0  0  0999 V2000
  -14.8488    1.2261    5.3608 C   0  0  0  0  0  0  0  0  0  0  0  0
  -15.3726    1.3082    6.7019 N   0  0  0  0  0  0  0  0  0  0  0  0
  -15.4250    0.3004    7.6213 C   0  0  0  0  0  0  0  0  0  0  0  0
  -15.9522    0.8462    8.7779 C   0  0  0  0  0  0  0  0  0  0  0  0
  -16.2340    0.1930   10.0879 C   0  0  2  0  0  0  0  0  0  0  0  0
  -17.1701    0.9263   10.8583 O   0  0  0  0  0  0  0  0  0  0  0  0
  -15.0815   -0.0405   10.9362 N   0  0  0  0  0  0  0  0  0  0  0  0
  -14.0508    0.9908   10.9291 C   0  0  0  0  0  0  0  0  0  0  0  0
  -12.9176    0.5446   10.0138 C   0  0  0  0  0  0  0  0  0  0  0  0
  -12.2998    1.7002    9.2191 C   0  0  0  0  0  0  0  0  0  0  0  0
  -11.0976    1.3575    8.4414 N   0  0  0  0  0  0  0  0  0  0  0  0
   -9.9114    1.2521    9.3146 C   0  0  0  0  0  0  0  0  0  0  0  0
   -8.6294    0.8859    8.5418 C   0  0  0  0  0  0  0  0  0  0  0  0
   -8.8184   -0.3534    7.7687 N   0  0  0  0  0  0  0  0  0  0  0  0
   -7.7092   -1.0466    7.2928 C   0  0  0  0  0  0  0  0  0  0  0  0
   -7.8511   -2.3441    6.7740 C   0  0  0  0  0  0  0  0  0  0  0  0
   -6.7608   -3.0712    6.2965 C   0  0  0  0  0  0  0  0  0  0  0  0
   -5.4890   -2.5188    6.3516 C   0  0  0  0  0  0  0  0  0  0  0  0
   -5.2993   -1.2471    6.8979 C   0  0  0  0  0  0  0  0  0  0  0  0
   -3.9162   -0.6774    6.9915 C   0  0  0  0  0  0  0  0  0  0  0  0
   -3.1552   -1.2845    7.9409 F   0  0  0  0  0  0  0  0  0  0  0  0
   -3.8783    0.6547    7.2766 F   0  0  0  0  0  0  0  0  0  0  0  0
   -3.2383   -0.8198    5.8189 F   0  0  0  0  0  0  0  0  0  0  0  0
   -6.4095   -0.5273    7.3596 C   0  0  0  0  0  0  0  0  0  0  0  0
   -9.9950   -0.2905    6.8780 C   0  0  0  0  0  0  0  0  0  0  0  0
  -11.2506    0.0939    7.6838 C   0  0  0  0  0  0  0  0  0  0  0  0
  -16.2277    2.1869    8.4091 C   0  0  0  0  0  0  0  0  0  0  0  0
  -15.8465    2.4772    7.1660 N   0  0  0  0  0  0  0  0  0  0  0  0
  1  2  1  0
  2  3  1  0
  3  4  2  0
  4  5  1  0
  5  6  1  1
  5  7  1  0
  7  8  1  0
  8  9  1  0
  9 10  1  0
 10 11  1  0
 11 12  1  0
 12 13  1  0
 13 14  1  0
 14 15  1  0
 15 16  2  0
 16 17  1  0
 17 18  2  0
 18 19  1  0
 19 20  1  0
 20 21  1  0
 20 22  1  0
 20 23  1  0
 19 24  2  0
 14 25  1  0
 25 26  1  0
  4 27  1  0
 27 28  2  0
 28  2  1  0
 26 11  1  0
 24 15  1  0
M  END
>  <ref_mols>  (1716) 
B0426a

>  <gnina_score>  (1716) 
5.347

>  <smina_score_min>  (1716) 
-5.945

>  <ref_pdb>  (1716) 
B0426a

>  <inspiration_score>  (1716) 
None

>  <inchikey>  (1716) 
KRQVFKNQNQBCAC-SFHVURJKSA-N

>  <tags>  (1716) 
BulkDock Fragalysis export,openbind_d68ev3c_c2_elabs_scored,openbind_d68ev3c_c2_elabs_scored_4.5plus,openbind_d68ev3c_c2_elabs,openbind_d68ev3c_c2_elabs_scored_5plus,syndirella_product,openbind_d68ev3c_c2_elabs_scored_top80percent,syndirella_placed

>  <smiles>  (1716) 
Cn1cc([C@H](O)NCCCN2CCN(c3cccc(C(F)(F)F)c3)CC2)cn1

>  <subsites>  (1716) 
None

>  <rmsd(smina/fragmenstein)>  (1716) 
0.801

>  <alias>  (1716) 
None

>  <energy_score>  (1716) 
-54.87053

>  <HIPPO Pose ID>  (1716) 
131814

>  <distance_score>  (1716) 
0.560658

>  <HIPPO Compound ID>  (1716) 
157827

>  <gnina_score_min>  (1716) 
5.342

>  <name>  (1716) 
P131814

>  <exports>  (1716) 
['/opt/xchem-fragalysis-2/maxwin/BulkDock/OUTPUTS/openbind_d68ev3c_c2_elabs_1LOTQJ3.sdf', '/opt/xchem-fragalysis-2/maxwin/BulkDock/OUTPUTS/openbind_d68ev3c_c2_elabs_1LSYI5W.sdf']

$$$$
P131817
     RDKit          3D

 28 30  0  0  0  0  0  0  0  0999 V2000
  -10.1713    4.3784   10.1558 C   0  0  0  0  0  0  0  0  0  0  0  0
  -10.7406    3.0773   10.7023 C   0  0  0  0  0  0  0  0  0  0  0  0
  -10.2501    1.7977   10.0036 C   0  0  0  0  0  0  0  0  0  0  0  0
  -10.3639    1.7675    8.4632 C   0  0  1  0  0  0  0  0  0  0  0  0
   -9.0864    1.1179    7.8102 C   0  0  0  0  0  0  0  0  0  0  0  0
   -9.0857   -0.3659    7.8293 N   0  0  0  0  0  0  0  0  0  0  0  0
   -7.9274   -1.0254    7.3541 C   0  0  0  0  0  0  0  0  0  0  0  0
   -7.9755   -2.2993    6.7495 C   0  0  0  0  0  0  0  0  0  0  0  0
   -6.8356   -2.9673    6.2906 C   0  0  0  0  0  0  0  0  0  0  0  0
   -5.5900   -2.3826    6.4317 C   0  0  0  0  0  0  0  0  0  0  0  0
   -5.4767   -1.1349    7.0493 C   0  0  0  0  0  0  0  0  0  0  0  0
   -4.1107   -0.5322    7.2191 C   0  0  0  0  0  0  0  0  0  0  0  0
   -3.3494   -0.6748    6.0956 F   0  0  0  0  0  0  0  0  0  0  0  0
   -4.1209    0.8039    7.4830 F   0  0  0  0  0  0  0  0  0  0  0  0
   -3.3962   -1.1097    8.2217 F   0  0  0  0  0  0  0  0  0  0  0  0
   -6.6386   -0.4832    7.5167 C   0  0  0  0  0  0  0  0  0  0  0  0
  -10.3815   -0.9198    7.3552 C   0  0  0  0  0  0  0  0  0  0  0  0
  -11.5974   -0.2958    8.0629 C   0  0  0  0  0  0  0  0  0  0  0  0
  -11.6065    1.1638    7.9602 N   0  0  0  0  0  0  0  0  0  0  0  0
  -12.8529    1.8526    8.2641 C   0  0  0  0  0  0  0  0  0  0  0  0
  -13.8166    1.1445    9.1655 C   0  0  0  0  0  0  0  0  0  0  0  0
  -13.8478    1.0835   10.5452 C   0  0  0  0  0  0  0  0  0  0  0  0
  -15.0194    0.4740   10.8809 N   0  0  0  0  0  0  0  0  0  0  0  0
  -15.5748    0.3474   12.2122 C   0  0  0  0  0  0  0  0  0  0  0  0
  -16.5231    1.4828   12.5520 C   0  0  0  0  0  0  0  0  0  0  0  0
  -15.7350    0.0648    9.8253 N   0  0  0  0  0  0  0  0  0  0  0  0
  -14.9999    0.4452    8.7721 C   0  0  0  0  0  0  0  0  0  0  0  0
  -15.4871    0.1693    7.3964 C   0  0  0  0  0  0  0  0  0  0  0  0
  1  2  1  0
  2  3  1  0
  4  3  1  1
  4  5  1  0
  5  6  1  0
  6  7  1  0
  7  8  2  0
  8  9  1  0
  9 10  2  0
 10 11  1  0
 11 12  1  0
 12 13  1  0
 12 14  1  0
 12 15  1  0
 11 16  2  0
  6 17  1  0
 17 18  1  0
 18 19  1  0
 19 20  1  0
 20 21  1  0
 21 22  2  0
 22 23  1  0
 23 24  1  0
 24 25  1  0
 23 26  1  0
 26 27  2  0
 27 28  1  0
 19  4  1  0
 27 21  1  0
 16  7  1  0
M  END
>  <ref_mols>  (1717) 
B0426a

>  <gnina_score>  (1717) 
6.04

>  <smina_score_min>  (1717) 
-5.758

>  <ref_pdb>  (1717) 
B0426a

>  <inspiration_score>  (1717) 
None

>  <inchikey>  (1717) 
GACBWDIBXPKHAM-FQEVSTJZSA-N

>  <tags>  (1717) 
BulkDock Fragalysis export,openbind_d68ev3c_c2_elabs_scored,openbind_d68ev3c_c2_elabs_scored_4.5plus,openbind_d68ev3c_c2_elabs,openbind_d68ev3c_c2_elabs_scored_5plus,syndirella_product,openbind_d68ev3c_c2_elabs_scored_top80percent,syndirella_placed

>  <smiles>  (1717) 
CCC[C@H]1CN(c2cccc(C(F)(F)F)c2)CCN1Cc1cn(CC)nc1C

>  <subsites>  (1717) 
None

>  <rmsd(smina/fragmenstein)>  (1717) 
0.833

>  <alias>  (1717) 
None

>  <energy_score>  (1717) 
-47.482737

>  <HIPPO Pose ID>  (1717) 
131817

>  <distance_score>  (1717) 
0.44318

>  <HIPPO Compound ID>  (1717) 
157828

>  <gnina_score_min>  (1717) 
5.873

>  <name>  (1717) 
P131817

>  <exports>  (1717) 
['/opt/xchem-fragalysis-2/maxwin/BulkDock/OUTPUTS/openbind_d68ev3c_c2_elabs_1LOTQJ3.sdf', '/opt/xchem-fragalysis-2/maxwin/BulkDock/OUTPUTS/openbind_d68ev3c_c2_elabs_1LSYI5W.sdf']

$$$$
P131818
     RDKit          3D

 28 30  0  0  0  0  0  0  0  0999 V2000
  -12.4671    1.4961   14.2468 C   0  0  0  0  0  0  0  0  0  0  0  0
  -13.9281    1.8743   14.3781 C   0  0  0  0  0  0  0  0  0  0  0  0
  -14.7653    1.2681   13.3635 N   0  0  0  0  0  0  0  0  0  0  0  0
  -14.4582    1.1085   12.0482 C   0  0  0  0  0  0  0  0  0  0  0  0
  -15.5590    0.5391   11.4425 C   0  0  0  0  0  0  0  0  0  0  0  0
  -15.7429    0.1809   10.0040 C   0  0  0  0  0  0  0  0  0  0  0  0
  -14.9470    1.0579    9.1455 N   0  0  0  0  0  0  0  0  0  0  0  0
  -13.5939    0.5345    8.9326 C   0  0  0  0  0  0  0  0  0  0  0  0
  -12.6605    1.6353    8.3750 C   0  0  0  0  0  0  0  0  0  0  0  0
  -11.3125    1.2325    7.9553 N   0  0  0  0  0  0  0  0  0  0  0  0
  -11.3284   -0.0198    7.1714 C   0  0  0  0  0  0  0  0  0  0  0  0
   -9.9418   -0.3903    6.6283 C   0  0  0  0  0  0  0  0  0  0  0  0
   -8.9668   -0.4948    7.7359 N   0  0  0  0  0  0  0  0  0  0  0  0
   -7.7811   -1.1310    7.3628 C   0  0  0  0  0  0  0  0  0  0  0  0
   -7.8387   -2.4363    6.8411 C   0  0  0  0  0  0  0  0  0  0  0  0
   -6.7016   -3.1047    6.3953 C   0  0  0  0  0  0  0  0  0  0  0  0
   -5.4641   -2.4860    6.4934 C   0  0  0  0  0  0  0  0  0  0  0  0
   -5.3578   -1.2062    7.0514 C   0  0  0  0  0  0  0  0  0  0  0  0
   -4.0029   -0.5742    7.1758 C   0  0  0  0  0  0  0  0  0  0  0  0
   -4.0334    0.7626    7.4358 F   0  0  0  0  0  0  0  0  0  0  0  0
   -3.2480   -1.1311    8.1601 F   0  0  0  0  0  0  0  0  0  0  0  0
   -3.2788   -0.7091    6.0296 F   0  0  0  0  0  0  0  0  0  0  0  0
   -6.5175   -0.5434    7.4869 C   0  0  0  0  0  0  0  0  0  0  0  0
   -8.9329    0.7223    8.5707 C   0  0  0  0  0  0  0  0  0  0  0  0
  -10.3585    1.0817    9.0728 C   0  0  0  0  0  0  0  0  0  0  0  0
  -16.4946    0.3998   12.5131 C   0  0  0  0  0  0  0  0  0  0  0  0
  -17.8788   -0.1327   12.4758 C   0  0  0  0  0  0  0  0  0  0  0  0
  -16.0035    0.8506   13.6774 N   0  0  0  0  0  0  0  0  0  0  0  0
  1  2  1  0
  2  3  1  0
  3  4  1  0
  4  5  2  0
  5  6  1  0
  6  7  1  0
  7  8  1  0
  8  9  1  0
  9 10  1  0
 10 11  1  0
 11 12  1  0
 12 13  1  0
 13 14  1  0
 14 15  2  0
 15 16  1  0
 16 17  2  0
 17 18  1  0
 18 19  1  0
 19 20  1  0
 19 21  1  0
 19 22  1  0
 18 23  2  0
 13 24  1  0
 24 25  1  0
  5 26  1  0
 26 27  1  0
 26 28  2  0
 28  3  1  0
 25 10  1  0
 23 14  1  0
M  END
>  <ref_mols>  (1718) 
B0426a

>  <gnina_score>  (1718) 
5.556

>  <smina_score_min>  (1718) 
-6.347

>  <ref_pdb>  (1718) 
B0426a

>  <inspiration_score>  (1718) 
None

>  <inchikey>  (1718) 
MJEHGUCCYJRHMY-UHFFFAOYSA-N

>  <tags>  (1718) 
BulkDock Fragalysis export,openbind_d68ev3c_c2_elabs_scored,openbind_d68ev3c_c2_elabs_scored_4.5plus,openbind_d68ev3c_c2_elabs,openbind_d68ev3c_c2_elabs_scored_5plus,syndirella_product,openbind_d68ev3c_c2_elabs_scored_top80percent,syndirella_placed

>  <smiles>  (1718) 
CCn1cc(CNCCN2CCN(c3cccc(C(F)(F)F)c3)CC2)c(C)n1

>  <subsites>  (1718) 
None

>  <rmsd(smina/fragmenstein)>  (1718) 
0.396

>  <alias>  (1718) 
None

>  <energy_score>  (1718) 
-48.012204

>  <HIPPO Pose ID>  (1718) 
131818

>  <distance_score>  (1718) 
0.67683

>  <HIPPO Compound ID>  (1718) 
157829

>  <gnina_score_min>  (1718) 
5.616

>  <name>  (1718) 
P131818

>  <exports>  (1718) 
['/opt/xchem-fragalysis-2/maxwin/BulkDock/OUTPUTS/openbind_d68ev3c_c2_elabs_1LOTQJ3.sdf', '/opt/xchem-fragalysis-2/maxwin/BulkDock/OUTPUTS/openbind_d68ev3c_c2_elabs_1LSYI5W.sdf']

$$$$
P131819
     RDKit          3D

 28 30  0  0  0  0  0  0  0  0999 V2000
   -3.2973   -0.7939    5.8927 F   0  0  0  0  0  0  0  0  0  0  0  0
   -4.0114   -0.5799    7.0337 C   0  0  0  0  0  0  0  0  0  0  0  0
   -3.3127   -1.1881    8.0297 F   0  0  0  0  0  0  0  0  0  0  0  0
   -3.9217    0.7581    7.2753 F   0  0  0  0  0  0  0  0  0  0  0  0
   -5.4198   -1.0847    6.9155 C   0  0  0  0  0  0  0  0  0  0  0  0
   -5.6655   -2.3205    6.3069 C   0  0  0  0  0  0  0  0  0  0  0  0
   -6.9599   -2.8174    6.2417 C   0  0  0  0  0  0  0  0  0  0  0  0
   -8.0153   -2.0817    6.7863 C   0  0  0  0  0  0  0  0  0  0  0  0
   -7.8126   -0.8332    7.3978 C   0  0  0  0  0  0  0  0  0  0  0  0
   -8.8304   -0.1149    8.0264 N   0  0  0  0  0  0  0  0  0  0  0  0
   -9.0750    1.2705    7.5957 C   0  0  0  0  0  0  0  0  0  0  0  0
   -9.9506    2.0159    8.6370 C   0  0  0  0  0  0  0  0  0  0  0  0
  -11.2104    1.3562    9.0505 N   0  0  0  0  0  0  0  0  0  0  0  0
  -12.2736    1.4658    8.0406 C   0  0  0  0  0  0  0  0  0  0  0  0
  -13.7131    1.3978    8.6223 C   0  0  0  0  0  0  0  0  0  0  0  0
  -14.1490    0.0582    9.0268 N   0  0  0  0  0  0  0  0  0  0  0  0
  -15.3629    0.0692    9.8410 C   0  0  0  0  0  0  0  0  0  0  0  0
  -15.0613    0.5315   11.2232 C   0  0  0  0  0  0  0  0  0  0  0  0
  -15.9775    0.9323   12.2261 C   0  0  0  0  0  0  0  0  0  0  0  0
  -15.3734    1.4212   13.3157 N   0  0  0  0  0  0  0  0  0  0  0  0
  -14.0712    1.4126   12.9657 N   0  0  0  0  0  0  0  0  0  0  0  0
  -13.0945    2.1946   13.6977 C   0  0  0  0  0  0  0  0  0  0  0  0
  -12.3575    3.1930   12.8074 C   0  0  0  0  0  0  0  0  0  0  0  0
  -13.4308    4.4813   12.1949 Cl  0  0  0  0  0  0  0  0  0  0  0  0
  -13.8320    0.7154   11.8228 C   0  0  0  0  0  0  0  0  0  0  0  0
  -10.9014   -0.0516    9.3952 C   0  0  0  0  0  0  0  0  0  0  0  0
  -10.0647   -0.8401    8.3660 C   0  0  0  0  0  0  0  0  0  0  0  0
   -6.4960   -0.3548    7.4472 C   0  0  0  0  0  0  0  0  0  0  0  0
  1  2  1  0
  2  3  1  0
  2  4  1  0
  2  5  1  0
  5  6  2  0
  6  7  1  0
  7  8  2  0
  8  9  1  0
  9 10  1  0
 10 11  1  0
 11 12  1  0
 12 13  1  0
 13 14  1  0
 14 15  1  0
 15 16  1  0
 16 17  1  0
 17 18  1  0
 18 19  1  0
 19 20  2  0
 20 21  1  0
 21 22  1  0
 22 23  1  0
 23 24  1  0
 21 25  1  0
 13 26  1  0
 26 27  1  0
  9 28  2  0
 28  5  1  0
 27 10  1  0
 25 18  2  0
M  END
>  <ref_mols>  (1719) 
B0426a

>  <gnina_score>  (1719) 
5.717

>  <smina_score_min>  (1719) 
-5.518

>  <ref_pdb>  (1719) 
B0426a

>  <inspiration_score>  (1719) 
None

>  <inchikey>  (1719) 
PBOFUMKLXOVCHV-UHFFFAOYSA-N

>  <tags>  (1719) 
BulkDock Fragalysis export,openbind_d68ev3c_c2_elabs_scored,openbind_d68ev3c_c2_elabs_scored_4.5plus,openbind_d68ev3c_c2_elabs,openbind_d68ev3c_c2_elabs_scored_5plus,syndirella_product,openbind_d68ev3c_c2_elabs_scored_top80percent,syndirella_placed

>  <smiles>  (1719) 
FC(F)(F)c1cccc(N2CCN(CCNCc3cnn(CCCl)c3)CC2)c1

>  <subsites>  (1719) 
None

>  <rmsd(smina/fragmenstein)>  (1719) 
0.992

>  <alias>  (1719) 
None

>  <energy_score>  (1719) 
-50.724148

>  <HIPPO Pose ID>  (1719) 
131819

>  <distance_score>  (1719) 
0.625133

>  <HIPPO Compound ID>  (1719) 
157830

>  <gnina_score_min>  (1719) 
5.628

>  <name>  (1719) 
P131819

>  <exports>  (1719) 
['/opt/xchem-fragalysis-2/maxwin/BulkDock/OUTPUTS/openbind_d68ev3c_c2_elabs_1LOTQJ3.sdf', '/opt/xchem-fragalysis-2/maxwin/BulkDock/OUTPUTS/openbind_d68ev3c_c2_elabs_1LSYI5W.sdf']

$$$$
P131820
     RDKit          3D

 28 30  0  0  0  0  0  0  0  0999 V2000
   -8.1135    4.5925    8.0291 C   0  0  0  0  0  0  0  0  0  0  0  0
   -9.0760    4.1541    6.9388 C   0  0  0  0  0  0  0  0  0  0  0  0
  -10.2652    3.3368    7.4599 C   0  0  0  0  0  0  0  0  0  0  0  0
   -9.9461    2.0082    8.2043 C   0  0  2  0  0  0  0  0  0  0  0  0
   -8.9451    1.1592    7.3437 C   0  0  0  0  0  0  0  0  0  0  0  0
   -8.7229   -0.1808    7.9164 N   0  0  0  0  0  0  0  0  0  0  0  0
   -7.6828   -0.9216    7.3404 C   0  0  0  0  0  0  0  0  0  0  0  0
   -7.8684   -2.1589    6.7015 C   0  0  0  0  0  0  0  0  0  0  0  0
   -6.7949   -2.8884    6.1886 C   0  0  0  0  0  0  0  0  0  0  0  0
   -5.5049   -2.3924    6.3102 C   0  0  0  0  0  0  0  0  0  0  0  0
   -5.2808   -1.1690    6.9508 C   0  0  0  0  0  0  0  0  0  0  0  0
   -3.8823   -0.6566    7.1040 C   0  0  0  0  0  0  0  0  0  0  0  0
   -3.1864   -1.2882    8.0857 F   0  0  0  0  0  0  0  0  0  0  0  0
   -3.8051    0.6751    7.3813 F   0  0  0  0  0  0  0  0  0  0  0  0
   -3.1634   -0.8334    5.9611 F   0  0  0  0  0  0  0  0  0  0  0  0
   -6.3700   -0.4498    7.4594 C   0  0  0  0  0  0  0  0  0  0  0  0
   -9.9841   -0.8989    8.1318 C   0  0  0  0  0  0  0  0  0  0  0  0
  -10.9003   -0.0768    9.0407 C   0  0  0  0  0  0  0  0  0  0  0  0
  -11.2216    1.2758    8.5061 N   0  0  0  0  0  0  0  0  0  0  0  0
  -12.0672    1.9917    9.4795 C   0  0  0  0  0  0  0  0  0  0  0  0
  -13.3777    1.2963    9.6445 C   0  0  0  0  0  0  0  0  0  0  0  0
  -13.9110    0.7142   10.8166 C   0  0  0  0  0  0  0  0  0  0  0  0
  -15.1119    0.1644   10.6181 N   0  0  0  0  0  0  0  0  0  0  0  0
  -15.3327    0.3567    9.3005 N   0  0  0  0  0  0  0  0  0  0  0  0
  -16.5992   -0.0392    8.7207 C   0  0  0  0  0  0  0  0  0  0  0  0
  -16.4864   -0.6213    7.3219 C   0  0  0  0  0  0  0  0  0  0  0  0
  -18.0864   -1.2003    6.7734 Cl  0  0  0  0  0  0  0  0  0  0  0  0
  -14.3442    1.0647    8.6880 C   0  0  0  0  0  0  0  0  0  0  0  0
  1  2  1  0
  2  3  1  0
  4  3  1  6
  4  5  1  0
  5  6  1  0
  6  7  1  0
  7  8  2  0
  8  9  1  0
  9 10  2  0
 10 11  1  0
 11 12  1  0
 12 13  1  0
 12 14  1  0
 12 15  1  0
 11 16  2  0
  6 17  1  0
 17 18  1  0
 18 19  1  0
 19 20  1  0
 20 21  1  0
 21 22  1  0
 22 23  2  0
 23 24  1  0
 24 25  1  0
 25 26  1  0
 26 27  1  0
 24 28  1  0
 19  4  1  0
 28 21  2  0
 16  7  1  0
M  END
>  <ref_mols>  (1720) 
B0426a

>  <gnina_score>  (1720) 
5.779

>  <smina_score_min>  (1720) 
-5.285

>  <ref_pdb>  (1720) 
B0426a

>  <inspiration_score>  (1720) 
None

>  <inchikey>  (1720) 
SMQHTUNUMREQJW-LJQANCHMSA-N

>  <tags>  (1720) 
BulkDock Fragalysis export,openbind_d68ev3c_c2_elabs_scored,openbind_d68ev3c_c2_elabs_scored_4.5plus,openbind_d68ev3c_c2_elabs,openbind_d68ev3c_c2_elabs_scored_5plus,syndirella_product,openbind_d68ev3c_c2_elabs_scored_top80percent,syndirella_placed

>  <smiles>  (1720) 
CCC[C@@H]1CN(c2cccc(C(F)(F)F)c2)CCN1Cc1cnn(CCCl)c1

>  <subsites>  (1720) 
None

>  <rmsd(smina/fragmenstein)>  (1720) 
0.897

>  <alias>  (1720) 
None

>  <energy_score>  (1720) 
-50.322964

>  <HIPPO Pose ID>  (1720) 
131820

>  <distance_score>  (1720) 
0.495844

>  <HIPPO Compound ID>  (1720) 
157831

>  <gnina_score_min>  (1720) 
5.928

>  <name>  (1720) 
P131820

>  <exports>  (1720) 
['/opt/xchem-fragalysis-2/maxwin/BulkDock/OUTPUTS/openbind_d68ev3c_c2_elabs_1LOTQJ3.sdf', '/opt/xchem-fragalysis-2/maxwin/BulkDock/OUTPUTS/openbind_d68ev3c_c2_elabs_1LSYI5W.sdf']

$$$$
P131822
     RDKit          3D

 28 30  0  0  0  0  0  0  0  0999 V2000
  -19.1822    0.4918   11.2881 C   0  0  0  0  0  0  0  0  0  0  0  0
  -18.1684    1.6130   11.1210 C   0  0  0  0  0  0  0  0  0  0  0  0
  -16.8941    1.3156   11.8403 C   0  0  0  0  0  0  0  0  0  0  0  0
  -15.7479    0.6572   11.4126 C   0  0  0  0  0  0  0  0  0  0  0  0
  -15.4794    0.0354   10.0879 C   0  0  0  0  0  0  0  0  0  0  0  0
  -14.7563    0.9785    9.2421 N   0  0  0  0  0  0  0  0  0  0  0  0
  -13.3055    0.8362    9.4062 C   0  0  0  0  0  0  0  0  0  0  0  0
  -12.5552    1.7690    8.4333 C   0  0  0  0  0  0  0  0  0  0  0  0
  -11.2247    1.3400    7.9862 N   0  0  0  0  0  0  0  0  0  0  0  0
  -11.2963    0.0687    7.2327 C   0  0  0  0  0  0  0  0  0  0  0  0
   -9.9325   -0.3533    6.6667 C   0  0  0  0  0  0  0  0  0  0  0  0
   -8.9269   -0.4478    7.7478 N   0  0  0  0  0  0  0  0  0  0  0  0
   -7.7560   -1.1048    7.3607 C   0  0  0  0  0  0  0  0  0  0  0  0
   -7.8351   -2.4093    6.8408 C   0  0  0  0  0  0  0  0  0  0  0  0
   -6.7091   -3.0948    6.3909 C   0  0  0  0  0  0  0  0  0  0  0  0
   -5.4617   -2.4947    6.4831 C   0  0  0  0  0  0  0  0  0  0  0  0
   -5.3339   -1.2172    7.0404 C   0  0  0  0  0  0  0  0  0  0  0  0
   -3.9709   -0.6033    7.1627 C   0  0  0  0  0  0  0  0  0  0  0  0
   -3.2160   -1.1774    8.1371 F   0  0  0  0  0  0  0  0  0  0  0  0
   -3.9823    0.7320    7.4333 F   0  0  0  0  0  0  0  0  0  0  0  0
   -3.2565   -0.7376    6.0103 F   0  0  0  0  0  0  0  0  0  0  0  0
   -6.4818   -0.5377    7.4783 C   0  0  0  0  0  0  0  0  0  0  0  0
   -8.8476    0.7865    8.5557 C   0  0  0  0  0  0  0  0  0  0  0  0
  -10.2475    1.1939    9.0830 C   0  0  0  0  0  0  0  0  0  0  0  0
  -14.8797    0.7188   12.5247 C   0  0  0  0  0  0  0  0  0  0  0  0
  -15.4452    1.2951   13.5877 N   0  0  0  0  0  0  0  0  0  0  0  0
  -16.6456    1.6932   13.1364 N   0  0  0  0  0  0  0  0  0  0  0  0
  -17.5089    2.4458   14.0166 C   0  0  0  0  0  0  0  0  0  0  0  0
  1  2  1  0
  2  3  1  0
  3  4  2  0
  4  5  1  0
  5  6  1  0
  6  7  1  0
  7  8  1  0
  8  9  1  0
  9 10  1  0
 10 11  1  0
 11 12  1  0
 12 13  1  0
 13 14  2  0
 14 15  1  0
 15 16  2  0
 16 17  1  0
 17 18  1  0
 18 19  1  0
 18 20  1  0
 18 21  1  0
 17 22  2  0
 12 23  1  0
 23 24  1  0
  4 25  1  0
 25 26  2  0
 26 27  1  0
 27 28  1  0
 27  3  1  0
 24  9  1  0
 22 13  1  0
M  END
>  <ref_mols>  (1721) 
B0426a

>  <gnina_score>  (1721) 
5.451

>  <smina_score_min>  (1721) 
-6.461

>  <ref_pdb>  (1721) 
B0426a

>  <inspiration_score>  (1721) 
None

>  <inchikey>  (1721) 
GONWFFBPZPXRNK-UHFFFAOYSA-N

>  <tags>  (1721) 
BulkDock Fragalysis export,openbind_d68ev3c_c2_elabs_scored,openbind_d68ev3c_c2_elabs_scored_4.5plus,openbind_d68ev3c_c2_elabs,openbind_d68ev3c_c2_elabs_scored_5plus,syndirella_product,openbind_d68ev3c_c2_elabs_scored_top80percent,syndirella_placed

>  <smiles>  (1721) 
CCc1c(CNCCN2CCN(c3cccc(C(F)(F)F)c3)CC2)cnn1C

>  <subsites>  (1721) 
None

>  <rmsd(smina/fragmenstein)>  (1721) 
1.125

>  <alias>  (1721) 
None

>  <energy_score>  (1721) 
-66.178727

>  <HIPPO Pose ID>  (1721) 
131822

>  <distance_score>  (1721) 
0.712263

>  <HIPPO Compound ID>  (1721) 
157833

>  <gnina_score_min>  (1721) 
5.537

>  <name>  (1721) 
P131822

>  <exports>  (1721) 
['/opt/xchem-fragalysis-2/maxwin/BulkDock/OUTPUTS/openbind_d68ev3c_c2_elabs_1LOTQJ3.sdf', '/opt/xchem-fragalysis-2/maxwin/BulkDock/OUTPUTS/openbind_d68ev3c_c2_elabs_1LSYI5W.sdf']

$$$$
P131823
     RDKit          3D

 28 30  0  0  0  0  0  0  0  0999 V2000
  -11.3851    3.6695    6.3624 C   0  0  0  0  0  0  0  0  0  0  0  0
  -10.0309    3.9824    6.9702 C   0  0  0  0  0  0  0  0  0  0  0  0
   -9.8061    3.4338    8.3848 C   0  0  0  0  0  0  0  0  0  0  0  0
   -9.8682    1.8951    8.5931 C   0  0  2  0  0  0  0  0  0  0  0  0
   -8.8365    1.2083    7.6378 C   0  0  0  0  0  0  0  0  0  0  0  0
   -8.7914   -0.2507    7.8584 N   0  0  0  0  0  0  0  0  0  0  0  0
   -7.7191   -0.9546    7.2980 C   0  0  0  0  0  0  0  0  0  0  0  0
   -7.8722   -2.1589    6.5880 C   0  0  0  0  0  0  0  0  0  0  0  0
   -6.7808   -2.8674    6.0799 C   0  0  0  0  0  0  0  0  0  0  0  0
   -5.4963   -2.3811    6.2649 C   0  0  0  0  0  0  0  0  0  0  0  0
   -5.2967   -1.1935    6.9738 C   0  0  0  0  0  0  0  0  0  0  0  0
   -3.9061   -0.6761    7.1810 C   0  0  0  0  0  0  0  0  0  0  0  0
   -3.1466   -0.8321    6.0614 F   0  0  0  0  0  0  0  0  0  0  0  0
   -3.2394   -1.3156    8.1770 F   0  0  0  0  0  0  0  0  0  0  0  0
   -3.8479    0.6527    7.4773 F   0  0  0  0  0  0  0  0  0  0  0  0
   -6.4047   -0.5086    7.4958 C   0  0  0  0  0  0  0  0  0  0  0  0
  -10.1333   -0.8486    7.7360 C   0  0  0  0  0  0  0  0  0  0  0  0
  -11.1200   -0.1724    8.7015 C   0  0  0  0  0  0  0  0  0  0  0  0
  -11.2416    1.3006    8.5059 N   0  0  0  0  0  0  0  0  0  0  0  0
  -12.1320    1.8886    9.5286 C   0  0  0  0  0  0  0  0  0  0  0  0
  -13.4468    1.1888    9.6665 C   0  0  0  0  0  0  0  0  0  0  0  0
  -13.9542    0.6158   10.8567 C   0  0  0  0  0  0  0  0  0  0  0  0
  -15.1643    0.0792   10.7027 N   0  0  0  0  0  0  0  0  0  0  0  0
  -15.4361    0.2885    9.3982 N   0  0  0  0  0  0  0  0  0  0  0  0
  -16.7138   -0.1210    8.8675 C   0  0  0  0  0  0  0  0  0  0  0  0
  -14.4435    0.9611    8.7290 C   0  0  0  0  0  0  0  0  0  0  0  0
  -14.5140    1.3062    7.2772 C   0  0  0  0  0  0  0  0  0  0  0  0
  -15.1064    2.6894    7.0559 C   0  0  0  0  0  0  0  0  0  0  0  0
  1  2  1  0
  2  3  1  0
  4  3  1  6
  4  5  1  0
  5  6  1  0
  6  7  1  0
  7  8  2  0
  8  9  1  0
  9 10  2  0
 10 11  1  0
 11 12  1  0
 12 13  1  0
 12 14  1  0
 12 15  1  0
 11 16  2  0
  6 17  1  0
 17 18  1  0
 18 19  1  0
 19 20  1  0
 20 21  1  0
 21 22  1  0
 22 23  2  0
 23 24  1  0
 24 25  1  0
 24 26  1  0
 26 27  1  0
 27 28  1  0
 19  4  1  0
 26 21  2  0
 16  7  1  0
M  END
>  <ref_mols>  (1722) 
B0426a

>  <gnina_score>  (1722) 
5.851

>  <smina_score_min>  (1722) 
-5.529

>  <ref_pdb>  (1722) 
B0426a

>  <inspiration_score>  (1722) 
None

>  <inchikey>  (1722) 
MMKCODBOTAGUQV-LJQANCHMSA-N

>  <tags>  (1722) 
BulkDock Fragalysis export,openbind_d68ev3c_c2_elabs_scored,openbind_d68ev3c_c2_elabs_scored_4.5plus,openbind_d68ev3c_c2_elabs,openbind_d68ev3c_c2_elabs_scored_5plus,syndirella_product,openbind_d68ev3c_c2_elabs_scored_top80percent,syndirella_placed

>  <smiles>  (1722) 
CCC[C@@H]1CN(c2cccc(C(F)(F)F)c2)CCN1Cc1cnn(C)c1CC

>  <subsites>  (1722) 
None

>  <rmsd(smina/fragmenstein)>  (1722) 
1.18

>  <alias>  (1722) 
None

>  <energy_score>  (1722) 
-45.0432

>  <HIPPO Pose ID>  (1722) 
131823

>  <distance_score>  (1722) 
0.377395

>  <HIPPO Compound ID>  (1722) 
157834

>  <gnina_score_min>  (1722) 
5.947

>  <name>  (1722) 
P131823

>  <exports>  (1722) 
['/opt/xchem-fragalysis-2/maxwin/BulkDock/OUTPUTS/openbind_d68ev3c_c2_elabs_1LOTQJ3.sdf', '/opt/xchem-fragalysis-2/maxwin/BulkDock/OUTPUTS/openbind_d68ev3c_c2_elabs_1LSYI5W.sdf']

$$$$
P131825
     RDKit          3D

 28 30  0  0  0  0  0  0  0  0999 V2000
  -13.4530    1.7790   14.5755 C   0  0  0  0  0  0  0  0  0  0  0  0
  -13.6490    1.1334   13.3049 N   0  0  0  0  0  0  0  0  0  0  0  0
  -12.6171    0.4874   12.7447 N   0  0  0  0  0  0  0  0  0  0  0  0
  -13.0759    0.1562   11.5420 C   0  0  0  0  0  0  0  0  0  0  0  0
  -14.4160    0.5693   11.3174 C   0  0  0  0  0  0  0  0  0  0  0  0
  -15.1894    0.4830   10.0444 C   0  0  2  0  0  0  0  0  0  0  0  0
  -15.9241   -0.7128    9.9802 O   0  0  0  0  0  0  0  0  0  0  0  0
  -14.3159    0.5673    8.8875 N   0  0  0  0  0  0  0  0  0  0  0  0
  -13.5603    1.8309    8.8707 C   0  0  0  0  0  0  0  0  0  0  0  0
  -12.6015    1.9929    7.6797 C   0  0  0  0  0  0  0  0  0  0  0  0
  -11.3636    1.2238    7.5939 N   0  0  0  0  0  0  0  0  0  0  0  0
  -10.3533    1.4807    8.6269 C   0  0  0  0  0  0  0  0  0  0  0  0
   -8.9839    0.8759    8.2145 C   0  0  0  0  0  0  0  0  0  0  0  0
   -9.0561   -0.5544    7.8166 N   0  0  0  0  0  0  0  0  0  0  0  0
   -7.8635   -1.1856    7.3984 C   0  0  0  0  0  0  0  0  0  0  0  0
   -7.8780   -2.4950    6.8790 C   0  0  0  0  0  0  0  0  0  0  0  0
   -6.7279   -3.1291    6.4063 C   0  0  0  0  0  0  0  0  0  0  0  0
   -5.5054   -2.4824    6.4809 C   0  0  0  0  0  0  0  0  0  0  0  0
   -5.4251   -1.2072    7.0464 C   0  0  0  0  0  0  0  0  0  0  0  0
   -4.0816   -0.5473    7.1661 C   0  0  0  0  0  0  0  0  0  0  0  0
   -4.1353    0.7895    7.4212 F   0  0  0  0  0  0  0  0  0  0  0  0
   -3.3520   -0.6715    6.0205 F   0  0  0  0  0  0  0  0  0  0  0  0
   -3.3138   -1.0868    8.1510 F   0  0  0  0  0  0  0  0  0  0  0  0
   -6.5995   -0.5791    7.5050 C   0  0  0  0  0  0  0  0  0  0  0  0
  -10.2406   -0.8916    6.9785 C   0  0  0  0  0  0  0  0  0  0  0  0
  -11.5347   -0.2249    7.4701 C   0  0  0  0  0  0  0  0  0  0  0  0
  -14.7709    1.1451   12.5243 C   0  0  0  0  0  0  0  0  0  0  0  0
  -16.6300    1.9406   13.0323 I   0  0  0  0  0  0  0  0  0  0  0  0
  1  2  1  0
  2  3  1  0
  3  4  2  0
  4  5  1  0
  5  6  1  0
  6  7  1  1
  6  8  1  0
  8  9  1  0
  9 10  1  0
 10 11  1  0
 11 12  1  0
 12 13  1  0
 13 14  1  0
 14 15  1  0
 15 16  2  0
 16 17  1  0
 17 18  2  0
 18 19  1  0
 19 20  1  0
 20 21  1  0
 20 22  1  0
 20 23  1  0
 19 24  2  0
 14 25  1  0
 25 26  1  0
  5 27  2  0
 27 28  1  0
 27  2  1  0
 26 11  1  0
 24 15  1  0
M  END
>  <ref_mols>  (1723) 
B0426a

>  <gnina_score>  (1723) 
5.841

>  <smina_score_min>  (1723) 
-6.129

>  <ref_pdb>  (1723) 
B0426a

>  <inspiration_score>  (1723) 
None

>  <inchikey>  (1723) 
KOWRTGAMOQMFID-KRWDZBQOSA-N

>  <tags>  (1723) 
BulkDock Fragalysis export,openbind_d68ev3c_c2_elabs_scored,openbind_d68ev3c_c2_elabs_scored_4.5plus,openbind_d68ev3c_c2_elabs,openbind_d68ev3c_c2_elabs_scored_5plus,syndirella_product,openbind_d68ev3c_c2_elabs_scored_top80percent,syndirella_placed

>  <smiles>  (1723) 
Cn1ncc([C@H](O)NCCN2CCN(c3cccc(C(F)(F)F)c3)CC2)c1I

>  <subsites>  (1723) 
None

>  <rmsd(smina/fragmenstein)>  (1723) 
0.748

>  <alias>  (1723) 
None

>  <energy_score>  (1723) 
-31.07558

>  <HIPPO Pose ID>  (1723) 
131825

>  <distance_score>  (1723) 
0.613701

>  <HIPPO Compound ID>  (1723) 
157835

>  <gnina_score_min>  (1723) 
5.783

>  <name>  (1723) 
P131825

>  <exports>  (1723) 
['/opt/xchem-fragalysis-2/maxwin/BulkDock/OUTPUTS/openbind_d68ev3c_c2_elabs_1LOTQJ3.sdf', '/opt/xchem-fragalysis-2/maxwin/BulkDock/OUTPUTS/openbind_d68ev3c_c2_elabs_1LSYI5W.sdf']

$$$$
P131828
     RDKit          3D

 28 30  0  0  0  0  0  0  0  0999 V2000
  -13.0967    1.3379   14.3329 C   0  0  0  0  0  0  0  0  0  0  0  0
  -14.0675    0.9806   13.3283 N   0  0  0  0  0  0  0  0  0  0  0  0
  -13.7977    0.6093   12.0444 C   0  0  0  0  0  0  0  0  0  0  0  0
  -15.0174    0.5306   11.3889 C   0  0  0  0  0  0  0  0  0  0  0  0
  -15.3251    0.2980    9.9420 C   0  0  1  0  0  0  0  0  0  0  0  0
  -16.3202    1.1851    9.4564 O   0  0  0  0  0  0  0  0  0  0  0  0
  -14.1522    0.4122    9.0929 N   0  0  0  0  0  0  0  0  0  0  0  0
  -13.5065    1.7269    9.1169 C   0  0  0  0  0  0  0  0  0  0  0  0
  -12.5782    1.9984    7.9186 C   0  0  0  0  0  0  0  0  0  0  0  0
  -11.3317    1.2563    7.7382 N   0  0  0  0  0  0  0  0  0  0  0  0
  -10.3116    1.4405    8.7758 C   0  0  0  0  0  0  0  0  0  0  0  0
   -8.9491    0.8598    8.3123 C   0  0  0  0  0  0  0  0  0  0  0  0
   -9.0383   -0.5496    7.8535 N   0  0  0  0  0  0  0  0  0  0  0  0
   -7.8527   -1.1817    7.4205 C   0  0  0  0  0  0  0  0  0  0  0  0
   -7.8802   -2.4929    6.9077 C   0  0  0  0  0  0  0  0  0  0  0  0
   -6.7386   -3.1313    6.4207 C   0  0  0  0  0  0  0  0  0  0  0  0
   -5.5128   -2.4875    6.4769 C   0  0  0  0  0  0  0  0  0  0  0  0
   -5.4206   -1.2108    7.0371 C   0  0  0  0  0  0  0  0  0  0  0  0
   -4.0740   -0.5540    7.1432 C   0  0  0  0  0  0  0  0  0  0  0  0
   -3.3536   -0.6828    5.9930 F   0  0  0  0  0  0  0  0  0  0  0  0
   -3.3016   -1.0914    8.1256 F   0  0  0  0  0  0  0  0  0  0  0  0
   -4.1248    0.7836    7.3955 F   0  0  0  0  0  0  0  0  0  0  0  0
   -6.5869   -0.5769    7.5065 C   0  0  0  0  0  0  0  0  0  0  0  0
  -10.2102   -0.8153    6.9741 C   0  0  0  0  0  0  0  0  0  0  0  0
  -11.5049   -0.1806    7.5081 C   0  0  0  0  0  0  0  0  0  0  0  0
  -15.9510    0.7174   12.4417 C   0  0  0  0  0  0  0  0  0  0  0  0
  -17.6422    0.6323   12.3236 Cl  0  0  0  0  0  0  0  0  0  0  0  0
  -15.3783    0.9792   13.6189 N   0  0  0  0  0  0  0  0  0  0  0  0
  1  2  1  0
  2  3  1  0
  3  4  2  0
  4  5  1  0
  5  6  1  6
  5  7  1  0
  7  8  1  0
  8  9  1  0
  9 10  1  0
 10 11  1  0
 11 12  1  0
 12 13  1  0
 13 14  1  0
 14 15  2  0
 15 16  1  0
 16 17  2  0
 17 18  1  0
 18 19  1  0
 19 20  1  0
 19 21  1  0
 19 22  1  0
 18 23  2  0
 13 24  1  0
 24 25  1  0
  4 26  1  0
 26 27  1  0
 26 28  2  0
 28  2  1  0
 25 10  1  0
 23 14  1  0
M  END
>  <ref_mols>  (1724) 
B0426a

>  <gnina_score>  (1724) 
5.58

>  <smina_score_min>  (1724) 
-6.043

>  <ref_pdb>  (1724) 
B0426a

>  <inspiration_score>  (1724) 
None

>  <inchikey>  (1724) 
JMPDGZUOHDTUBR-QGZVFWFLSA-N

>  <tags>  (1724) 
BulkDock Fragalysis export,openbind_d68ev3c_c2_elabs_scored,openbind_d68ev3c_c2_elabs_scored_4.5plus,openbind_d68ev3c_c2_elabs,openbind_d68ev3c_c2_elabs_scored_5plus,syndirella_product,openbind_d68ev3c_c2_elabs_scored_top80percent,syndirella_placed

>  <smiles>  (1724) 
Cn1cc([C@@H](O)NCCN2CCN(c3cccc(C(F)(F)F)c3)CC2)c(Cl)n1

>  <subsites>  (1724) 
None

>  <rmsd(smina/fragmenstein)>  (1724) 
0.66

>  <alias>  (1724) 
None

>  <energy_score>  (1724) 
-39.262507

>  <HIPPO Pose ID>  (1724) 
131828

>  <distance_score>  (1724) 
0.575222

>  <HIPPO Compound ID>  (1724) 
157836

>  <gnina_score_min>  (1724) 
5.66

>  <name>  (1724) 
P131828

>  <exports>  (1724) 
['/opt/xchem-fragalysis-2/maxwin/BulkDock/OUTPUTS/openbind_d68ev3c_c2_elabs_1LOTQJ3.sdf', '/opt/xchem-fragalysis-2/maxwin/BulkDock/OUTPUTS/openbind_d68ev3c_c2_elabs_1LSYI5W.sdf']

$$$$
P131831
     RDKit          3D

 28 30  0  0  0  0  0  0  0  0999 V2000
   -9.9275    5.9524    8.6002 C   0  0  0  0  0  0  0  0  0  0  0  0
   -9.9261    4.5287    9.1375 C   0  0  0  0  0  0  0  0  0  0  0  0
   -9.8337    3.5056    7.9996 C   0  0  0  0  0  0  0  0  0  0  0  0
   -9.8865    2.0192    8.4645 C   0  0  2  0  0  0  0  0  0  0  0  0
   -8.8351    1.2518    7.5848 C   0  0  0  0  0  0  0  0  0  0  0  0
   -8.7666   -0.1805    7.9223 N   0  0  0  0  0  0  0  0  0  0  0  0
   -7.7088   -0.9107    7.3589 C   0  0  0  0  0  0  0  0  0  0  0  0
   -7.8833   -2.1377    6.6926 C   0  0  0  0  0  0  0  0  0  0  0  0
   -6.8067   -2.8639    6.1781 C   0  0  0  0  0  0  0  0  0  0  0  0
   -5.5167   -2.3769    6.3201 C   0  0  0  0  0  0  0  0  0  0  0  0
   -5.2965   -1.1698    6.9898 C   0  0  0  0  0  0  0  0  0  0  0  0
   -3.8976   -0.6599    7.1602 C   0  0  0  0  0  0  0  0  0  0  0  0
   -3.8243    0.6709    7.4421 F   0  0  0  0  0  0  0  0  0  0  0  0
   -3.1644   -0.8329    6.0259 F   0  0  0  0  0  0  0  0  0  0  0  0
   -3.2148   -1.2947    8.1484 F   0  0  0  0  0  0  0  0  0  0  0  0
   -6.3900   -0.4609    7.5105 C   0  0  0  0  0  0  0  0  0  0  0  0
  -10.0883   -0.8157    7.9013 C   0  0  0  0  0  0  0  0  0  0  0  0
  -11.0800   -0.0542    8.7921 C   0  0  0  0  0  0  0  0  0  0  0  0
  -11.2558    1.3759    8.4023 N   0  0  0  0  0  0  0  0  0  0  0  0
  -12.2199    2.0561    9.2793 C   0  0  1  0  0  0  0  0  0  0  0  0
  -12.6623    3.2146    8.5904 O   0  0  0  0  0  0  0  0  0  0  0  0
  -13.4392    1.2455    9.5888 C   0  0  0  0  0  0  0  0  0  0  0  0
  -14.4888    0.9084    8.7504 C   0  0  0  0  0  0  0  0  0  0  0  0
  -15.3981    0.2494    9.5206 N   0  0  0  0  0  0  0  0  0  0  0  0
  -16.7258   -0.1321    9.1106 C   0  0  0  0  0  0  0  0  0  0  0  0
  -14.9999    0.0682   10.7916 N   0  0  0  0  0  0  0  0  0  0  0  0
  -13.8193    0.6922   10.8348 C   0  0  0  0  0  0  0  0  0  0  0  0
  -12.9514    0.7657   12.2894 Cl  0  0  0  0  0  0  0  0  0  0  0  0
  1  2  1  0
  2  3  1  0
  4  3  1  6
  4  5  1  0
  5  6  1  0
  6  7  1  0
  7  8  2  0
  8  9  1  0
  9 10  2  0
 10 11  1  0
 11 12  1  0
 12 13  1  0
 12 14  1  0
 12 15  1  0
 11 16  2  0
  6 17  1  0
 17 18  1  0
 18 19  1  0
 19 20  1  0
 20 21  1  6
 20 22  1  0
 22 23  2  0
 23 24  1  0
 24 25  1  0
 24 26  1  0
 26 27  2  0
 27 28  1  0
 19  4  1  0
 27 22  1  0
 16  7  1  0
M  END
>  <ref_mols>  (1725) 
B0426a

>  <gnina_score>  (1725) 
6.021

>  <smina_score_min>  (1725) 
-5.636

>  <ref_pdb>  (1725) 
B0426a

>  <inspiration_score>  (1725) 
None

>  <inchikey>  (1725) 
IFJJLKSKEJFNBH-QAPCUYQASA-N

>  <tags>  (1725) 
BulkDock Fragalysis export,openbind_d68ev3c_c2_elabs_scored,openbind_d68ev3c_c2_elabs_scored_4.5plus,openbind_d68ev3c_c2_elabs,openbind_d68ev3c_c2_elabs_scored_5plus,syndirella_product,openbind_d68ev3c_c2_elabs_scored_top80percent,syndirella_placed

>  <smiles>  (1725) 
CCC[C@@H]1CN(c2cccc(C(F)(F)F)c2)CCN1[C@@H](O)c1cn(C)nc1Cl

>  <subsites>  (1725) 
None

>  <rmsd(smina/fragmenstein)>  (1725) 
0.402

>  <alias>  (1725) 
None

>  <energy_score>  (1725) 
-48.944388

>  <HIPPO Pose ID>  (1725) 
131831

>  <distance_score>  (1725) 
0.368855

>  <HIPPO Compound ID>  (1725) 
157837

>  <gnina_score_min>  (1725) 
6.087

>  <name>  (1725) 
P131831

>  <exports>  (1725) 
['/opt/xchem-fragalysis-2/maxwin/BulkDock/OUTPUTS/openbind_d68ev3c_c2_elabs_1LOTQJ3.sdf', '/opt/xchem-fragalysis-2/maxwin/BulkDock/OUTPUTS/openbind_d68ev3c_c2_elabs_1LSYI5W.sdf']

$$$$
P131833
     RDKit          3D

 28 30  0  0  0  0  0  0  0  0999 V2000
  -15.2922   -1.4524    5.1119 C   0  0  0  0  0  0  0  0  0  0  0  0
  -15.9446   -1.0754    6.3432 N   0  0  0  0  0  0  0  0  0  0  0  0
  -15.4653   -0.1787    7.2568 C   0  0  0  0  0  0  0  0  0  0  0  0
  -16.3716   -0.1379    8.2996 C   0  0  0  0  0  0  0  0  0  0  0  0
  -16.3692    0.6535    9.5607 C   0  0  0  0  0  0  0  0  0  0  0  0
  -15.4740    0.0882   10.5768 N   0  0  0  0  0  0  0  0  0  0  0  0
  -14.2708    0.9013   10.8119 C   0  0  0  0  0  0  0  0  0  0  0  0
  -13.4327    1.0034    9.5477 C   0  0  0  0  0  0  0  0  0  0  0  0
  -11.9976    1.4625    9.7825 C   0  0  0  0  0  0  0  0  0  0  0  0
  -11.1178    1.1147    8.6450 N   0  0  0  0  0  0  0  0  0  0  0  0
  -11.0594   -0.3645    8.4957 C   0  0  0  0  0  0  0  0  0  0  0  0
  -10.0381   -0.8803    7.4801 C   0  0  0  0  0  0  0  0  0  0  0  0
   -8.6964   -0.3562    7.7763 N   0  0  0  0  0  0  0  0  0  0  0  0
   -7.6036   -1.0218    7.2272 C   0  0  0  0  0  0  0  0  0  0  0  0
   -7.7263   -2.2072    6.4760 C   0  0  0  0  0  0  0  0  0  0  0  0
   -6.6219   -2.8973    5.9746 C   0  0  0  0  0  0  0  0  0  0  0  0
   -5.3492   -2.4080    6.2035 C   0  0  0  0  0  0  0  0  0  0  0  0
   -5.1793   -1.2398    6.9493 C   0  0  0  0  0  0  0  0  0  0  0  0
   -3.8038   -0.7073    7.1915 C   0  0  0  0  0  0  0  0  0  0  0  0
   -3.1553   -1.3349    8.2051 F   0  0  0  0  0  0  0  0  0  0  0  0
   -3.7678    0.6236    7.4804 F   0  0  0  0  0  0  0  0  0  0  0  0
   -3.0233   -0.8622    6.0893 F   0  0  0  0  0  0  0  0  0  0  0  0
   -6.2997   -0.5782    7.4689 C   0  0  0  0  0  0  0  0  0  0  0  0
   -8.6938    1.1192    7.8898 C   0  0  0  0  0  0  0  0  0  0  0  0
   -9.7426    1.5907    8.9271 C   0  0  0  0  0  0  0  0  0  0  0  0
  -17.4080   -0.9808    7.8317 C   0  0  0  0  0  0  0  0  0  0  0  0
  -18.5651   -1.1602    8.4854 F   0  0  0  0  0  0  0  0  0  0  0  0
  -17.1497   -1.5848    6.6695 N   0  0  0  0  0  0  0  0  0  0  0  0
  1  2  1  0
  2  3  1  0
  3  4  2  0
  4  5  1  0
  5  6  1  0
  6  7  1  0
  7  8  1  0
  8  9  1  0
  9 10  1  0
 10 11  1  0
 11 12  1  0
 12 13  1  0
 13 14  1  0
 14 15  2  0
 15 16  1  0
 16 17  2  0
 17 18  1  0
 18 19  1  0
 19 20  1  0
 19 21  1  0
 19 22  1  0
 18 23  2  0
 13 24  1  0
 24 25  1  0
  4 26  1  0
 26 27  1  0
 26 28  2  0
 28  2  1  0
 25 10  1  0
 23 14  1  0
M  END
>  <ref_mols>  (1726) 
B0426a

>  <gnina_score>  (1726) 
5.464

>  <smina_score_min>  (1726) 
-6.127

>  <ref_pdb>  (1726) 
B0426a

>  <inspiration_score>  (1726) 
None

>  <inchikey>  (1726) 
XAVJSGFHCWWBMK-UHFFFAOYSA-N

>  <tags>  (1726) 
BulkDock Fragalysis export,openbind_d68ev3c_c2_elabs_scored,openbind_d68ev3c_c2_elabs_scored_4.5plus,openbind_d68ev3c_c2_elabs,openbind_d68ev3c_c2_elabs_scored_5plus,syndirella_product,openbind_d68ev3c_c2_elabs_scored_top80percent,syndirella_placed

>  <smiles>  (1726) 
Cn1cc(CNCCCN2CCN(c3cccc(C(F)(F)F)c3)CC2)c(F)n1

>  <subsites>  (1726) 
None

>  <rmsd(smina/fragmenstein)>  (1726) 
1.398

>  <alias>  (1726) 
None

>  <energy_score>  (1726) 
-35.367764

>  <HIPPO Pose ID>  (1726) 
131833

>  <distance_score>  (1726) 
0.66816

>  <HIPPO Compound ID>  (1726) 
157838

>  <gnina_score_min>  (1726) 
5.358

>  <name>  (1726) 
P131833

>  <exports>  (1726) 
['/opt/xchem-fragalysis-2/maxwin/BulkDock/OUTPUTS/openbind_d68ev3c_c2_elabs_1LOTQJ3.sdf', '/opt/xchem-fragalysis-2/maxwin/BulkDock/OUTPUTS/openbind_d68ev3c_c2_elabs_1LSYI5W.sdf']

$$$$
P131836
     RDKit          3D

 28 30  0  0  0  0  0  0  0  0999 V2000
   -8.0306    4.3233    6.4176 C   0  0  0  0  0  0  0  0  0  0  0  0
   -8.5593    4.2421    7.8432 C   0  0  0  0  0  0  0  0  0  0  0  0
   -9.9097    3.5176    7.9532 C   0  0  0  0  0  0  0  0  0  0  0  0
   -9.8710    2.0239    8.3962 C   0  0  2  0  0  0  0  0  0  0  0  0
   -8.8426    1.2370    7.5193 C   0  0  0  0  0  0  0  0  0  0  0  0
   -8.7625   -0.1846    7.9033 N   0  0  0  0  0  0  0  0  0  0  0  0
   -7.7068   -0.9220    7.3468 C   0  0  0  0  0  0  0  0  0  0  0  0
   -7.8830   -2.1506    6.6861 C   0  0  0  0  0  0  0  0  0  0  0  0
   -6.8058   -2.8782    6.1750 C   0  0  0  0  0  0  0  0  0  0  0  0
   -5.5154   -2.3904    6.3157 C   0  0  0  0  0  0  0  0  0  0  0  0
   -5.2945   -1.1815    6.9819 C   0  0  0  0  0  0  0  0  0  0  0  0
   -3.8963   -0.6701    7.1514 C   0  0  0  0  0  0  0  0  0  0  0  0
   -3.1649   -0.8379    6.0152 F   0  0  0  0  0  0  0  0  0  0  0  0
   -3.2108   -1.3077    8.1361 F   0  0  0  0  0  0  0  0  0  0  0  0
   -3.8238    0.6597    7.4386 F   0  0  0  0  0  0  0  0  0  0  0  0
   -6.3881   -0.4715    7.4990 C   0  0  0  0  0  0  0  0  0  0  0  0
  -10.0808   -0.8268    7.9179 C   0  0  0  0  0  0  0  0  0  0  0  0
  -11.0608   -0.0462    8.8054 C   0  0  0  0  0  0  0  0  0  0  0  0
  -11.2414    1.3726    8.3855 N   0  0  0  0  0  0  0  0  0  0  0  0
  -12.1877    2.0816    9.2626 C   0  0  1  0  0  0  0  0  0  0  0  0
  -12.6601    3.2111    8.5452 O   0  0  0  0  0  0  0  0  0  0  0  0
  -13.3919    1.2691    9.6455 C   0  0  0  0  0  0  0  0  0  0  0  0
  -14.4673    0.9100    8.8528 C   0  0  0  0  0  0  0  0  0  0  0  0
  -15.3457    0.2652    9.6654 N   0  0  0  0  0  0  0  0  0  0  0  0
  -16.6902   -0.1140    9.3155 C   0  0  0  0  0  0  0  0  0  0  0  0
  -14.8987    0.0992   10.9213 N   0  0  0  0  0  0  0  0  0  0  0  0
  -13.7202    0.7381   10.9291 C   0  0  0  0  0  0  0  0  0  0  0  0
  -12.9369    0.8184   12.1880 C   0  0  0  0  0  0  0  0  0  0  0  0
  1  2  1  0
  2  3  1  0
  4  3  1  6
  4  5  1  0
  5  6  1  0
  6  7  1  0
  7  8  2  0
  8  9  1  0
  9 10  2  0
 10 11  1  0
 11 12  1  0
 12 13  1  0
 12 14  1  0
 12 15  1  0
 11 16  2  0
  6 17  1  0
 17 18  1  0
 18 19  1  0
 19 20  1  0
 20 21  1  6
 20 22  1  0
 22 23  2  0
 23 24  1  0
 24 25  1  0
 24 26  1  0
 26 27  2  0
 27 28  1  0
 19  4  1  0
 27 22  1  0
 16  7  1  0
M  END
>  <ref_mols>  (1727) 
B0426a

>  <gnina_score>  (1727) 
5.778

>  <smina_score_min>  (1727) 
-5.781

>  <ref_pdb>  (1727) 
B0426a

>  <inspiration_score>  (1727) 
None

>  <inchikey>  (1727) 
UYCVZBKMSFBKBB-MJGOQNOKSA-N

>  <tags>  (1727) 
BulkDock Fragalysis export,openbind_d68ev3c_c2_elabs_scored,openbind_d68ev3c_c2_elabs_scored_4.5plus,openbind_d68ev3c_c2_elabs,openbind_d68ev3c_c2_elabs_scored_5plus,syndirella_product,openbind_d68ev3c_c2_elabs_scored_top80percent,syndirella_placed

>  <smiles>  (1727) 
CCC[C@@H]1CN(c2cccc(C(F)(F)F)c2)CCN1[C@@H](O)c1cn(C)nc1C

>  <subsites>  (1727) 
None

>  <rmsd(smina/fragmenstein)>  (1727) 
0.446

>  <alias>  (1727) 
None

>  <energy_score>  (1727) 
-84.721097

>  <HIPPO Pose ID>  (1727) 
131836

>  <distance_score>  (1727) 
0.38611

>  <HIPPO Compound ID>  (1727) 
157839

>  <gnina_score_min>  (1727) 
5.903

>  <name>  (1727) 
P131836

>  <exports>  (1727) 
['/opt/xchem-fragalysis-2/maxwin/BulkDock/OUTPUTS/openbind_d68ev3c_c2_elabs_1LOTQJ3.sdf', '/opt/xchem-fragalysis-2/maxwin/BulkDock/OUTPUTS/openbind_d68ev3c_c2_elabs_1LSYI5W.sdf']

$$$$
P131839
     RDKit          3D

 28 30  0  0  0  0  0  0  0  0999 V2000
  -17.5360    0.7114   12.3062 C   0  0  0  0  0  0  0  0  0  0  0  0
  -16.0582    0.7629   12.4454 C   0  0  0  0  0  0  0  0  0  0  0  0
  -15.5129    1.0780   13.6292 N   0  0  0  0  0  0  0  0  0  0  0  0
  -14.1903    1.0234   13.3945 N   0  0  0  0  0  0  0  0  0  0  0  0
  -13.2479    1.3655   14.4293 C   0  0  0  0  0  0  0  0  0  0  0  0
  -13.8790    0.6185   12.1347 C   0  0  0  0  0  0  0  0  0  0  0  0
  -15.0699    0.5258   11.4388 C   0  0  0  0  0  0  0  0  0  0  0  0
  -15.3061    0.2192    9.9929 C   0  0  1  0  0  0  0  0  0  0  0  0
  -16.3598    0.9918    9.4422 O   0  0  0  0  0  0  0  0  0  0  0  0
  -14.1286    0.3929    9.1658 N   0  0  0  0  0  0  0  0  0  0  0  0
  -13.4861    1.7070    9.2119 C   0  0  0  0  0  0  0  0  0  0  0  0
  -12.5825    2.0147    7.9990 C   0  0  0  0  0  0  0  0  0  0  0  0
  -11.3476    1.2674    7.7691 N   0  0  0  0  0  0  0  0  0  0  0  0
  -11.5279   -0.1884    7.6805 C   0  0  0  0  0  0  0  0  0  0  0  0
  -10.2627   -0.8710    7.1296 C   0  0  0  0  0  0  0  0  0  0  0  0
   -9.0303   -0.5237    7.8879 N   0  0  0  0  0  0  0  0  0  0  0  0
   -7.8585   -1.1634    7.4277 C   0  0  0  0  0  0  0  0  0  0  0  0
   -7.8959   -2.4645    6.8899 C   0  0  0  0  0  0  0  0  0  0  0  0
   -6.7584   -3.1070    6.3954 C   0  0  0  0  0  0  0  0  0  0  0  0
   -5.5265   -2.4765    6.4605 C   0  0  0  0  0  0  0  0  0  0  0  0
   -5.4239   -1.2084    7.0368 C   0  0  0  0  0  0  0  0  0  0  0  0
   -4.0730   -0.5620    7.1510 C   0  0  0  0  0  0  0  0  0  0  0  0
   -3.3469   -0.6947    6.0046 F   0  0  0  0  0  0  0  0  0  0  0  0
   -3.3096   -1.1049    8.1372 F   0  0  0  0  0  0  0  0  0  0  0  0
   -4.1159    0.7762    7.4031 F   0  0  0  0  0  0  0  0  0  0  0  0
   -6.5850   -0.5730    7.5181 C   0  0  0  0  0  0  0  0  0  0  0  0
   -8.9356    0.9099    8.2589 C   0  0  0  0  0  0  0  0  0  0  0  0
  -10.2770    1.5164    8.7452 C   0  0  0  0  0  0  0  0  0  0  0  0
  1  2  1  0
  2  3  2  0
  3  4  1  0
  4  5  1  0
  4  6  1  0
  6  7  2  0
  7  8  1  0
  8  9  1  6
  8 10  1  0
 10 11  1  0
 11 12  1  0
 12 13  1  0
 13 14  1  0
 14 15  1  0
 15 16  1  0
 16 17  1  0
 17 18  2  0
 18 19  1  0
 19 20  2  0
 20 21  1  0
 21 22  1  0
 22 23  1  0
 22 24  1  0
 22 25  1  0
 21 26  2  0
 16 27  1  0
 27 28  1  0
  7  2  1  0
 28 13  1  0
 26 17  1  0
M  END
>  <ref_mols>  (1728) 
B0426a

>  <gnina_score>  (1728) 
5.542

>  <smina_score_min>  (1728) 
-5.997

>  <ref_pdb>  (1728) 
B0426a

>  <inspiration_score>  (1728) 
None

>  <inchikey>  (1728) 
SQGFUWOATQGBCG-GOSISDBHSA-N

>  <tags>  (1728) 
BulkDock Fragalysis export,openbind_d68ev3c_c2_elabs_scored,openbind_d68ev3c_c2_elabs_scored_4.5plus,openbind_d68ev3c_c2_elabs,openbind_d68ev3c_c2_elabs_scored_5plus,syndirella_product,openbind_d68ev3c_c2_elabs_scored_top80percent,syndirella_placed

>  <smiles>  (1728) 
Cc1nn(C)cc1[C@@H](O)NCCN1CCN(c2cccc(C(F)(F)F)c2)CC1

>  <subsites>  (1728) 
None

>  <rmsd(smina/fragmenstein)>  (1728) 
0.784

>  <alias>  (1728) 
None

>  <energy_score>  (1728) 
-46.984309

>  <HIPPO Pose ID>  (1728) 
131839

>  <distance_score>  (1728) 
0.55897

>  <HIPPO Compound ID>  (1728) 
157840

>  <gnina_score_min>  (1728) 
5.608

>  <name>  (1728) 
P131839

>  <exports>  (1728) 
['/opt/xchem-fragalysis-2/maxwin/BulkDock/OUTPUTS/openbind_d68ev3c_c2_elabs_1LOTQJ3.sdf', '/opt/xchem-fragalysis-2/maxwin/BulkDock/OUTPUTS/openbind_d68ev3c_c2_elabs_1LSYI5W.sdf']

$$$$
P131841
     RDKit          3D

 28 30  0  0  0  0  0  0  0  0999 V2000
  -11.8164    2.9778   11.8543 C   0  0  0  0  0  0  0  0  0  0  0  0
  -10.5840    2.9948   10.9622 C   0  0  0  0  0  0  0  0  0  0  0  0
  -10.2916    1.6642   10.2358 C   0  0  0  0  0  0  0  0  0  0  0  0
  -10.2811    1.7729    8.6908 C   0  0  1  0  0  0  0  0  0  0  0  0
   -9.0040    1.1133    8.0602 C   0  0  0  0  0  0  0  0  0  0  0  0
   -9.0850   -0.3594    7.9020 N   0  0  0  0  0  0  0  0  0  0  0  0
   -7.9361   -1.0365    7.4299 C   0  0  0  0  0  0  0  0  0  0  0  0
   -8.0011   -2.3465    6.9133 C   0  0  0  0  0  0  0  0  0  0  0  0
   -6.8786   -3.0294    6.4323 C   0  0  0  0  0  0  0  0  0  0  0  0
   -5.6304   -2.4322    6.4854 C   0  0  0  0  0  0  0  0  0  0  0  0
   -5.4963   -1.1563    7.0362 C   0  0  0  0  0  0  0  0  0  0  0  0
   -4.1269   -0.5453    7.1432 C   0  0  0  0  0  0  0  0  0  0  0  0
   -4.1319    0.7939    7.3934 F   0  0  0  0  0  0  0  0  0  0  0  0
   -3.4065   -0.6979    5.9945 F   0  0  0  0  0  0  0  0  0  0  0  0
   -3.3728   -1.1073    8.1266 F   0  0  0  0  0  0  0  0  0  0  0  0
   -6.6436   -0.4816    7.5049 C   0  0  0  0  0  0  0  0  0  0  0  0
  -10.3748   -0.7867    7.2944 C   0  0  0  0  0  0  0  0  0  0  0  0
  -11.5945   -0.1618    7.9950 C   0  0  0  0  0  0  0  0  0  0  0  0
  -11.5207    1.2996    8.0557 N   0  0  0  0  0  0  0  0  0  0  0  0
  -12.7306    2.0251    8.4098 C   0  0  0  0  0  0  0  0  0  0  0  0
  -13.8183    1.2666    9.0968 C   0  0  0  0  0  0  0  0  0  0  0  0
  -13.8379    0.5522   10.3186 C   0  0  0  0  0  0  0  0  0  0  0  0
  -15.0538    0.1044   10.6464 N   0  0  0  0  0  0  0  0  0  0  0  0
  -15.8201    0.4921    9.6106 N   0  0  0  0  0  0  0  0  0  0  0  0
  -17.2566    0.3264    9.6973 C   0  0  0  0  0  0  0  0  0  0  0  0
  -18.0250    0.2670    8.3737 C   0  0  0  0  0  0  0  0  0  0  0  0
  -17.6392   -0.9007    7.4778 C   0  0  0  0  0  0  0  0  0  0  0  0
  -15.1281    1.1892    8.6676 C   0  0  0  0  0  0  0  0  0  0  0  0
  1  2  1  0
  2  3  1  0
  4  3  1  1
  4  5  1  0
  5  6  1  0
  6  7  1  0
  7  8  2  0
  8  9  1  0
  9 10  2  0
 10 11  1  0
 11 12  1  0
 12 13  1  0
 12 14  1  0
 12 15  1  0
 11 16  2  0
  6 17  1  0
 17 18  1  0
 18 19  1  0
 19 20  1  0
 20 21  1  0
 21 22  1  0
 22 23  2  0
 23 24  1  0
 24 25  1  0
 25 26  1  0
 26 27  1  0
 24 28  1  0
 19  4  1  0
 28 21  2  0
 16  7  1  0
M  END
>  <ref_mols>  (1729) 
B0426a

>  <gnina_score>  (1729) 
5.858

>  <smina_score_min>  (1729) 
-5.599

>  <ref_pdb>  (1729) 
B0426a

>  <inspiration_score>  (1729) 
None

>  <inchikey>  (1729) 
VPMGMBRXWZQHAH-FQEVSTJZSA-N

>  <tags>  (1729) 
BulkDock Fragalysis export,openbind_d68ev3c_c2_elabs_scored,openbind_d68ev3c_c2_elabs_scored_4.5plus,openbind_d68ev3c_c2_elabs,openbind_d68ev3c_c2_elabs_scored_5plus,syndirella_product,openbind_d68ev3c_c2_elabs_scored_top80percent,syndirella_placed

>  <smiles>  (1729) 
CCC[C@H]1CN(c2cccc(C(F)(F)F)c2)CCN1Cc1cnn(CCC)c1

>  <subsites>  (1729) 
None

>  <rmsd(smina/fragmenstein)>  (1729) 
0.88

>  <alias>  (1729) 
None

>  <energy_score>  (1729) 
-22.310782

>  <HIPPO Pose ID>  (1729) 
131841

>  <distance_score>  (1729) 
0.436822

>  <HIPPO Compound ID>  (1729) 
157845

>  <gnina_score_min>  (1729) 
5.759

>  <name>  (1729) 
P131841

>  <exports>  (1729) 
['/opt/xchem-fragalysis-2/maxwin/BulkDock/OUTPUTS/openbind_d68ev3c_c2_elabs_1LOTQJ3.sdf', '/opt/xchem-fragalysis-2/maxwin/BulkDock/OUTPUTS/openbind_d68ev3c_c2_elabs_1LSYI5W.sdf']

$$$$
P131842
     RDKit          3D

 28 30  0  0  0  0  0  0  0  0999 V2000
  -17.3660   -0.0999   12.8015 C   0  0  0  0  0  0  0  0  0  0  0  0
  -16.4077    1.4040   13.0976 S   0  0  0  0  0  0  0  0  0  0  0  0
  -14.8407    0.9234   12.5238 C   0  0  0  0  0  0  0  0  0  0  0  0
  -14.4091    0.4362   11.3036 C   0  0  0  0  0  0  0  0  0  0  0  0
  -15.1628    0.3191   10.0240 C   0  0  0  0  0  0  0  0  0  0  0  0
  -14.3002    0.5377    8.8613 N   0  0  0  0  0  0  0  0  0  0  0  0
  -13.5709    1.8137    8.9134 C   0  0  0  0  0  0  0  0  0  0  0  0
  -12.5974    2.0397    7.7408 C   0  0  0  0  0  0  0  0  0  0  0  0
  -11.3551    1.2773    7.6194 N   0  0  0  0  0  0  0  0  0  0  0  0
  -11.5182   -0.1688    7.4621 C   0  0  0  0  0  0  0  0  0  0  0  0
  -10.2234   -0.8194    6.9519 C   0  0  0  0  0  0  0  0  0  0  0  0
   -9.0517   -0.5153    7.8148 N   0  0  0  0  0  0  0  0  0  0  0  0
   -7.8627   -1.1566    7.4042 C   0  0  0  0  0  0  0  0  0  0  0  0
   -7.8860   -2.4733    6.9036 C   0  0  0  0  0  0  0  0  0  0  0  0
   -6.7413   -3.1191    6.4337 C   0  0  0  0  0  0  0  0  0  0  0  0
   -5.5153   -2.4773    6.4961 C   0  0  0  0  0  0  0  0  0  0  0  0
   -5.4264   -1.1957    7.0463 C   0  0  0  0  0  0  0  0  0  0  0  0
   -4.0788   -0.5421    7.1562 C   0  0  0  0  0  0  0  0  0  0  0  0
   -3.3082   -1.0822    8.1385 F   0  0  0  0  0  0  0  0  0  0  0  0
   -4.1253    0.7957    7.4079 F   0  0  0  0  0  0  0  0  0  0  0  0
   -3.3568   -0.6728    6.0066 F   0  0  0  0  0  0  0  0  0  0  0  0
   -6.5961   -0.5548    7.4992 C   0  0  0  0  0  0  0  0  0  0  0  0
   -8.9709    0.9081    8.2363 C   0  0  0  0  0  0  0  0  0  0  0  0
  -10.3400    1.5129    8.6556 C   0  0  0  0  0  0  0  0  0  0  0  0
  -13.0422    0.1352   11.5382 C   0  0  0  0  0  0  0  0  0  0  0  0
  -12.6314    0.4851   12.7525 N   0  0  0  0  0  0  0  0  0  0  0  0
  -13.7177    1.0528   13.3010 N   0  0  0  0  0  0  0  0  0  0  0  0
  -13.5721    1.7440   14.5569 C   0  0  0  0  0  0  0  0  0  0  0  0
  1  2  1  0
  2  3  1  0
  3  4  2  0
  4  5  1  0
  5  6  1  0
  6  7  1  0
  7  8  1  0
  8  9  1  0
  9 10  1  0
 10 11  1  0
 11 12  1  0
 12 13  1  0
 13 14  2  0
 14 15  1  0
 15 16  2  0
 16 17  1  0
 17 18  1  0
 18 19  1  0
 18 20  1  0
 18 21  1  0
 17 22  2  0
 12 23  1  0
 23 24  1  0
  4 25  1  0
 25 26  2  0
 26 27  1  0
 27 28  1  0
 27  3  1  0
 24  9  1  0
 22 13  1  0
M  END
>  <ref_mols>  (1730) 
B0426a

>  <gnina_score>  (1730) 
5.756

>  <smina_score_min>  (1730) 
-6.098

>  <ref_pdb>  (1730) 
B0426a

>  <inspiration_score>  (1730) 
None

>  <inchikey>  (1730) 
HDPIRPKGCHYHIW-UHFFFAOYSA-N

>  <tags>  (1730) 
BulkDock Fragalysis export,openbind_d68ev3c_c2_elabs_scored,openbind_d68ev3c_c2_elabs_scored_4.5plus,openbind_d68ev3c_c2_elabs,openbind_d68ev3c_c2_elabs_scored_5plus,syndirella_product,openbind_d68ev3c_c2_elabs_scored_top80percent,syndirella_placed

>  <smiles>  (1730) 
CSc1c(CNCCN2CCN(c3cccc(C(F)(F)F)c3)CC2)cnn1C

>  <subsites>  (1730) 
None

>  <rmsd(smina/fragmenstein)>  (1730) 
0.704

>  <alias>  (1730) 
None

>  <energy_score>  (1730) 
-57.443716

>  <HIPPO Pose ID>  (1730) 
131842

>  <distance_score>  (1730) 
0.585559

>  <HIPPO Compound ID>  (1730) 
157846

>  <gnina_score_min>  (1730) 
5.761

>  <name>  (1730) 
P131842

>  <exports>  (1730) 
['/opt/xchem-fragalysis-2/maxwin/BulkDock/OUTPUTS/openbind_d68ev3c_c2_elabs_1LOTQJ3.sdf', '/opt/xchem-fragalysis-2/maxwin/BulkDock/OUTPUTS/openbind_d68ev3c_c2_elabs_1LSYI5W.sdf']

$$$$
P131843
     RDKit          3D

 28 30  0  0  0  0  0  0  0  0999 V2000
  -10.7058    3.4468   11.5464 C   0  0  0  0  0  0  0  0  0  0  0  0
  -10.9871    3.8631   10.1148 C   0  0  0  0  0  0  0  0  0  0  0  0
  -10.1565    3.1226    9.0534 C   0  0  0  0  0  0  0  0  0  0  0  0
  -10.3579    1.5864    8.8876 C   0  0  2  0  0  0  0  0  0  0  0  0
   -9.0156    1.0026    8.2819 C   0  0  0  0  0  0  0  0  0  0  0  0
   -9.0779   -0.4385    7.9208 N   0  0  0  0  0  0  0  0  0  0  0  0
   -7.9070   -1.0798    7.4621 C   0  0  0  0  0  0  0  0  0  0  0  0
   -7.9422   -2.4030    6.9747 C   0  0  0  0  0  0  0  0  0  0  0  0
   -6.8118   -3.0601    6.4822 C   0  0  0  0  0  0  0  0  0  0  0  0
   -5.5818   -2.4258    6.5111 C   0  0  0  0  0  0  0  0  0  0  0  0
   -5.4763   -1.1378    7.0437 C   0  0  0  0  0  0  0  0  0  0  0  0
   -4.1188   -0.4988    7.1293 C   0  0  0  0  0  0  0  0  0  0  0  0
   -4.1473    0.8408    7.3726 F   0  0  0  0  0  0  0  0  0  0  0  0
   -3.4111   -0.6462    5.9726 F   0  0  0  0  0  0  0  0  0  0  0  0
   -3.3425   -1.0407    8.1068 F   0  0  0  0  0  0  0  0  0  0  0  0
   -6.6353   -0.4821    7.5110 C   0  0  0  0  0  0  0  0  0  0  0  0
  -10.3040   -0.7906    7.1679 C   0  0  0  0  0  0  0  0  0  0  0  0
  -11.5624   -0.2335    7.8354 C   0  0  0  0  0  0  0  0  0  0  0  0
  -11.4956    1.2254    8.0164 N   0  0  0  0  0  0  0  0  0  0  0  0
  -12.8125    1.8106    8.2236 C   0  0  0  0  0  0  0  0  0  0  0  0
  -13.6727    1.1915    9.2768 C   0  0  0  0  0  0  0  0  0  0  0  0
  -13.3321    0.6976   10.5590 C   0  0  0  0  0  0  0  0  0  0  0  0
  -14.3761    0.2147   11.2360 N   0  0  0  0  0  0  0  0  0  0  0  0
  -15.4041    0.3664   10.3800 N   0  0  0  0  0  0  0  0  0  0  0  0
  -16.7251   -0.0030   10.8269 C   0  0  0  0  0  0  0  0  0  0  0  0
  -15.0404    0.9817    9.2131 C   0  0  0  0  0  0  0  0  0  0  0  0
  -16.2094    1.3733    7.9834 S   0  0  0  0  0  0  0  0  0  0  0  0
  -16.2245    3.1766    8.1103 C   0  0  0  0  0  0  0  0  0  0  0  0
  1  2  1  0
  2  3  1  0
  4  3  1  6
  4  5  1  0
  5  6  1  0
  6  7  1  0
  7  8  2  0
  8  9  1  0
  9 10  2  0
 10 11  1  0
 11 12  1  0
 12 13  1  0
 12 14  1  0
 12 15  1  0
 11 16  2  0
  6 17  1  0
 17 18  1  0
 18 19  1  0
 19 20  1  0
 20 21  1  0
 21 22  1  0
 22 23  2  0
 23 24  1  0
 24 25  1  0
 24 26  1  0
 26 27  1  0
 27 28  1  0
 19  4  1  0
 26 21  2  0
 16  7  1  0
M  END
>  <ref_mols>  (1731) 
B0426a

>  <gnina_score>  (1731) 
5.887

>  <smina_score_min>  (1731) 
-5.631

>  <ref_pdb>  (1731) 
B0426a

>  <inspiration_score>  (1731) 
None

>  <inchikey>  (1731) 
OMROXIOAAYLVFR-GOSISDBHSA-N

>  <tags>  (1731) 
BulkDock Fragalysis export,openbind_d68ev3c_c2_elabs_scored,openbind_d68ev3c_c2_elabs_scored_4.5plus,openbind_d68ev3c_c2_elabs,openbind_d68ev3c_c2_elabs_scored_5plus,syndirella_product,openbind_d68ev3c_c2_elabs_scored_top80percent,syndirella_placed

>  <smiles>  (1731) 
CCC[C@@H]1CN(c2cccc(C(F)(F)F)c2)CCN1Cc1cnn(C)c1SC

>  <subsites>  (1731) 
None

>  <rmsd(smina/fragmenstein)>  (1731) 
0.549

>  <alias>  (1731) 
None

>  <energy_score>  (1731) 
-46.50098

>  <HIPPO Pose ID>  (1731) 
131843

>  <distance_score>  (1731) 
0.45658

>  <HIPPO Compound ID>  (1731) 
157847

>  <gnina_score_min>  (1731) 
6.019

>  <name>  (1731) 
P131843

>  <exports>  (1731) 
['/opt/xchem-fragalysis-2/maxwin/BulkDock/OUTPUTS/openbind_d68ev3c_c2_elabs_1LOTQJ3.sdf', '/opt/xchem-fragalysis-2/maxwin/BulkDock/OUTPUTS/openbind_d68ev3c_c2_elabs_1LSYI5W.sdf']

$$$$
P131845
     RDKit          3D

 28 30  0  0  0  0  0  0  0  0999 V2000
  -11.6238    3.5070   12.3071 C   0  0  0  0  0  0  0  0  0  0  0  0
  -13.0360    3.5023   12.8738 C   0  0  0  0  0  0  0  0  0  0  0  0
  -13.2939    2.2892   13.7822 C   0  0  0  0  0  0  0  0  0  0  0  0
  -14.2055    1.3553   13.1412 N   0  0  0  0  0  0  0  0  0  0  0  0
  -13.9096    0.6077   12.0403 C   0  0  0  0  0  0  0  0  0  0  0  0
  -15.0974    0.5019   11.3426 C   0  0  0  0  0  0  0  0  0  0  0  0
  -15.3306    0.0992    9.9326 C   0  0  0  0  0  0  0  0  0  0  0  0
  -14.1365    0.2644    9.1044 N   0  0  0  0  0  0  0  0  0  0  0  0
  -13.5970    1.6278    9.0792 C   0  0  0  0  0  0  0  0  0  0  0  0
  -12.6461    1.9392    7.9033 C   0  0  0  0  0  0  0  0  0  0  0  0
  -11.3919    1.2125    7.7126 N   0  0  0  0  0  0  0  0  0  0  0  0
  -10.3461    1.4800    8.7107 C   0  0  0  0  0  0  0  0  0  0  0  0
   -8.9833    0.8906    8.2526 C   0  0  0  0  0  0  0  0  0  0  0  0
   -9.0498   -0.5437    7.8737 N   0  0  0  0  0  0  0  0  0  0  0  0
   -7.8664   -1.1712    7.4271 C   0  0  0  0  0  0  0  0  0  0  0  0
   -7.8868   -2.4770    6.8974 C   0  0  0  0  0  0  0  0  0  0  0  0
   -6.7423   -3.1103    6.4089 C   0  0  0  0  0  0  0  0  0  0  0  0
   -5.5182   -2.4665    6.4755 C   0  0  0  0  0  0  0  0  0  0  0  0
   -5.4311   -1.1942    7.0464 C   0  0  0  0  0  0  0  0  0  0  0  0
   -4.0849   -0.5382    7.1603 C   0  0  0  0  0  0  0  0  0  0  0  0
   -4.1358    0.7992    7.4130 F   0  0  0  0  0  0  0  0  0  0  0  0
   -3.3584   -0.6665    6.0135 F   0  0  0  0  0  0  0  0  0  0  0  0
   -3.3170   -1.0769    8.1455 F   0  0  0  0  0  0  0  0  0  0  0  0
   -6.6005   -0.5664    7.5199 C   0  0  0  0  0  0  0  0  0  0  0  0
  -10.2644   -0.9070    7.0960 C   0  0  0  0  0  0  0  0  0  0  0  0
  -11.5464   -0.2452    7.6266 C   0  0  0  0  0  0  0  0  0  0  0  0
  -16.0709    0.9379   12.2739 C   0  0  0  0  0  0  0  0  0  0  0  0
  -15.5290    1.4275   13.3926 N   0  0  0  0  0  0  0  0  0  0  0  0
  1  2  1  0
  2  3  1  0
  3  4  1  0
  4  5  1  0
  5  6  2  0
  6  7  1  0
  7  8  1  0
  8  9  1  0
  9 10  1  0
 10 11  1  0
 11 12  1  0
 12 13  1  0
 13 14  1  0
 14 15  1  0
 15 16  2  0
 16 17  1  0
 17 18  2  0
 18 19  1  0
 19 20  1  0
 20 21  1  0
 20 22  1  0
 20 23  1  0
 19 24  2  0
 14 25  1  0
 25 26  1  0
  6 27  1  0
 27 28  2  0
 28  4  1  0
 26 11  1  0
 24 15  1  0
M  END
>  <ref_mols>  (1732) 
B0426a

>  <gnina_score>  (1732) 
5.751

>  <smina_score_min>  (1732) 
-5.622

>  <ref_pdb>  (1732) 
B0426a

>  <inspiration_score>  (1732) 
None

>  <inchikey>  (1732) 
ZXXCYQHDMVBZLW-UHFFFAOYSA-N

>  <tags>  (1732) 
BulkDock Fragalysis export,openbind_d68ev3c_c2_elabs_scored,openbind_d68ev3c_c2_elabs_scored_4.5plus,openbind_d68ev3c_c2_elabs,openbind_d68ev3c_c2_elabs_scored_5plus,syndirella_product,openbind_d68ev3c_c2_elabs_scored_top80percent,syndirella_placed

>  <smiles>  (1732) 
CCCn1cc(CNCCN2CCN(c3cccc(C(F)(F)F)c3)CC2)cn1

>  <subsites>  (1732) 
None

>  <rmsd(smina/fragmenstein)>  (1732) 
0.943

>  <alias>  (1732) 
None

>  <energy_score>  (1732) 
-30.128148

>  <HIPPO Pose ID>  (1732) 
131845

>  <distance_score>  (1732) 
0.559641

>  <HIPPO Compound ID>  (1732) 
157849

>  <gnina_score_min>  (1732) 
5.813

>  <name>  (1732) 
P131845

>  <exports>  (1732) 
['/opt/xchem-fragalysis-2/maxwin/BulkDock/OUTPUTS/openbind_d68ev3c_c2_elabs_1LOTQJ3.sdf', '/opt/xchem-fragalysis-2/maxwin/BulkDock/OUTPUTS/openbind_d68ev3c_c2_elabs_1LSYI5W.sdf']

$$$$
P131846
     RDKit          3D

 28 30  0  0  0  0  0  0  0  0999 V2000
  -18.2712    1.1252   10.5603 C   0  0  0  0  0  0  0  0  0  0  0  0
  -17.4704    0.7452    9.3680 C   0  0  0  0  0  0  0  0  0  0  0  0
  -18.0165    0.8295    8.1482 N   0  0  0  0  0  0  0  0  0  0  0  0
  -17.0239    0.4347    7.3212 N   0  0  0  0  0  0  0  0  0  0  0  0
  -17.2286    0.4920    5.8912 C   0  0  0  0  0  0  0  0  0  0  0  0
  -15.8987    0.0598    7.9943 C   0  0  0  0  0  0  0  0  0  0  0  0
  -14.5611   -0.5303    7.1168 Cl  0  0  0  0  0  0  0  0  0  0  0  0
  -16.1194    0.2740    9.3378 C   0  0  0  0  0  0  0  0  0  0  0  0
  -15.2547    0.0701   10.5365 C   0  0  0  0  0  0  0  0  0  0  0  0
  -13.8297    0.2297   10.2753 N   0  0  0  0  0  0  0  0  0  0  0  0
  -13.4624    1.5724    9.8122 C   0  0  0  0  0  0  0  0  0  0  0  0
  -11.9381    1.8297    9.8104 C   0  0  0  0  0  0  0  0  0  0  0  0
  -11.1415    1.2936    8.6830 N   0  0  0  0  0  0  0  0  0  0  0  0
  -11.0779   -0.1870    8.7157 C   0  0  0  0  0  0  0  0  0  0  0  0
  -10.1083   -0.8065    7.6907 C   0  0  0  0  0  0  0  0  0  0  0  0
   -8.7520   -0.2516    7.8419 N   0  0  0  0  0  0  0  0  0  0  0  0
   -7.6851   -0.9500    7.2776 C   0  0  0  0  0  0  0  0  0  0  0  0
   -7.8444   -2.1477    6.5574 C   0  0  0  0  0  0  0  0  0  0  0  0
   -6.7585   -2.8621    6.0456 C   0  0  0  0  0  0  0  0  0  0  0  0
   -5.4712   -2.3874    6.2351 C   0  0  0  0  0  0  0  0  0  0  0  0
   -5.2649   -1.2070    6.9526 C   0  0  0  0  0  0  0  0  0  0  0  0
   -3.8732   -0.6965    7.1634 C   0  0  0  0  0  0  0  0  0  0  0  0
   -3.2097   -1.3418    8.1573 F   0  0  0  0  0  0  0  0  0  0  0  0
   -3.8101    0.6312    7.4642 F   0  0  0  0  0  0  0  0  0  0  0  0
   -3.1159   -0.8513    6.0430 F   0  0  0  0  0  0  0  0  0  0  0  0
   -6.3677   -0.5181    7.4793 C   0  0  0  0  0  0  0  0  0  0  0  0
   -8.7582    1.2233    7.7816 C   0  0  0  0  0  0  0  0  0  0  0  0
   -9.7509    1.8012    8.8166 C   0  0  0  0  0  0  0  0  0  0  0  0
  1  2  1  0
  2  3  2  0
  3  4  1  0
  4  5  1  0
  4  6  1  0
  6  7  1  0
  6  8  2  0
  8  9  1  0
  9 10  1  0
 10 11  1  0
 11 12  1  0
 12 13  1  0
 13 14  1  0
 14 15  1  0
 15 16  1  0
 16 17  1  0
 17 18  2  0
 18 19  1  0
 19 20  2  0
 20 21  1  0
 21 22  1  0
 22 23  1  0
 22 24  1  0
 22 25  1  0
 21 26  2  0
 16 27  1  0
 27 28  1  0
  8  2  1  0
 28 13  1  0
 26 17  1  0
M  END
>  <ref_mols>  (1733) 
B0426a

>  <gnina_score>  (1733) 
5.581

>  <smina_score_min>  (1733) 
-6.007

>  <ref_pdb>  (1733) 
B0426a

>  <inspiration_score>  (1733) 
None

>  <inchikey>  (1733) 
AGHFOFWXVOPILC-UHFFFAOYSA-N

>  <tags>  (1733) 
BulkDock Fragalysis export,openbind_d68ev3c_c2_elabs_scored,openbind_d68ev3c_c2_elabs_scored_4.5plus,openbind_d68ev3c_c2_elabs,openbind_d68ev3c_c2_elabs_scored_5plus,syndirella_product,openbind_d68ev3c_c2_elabs_scored_top80percent,syndirella_placed

>  <smiles>  (1733) 
Cc1nn(C)c(Cl)c1CNCCN1CCN(c2cccc(C(F)(F)F)c2)CC1

>  <subsites>  (1733) 
None

>  <rmsd(smina/fragmenstein)>  (1733) 
1.802

>  <alias>  (1733) 
None

>  <energy_score>  (1733) 
-49.301973

>  <HIPPO Pose ID>  (1733) 
131846

>  <distance_score>  (1733) 
0.575118

>  <HIPPO Compound ID>  (1733) 
157850

>  <gnina_score_min>  (1733) 
5.585

>  <name>  (1733) 
P131846

>  <exports>  (1733) 
['/opt/xchem-fragalysis-2/maxwin/BulkDock/OUTPUTS/openbind_d68ev3c_c2_elabs_1LOTQJ3.sdf', '/opt/xchem-fragalysis-2/maxwin/BulkDock/OUTPUTS/openbind_d68ev3c_c2_elabs_1LSYI5W.sdf']

$$$$
P131848
     RDKit          3D

 28 30  0  0  0  0  0  0  0  0999 V2000
  -16.1457    1.6144   12.8735 C   0  0  0  0  0  0  0  0  0  0  0  0
  -14.8213    1.0787   12.4720 C   0  0  0  0  0  0  0  0  0  0  0  0
  -14.3858    0.4887   11.2904 C   0  0  0  0  0  0  0  0  0  0  0  0
  -15.0870    0.2871    9.9851 C   0  0  1  0  0  0  0  0  0  0  0  0
  -16.2393    1.0972    9.8356 O   0  0  0  0  0  0  0  0  0  0  0  0
  -14.1914    0.5628    8.8798 N   0  0  0  0  0  0  0  0  0  0  0  0
  -13.5239    1.8671    8.9228 C   0  0  0  0  0  0  0  0  0  0  0  0
  -12.5515    2.1046    7.7529 C   0  0  0  0  0  0  0  0  0  0  0  0
  -11.3267    1.3184    7.6175 N   0  0  0  0  0  0  0  0  0  0  0  0
  -10.3073    1.5555    8.6502 C   0  0  0  0  0  0  0  0  0  0  0  0
   -8.9552    0.9211    8.2346 C   0  0  0  0  0  0  0  0  0  0  0  0
   -9.0534   -0.5101    7.8517 N   0  0  0  0  0  0  0  0  0  0  0  0
   -7.8748   -1.1571    7.4176 C   0  0  0  0  0  0  0  0  0  0  0  0
   -7.9094   -2.4624    6.8894 C   0  0  0  0  0  0  0  0  0  0  0  0
   -6.7686   -3.1095    6.4091 C   0  0  0  0  0  0  0  0  0  0  0  0
   -5.5369   -2.4789    6.4793 C   0  0  0  0  0  0  0  0  0  0  0  0
   -5.4369   -1.2075    7.0492 C   0  0  0  0  0  0  0  0  0  0  0  0
   -4.0858   -0.5617    7.1658 C   0  0  0  0  0  0  0  0  0  0  0  0
   -3.3213   -1.1082    8.1493 F   0  0  0  0  0  0  0  0  0  0  0  0
   -4.1265    0.7759    7.4213 F   0  0  0  0  0  0  0  0  0  0  0  0
   -3.3592   -0.6913    6.0187 F   0  0  0  0  0  0  0  0  0  0  0  0
   -6.6012   -0.5683    7.5186 C   0  0  0  0  0  0  0  0  0  0  0  0
  -10.2663   -0.8516    7.0603 C   0  0  0  0  0  0  0  0  0  0  0  0
  -11.5398   -0.1329    7.5413 C   0  0  0  0  0  0  0  0  0  0  0  0
  -13.0358    0.1484   11.5622 C   0  0  0  0  0  0  0  0  0  0  0  0
  -12.6380    0.5324   12.7691 N   0  0  0  0  0  0  0  0  0  0  0  0
  -13.7106    1.1468   13.2778 N   0  0  0  0  0  0  0  0  0  0  0  0
  -13.5771    1.8370   14.5354 C   0  0  0  0  0  0  0  0  0  0  0  0
  1  2  1  0
  2  3  2  0
  3  4  1  0
  4  5  1  1
  4  6  1  0
  6  7  1  0
  7  8  1  0
  8  9  1  0
  9 10  1  0
 10 11  1  0
 11 12  1  0
 12 13  1  0
 13 14  2  0
 14 15  1  0
 15 16  2  0
 16 17  1  0
 17 18  1  0
 18 19  1  0
 18 20  1  0
 18 21  1  0
 17 22  2  0
 12 23  1  0
 23 24  1  0
  3 25  1  0
 25 26  2  0
 26 27  1  0
 27 28  1  0
 27  2  1  0
 24  9  1  0
 22 13  1  0
M  END
>  <ref_mols>  (1734) 
B0426a

>  <gnina_score>  (1734) 
5.619

>  <smina_score_min>  (1734) 
-6.34

>  <ref_pdb>  (1734) 
B0426a

>  <inspiration_score>  (1734) 
None

>  <inchikey>  (1734) 
BGOAULUDKOSVGP-GOSISDBHSA-N

>  <tags>  (1734) 
BulkDock Fragalysis export,openbind_d68ev3c_c2_elabs_scored,openbind_d68ev3c_c2_elabs_scored_4.5plus,openbind_d68ev3c_c2_elabs,openbind_d68ev3c_c2_elabs_scored_5plus,syndirella_product,openbind_d68ev3c_c2_elabs_scored_top80percent,syndirella_placed

>  <smiles>  (1734) 
Cc1c([C@@H](O)NCCN2CCN(c3cccc(C(F)(F)F)c3)CC2)cnn1C

>  <subsites>  (1734) 
None

>  <rmsd(smina/fragmenstein)>  (1734) 
0.791

>  <alias>  (1734) 
None

>  <energy_score>  (1734) 
-44.911111

>  <HIPPO Pose ID>  (1734) 
131848

>  <distance_score>  (1734) 
0.582247

>  <HIPPO Compound ID>  (1734) 
157851

>  <gnina_score_min>  (1734) 
5.605

>  <name>  (1734) 
P131848

>  <exports>  (1734) 
['/opt/xchem-fragalysis-2/maxwin/BulkDock/OUTPUTS/openbind_d68ev3c_c2_elabs_1LOTQJ3.sdf', '/opt/xchem-fragalysis-2/maxwin/BulkDock/OUTPUTS/openbind_d68ev3c_c2_elabs_1LSYI5W.sdf']

$$$$
P131851
     RDKit          3D

 28 30  0  0  0  0  0  0  0  0999 V2000
   -9.9749    5.9387    8.6315 C   0  0  0  0  0  0  0  0  0  0  0  0
   -9.8608    4.5137    9.1516 C   0  0  0  0  0  0  0  0  0  0  0  0
   -9.8484    3.5000    8.0018 C   0  0  0  0  0  0  0  0  0  0  0  0
   -9.8878    2.0141    8.4673 C   0  0  2  0  0  0  0  0  0  0  0  0
   -8.8427    1.2520    7.5769 C   0  0  0  0  0  0  0  0  0  0  0  0
   -8.7774   -0.1840    7.9007 N   0  0  0  0  0  0  0  0  0  0  0  0
   -7.7166   -0.9117    7.3419 C   0  0  0  0  0  0  0  0  0  0  0  0
   -7.8870   -2.1365    6.6709 C   0  0  0  0  0  0  0  0  0  0  0  0
   -6.8071   -2.8622    6.1624 C   0  0  0  0  0  0  0  0  0  0  0  0
   -5.5179   -2.3760    6.3137 C   0  0  0  0  0  0  0  0  0  0  0  0
   -5.3016   -1.1703    6.9871 C   0  0  0  0  0  0  0  0  0  0  0  0
   -3.9038   -0.6603    7.1659 C   0  0  0  0  0  0  0  0  0  0  0  0
   -3.8315    0.6701    7.4499 F   0  0  0  0  0  0  0  0  0  0  0  0
   -3.1645   -0.8317    6.0350 F   0  0  0  0  0  0  0  0  0  0  0  0
   -3.2257   -1.2968    8.1563 F   0  0  0  0  0  0  0  0  0  0  0  0
   -6.3984   -0.4630    7.5033 C   0  0  0  0  0  0  0  0  0  0  0  0
  -10.1036   -0.8109    7.8626 C   0  0  0  0  0  0  0  0  0  0  0  0
  -11.0891   -0.0629    8.7707 C   0  0  0  0  0  0  0  0  0  0  0  0
  -11.2584    1.3778    8.4174 N   0  0  0  0  0  0  0  0  0  0  0  0
  -12.1984    2.0301    9.3430 C   0  0  1  0  0  0  0  0  0  0  0  0
  -12.6103    3.2587    8.7701 O   0  0  0  0  0  0  0  0  0  0  0  0
  -13.4403    1.2292    9.6144 C   0  0  0  0  0  0  0  0  0  0  0  0
  -13.8305    0.7087   10.8724 C   0  0  0  0  0  0  0  0  0  0  0  0
  -15.0120    0.0912   10.8365 N   0  0  0  0  0  0  0  0  0  0  0  0
  -15.4069    0.2455    9.5582 N   0  0  0  0  0  0  0  0  0  0  0  0
  -16.7492   -0.1240    9.1802 C   0  0  0  0  0  0  0  0  0  0  0  0
  -14.4766    0.8648    8.7634 C   0  0  0  0  0  0  0  0  0  0  0  0
  -14.6734    1.0866    7.3085 C   0  0  0  0  0  0  0  0  0  0  0  0
  1  2  1  0
  2  3  1  0
  4  3  1  6
  4  5  1  0
  5  6  1  0
  6  7  1  0
  7  8  2  0
  8  9  1  0
  9 10  2  0
 10 11  1  0
 11 12  1  0
 12 13  1  0
 12 14  1  0
 12 15  1  0
 11 16  2  0
  6 17  1  0
 17 18  1  0
 18 19  1  0
 19 20  1  0
 20 21  1  6
 20 22  1  0
 22 23  1  0
 23 24  2  0
 24 25  1  0
 25 26  1  0
 25 27  1  0
 27 28  1  0
 19  4  1  0
 27 22  2  0
 16  7  1  0
M  END
>  <ref_mols>  (1735) 
B0426a

>  <gnina_score>  (1735) 
5.78

>  <smina_score_min>  (1735) 
-5.943

>  <ref_pdb>  (1735) 
B0426a

>  <inspiration_score>  (1735) 
None

>  <inchikey>  (1735) 
ZTNQEAZKQQJXLB-MJGOQNOKSA-N

>  <tags>  (1735) 
BulkDock Fragalysis export,openbind_d68ev3c_c2_elabs_scored,openbind_d68ev3c_c2_elabs_scored_4.5plus,openbind_d68ev3c_c2_elabs,openbind_d68ev3c_c2_elabs_scored_5plus,syndirella_product,openbind_d68ev3c_c2_elabs_scored_top80percent,syndirella_placed

>  <smiles>  (1735) 
CCC[C@@H]1CN(c2cccc(C(F)(F)F)c2)CCN1[C@@H](O)c1cnn(C)c1C

>  <subsites>  (1735) 
None

>  <rmsd(smina/fragmenstein)>  (1735) 
1.105

>  <alias>  (1735) 
None

>  <energy_score>  (1735) 
-57.842958

>  <HIPPO Pose ID>  (1735) 
131851

>  <distance_score>  (1735) 
0.368413

>  <HIPPO Compound ID>  (1735) 
157852

>  <gnina_score_min>  (1735) 
5.822

>  <name>  (1735) 
P131851

>  <exports>  (1735) 
['/opt/xchem-fragalysis-2/maxwin/BulkDock/OUTPUTS/openbind_d68ev3c_c2_elabs_1LOTQJ3.sdf', '/opt/xchem-fragalysis-2/maxwin/BulkDock/OUTPUTS/openbind_d68ev3c_c2_elabs_1LSYI5W.sdf']

$$$$
P131853
     RDKit          3D

 28 30  0  0  0  0  0  0  0  0999 V2000
  -15.4628    5.1934   11.3341 C   0  0  0  0  0  0  0  0  0  0  0  0
  -15.0916    3.8229   11.5860 N   0  0  0  0  0  0  0  0  0  0  0  0
  -15.5194    2.7208   10.9118 C   0  0  0  0  0  0  0  0  0  0  0  0
  -14.8043    1.6474   11.4174 C   0  0  0  0  0  0  0  0  0  0  0  0
  -14.8301    0.2166   11.0273 C   0  0  0  0  0  0  0  0  0  0  0  0
  -15.4522    0.0212    9.7162 N   0  0  0  0  0  0  0  0  0  0  0  0
  -14.4669   -0.0129    8.6277 C   0  0  0  0  0  0  0  0  0  0  0  0
  -13.9164    1.3323    8.1559 C   0  0  0  0  0  0  0  0  0  0  0  0
  -12.5515    1.7682    8.6985 C   0  0  0  0  0  0  0  0  0  0  0  0
  -11.5140    0.7410    8.7363 N   0  0  0  0  0  0  0  0  0  0  0  0
  -11.3004   -0.0452    7.5050 C   0  0  0  0  0  0  0  0  0  0  0  0
  -10.0363    0.2947    6.6922 C   0  0  0  0  0  0  0  0  0  0  0  0
   -8.8089    0.2711    7.5083 N   0  0  0  0  0  0  0  0  0  0  0  0
   -7.8219   -0.6712    7.2041 C   0  0  0  0  0  0  0  0  0  0  0  0
   -8.0925   -1.9781    6.7830 C   0  0  0  0  0  0  0  0  0  0  0  0
   -7.0562   -2.8558    6.4563 C   0  0  0  0  0  0  0  0  0  0  0  0
   -5.7315   -2.4362    6.5573 C   0  0  0  0  0  0  0  0  0  0  0  0
   -5.4288   -1.1453    7.0062 C   0  0  0  0  0  0  0  0  0  0  0  0
   -3.9985   -0.7001    7.1142 C   0  0  0  0  0  0  0  0  0  0  0  0
   -3.2963   -1.3923    8.0514 F   0  0  0  0  0  0  0  0  0  0  0  0
   -3.3237   -0.8723    5.9420 F   0  0  0  0  0  0  0  0  0  0  0  0
   -3.8461    0.6167    7.4309 F   0  0  0  0  0  0  0  0  0  0  0  0
   -6.4810   -0.2813    7.3336 C   0  0  0  0  0  0  0  0  0  0  0  0
   -9.0484    0.3765    8.9626 C   0  0  0  0  0  0  0  0  0  0  0  0
  -10.2443    1.2975    9.2564 C   0  0  0  0  0  0  0  0  0  0  0  0
  -14.0447    2.2262   12.4636 C   0  0  0  0  0  0  0  0  0  0  0  0
  -13.0154    1.4057   13.5323 Cl  0  0  0  0  0  0  0  0  0  0  0  0
  -14.2232    3.5438   12.5669 N   0  0  0  0  0  0  0  0  0  0  0  0
  1  2  1  0
  2  3  1  0
  3  4  2  0
  4  5  1  0
  5  6  1  0
  6  7  1  0
  7  8  1  0
  8  9  1  0
  9 10  1  0
 10 11  1  0
 11 12  1  0
 12 13  1  0
 13 14  1  0
 14 15  2  0
 15 16  1  0
 16 17  2  0
 17 18  1  0
 18 19  1  0
 19 20  1  0
 19 21  1  0
 19 22  1  0
 18 23  2  0
 13 24  1  0
 24 25  1  0
  4 26  1  0
 26 27  1  0
 26 28  2  0
 28  2  1  0
 25 10  1  0
 23 14  1  0
M  END
>  <ref_mols>  (1736) 
B0426a

>  <gnina_score>  (1736) 
5.735

>  <smina_score_min>  (1736) 
-5.802

>  <ref_pdb>  (1736) 
B0426a

>  <inspiration_score>  (1736) 
None

>  <inchikey>  (1736) 
LBEBFJVVLUDQEC-UHFFFAOYSA-N

>  <tags>  (1736) 
BulkDock Fragalysis export,openbind_d68ev3c_c2_elabs_scored,openbind_d68ev3c_c2_elabs_scored_4.5plus,openbind_d68ev3c_c2_elabs,openbind_d68ev3c_c2_elabs_scored_5plus,syndirella_product,openbind_d68ev3c_c2_elabs_scored_top80percent,syndirella_placed

>  <smiles>  (1736) 
Cn1cc(CNCCCN2CCN(c3cccc(C(F)(F)F)c3)CC2)c(Cl)n1

>  <subsites>  (1736) 
None

>  <rmsd(smina/fragmenstein)>  (1736) 
0.532

>  <alias>  (1736) 
None

>  <energy_score>  (1736) 
-31.682913

>  <HIPPO Pose ID>  (1736) 
131853

>  <distance_score>  (1736) 
0.729902

>  <HIPPO Compound ID>  (1736) 
157853

>  <gnina_score_min>  (1736) 
5.789

>  <name>  (1736) 
P131853

>  <exports>  (1736) 
['/opt/xchem-fragalysis-2/maxwin/BulkDock/OUTPUTS/openbind_d68ev3c_c2_elabs_1LOTQJ3.sdf', '/opt/xchem-fragalysis-2/maxwin/BulkDock/OUTPUTS/openbind_d68ev3c_c2_elabs_1LSYI5W.sdf']

$$$$
P131854
     RDKit          3D

 28 30  0  0  0  0  0  0  0  0999 V2000
  -15.9754   -0.2826   11.5279 C   0  0  0  0  0  0  0  0  0  0  0  0
  -15.4127    0.5021   10.4414 N   0  0  0  0  0  0  0  0  0  0  0  0
  -13.9528    0.6440   10.5358 C   0  0  0  0  0  0  0  0  0  0  0  0
  -13.4302    1.6962    9.5494 C   0  0  0  0  0  0  0  0  0  0  0  0
  -11.9371    1.9760    9.7045 C   0  0  0  0  0  0  0  0  0  0  0  0
  -11.0937    1.3692    8.6622 N   0  0  0  0  0  0  0  0  0  0  0  0
  -11.1188   -0.1121    8.7027 C   0  0  0  0  0  0  0  0  0  0  0  0
  -10.1404   -0.7683    7.7012 C   0  0  0  0  0  0  0  0  0  0  0  0
   -8.7615   -0.2623    7.8857 N   0  0  0  0  0  0  0  0  0  0  0  0
   -7.7050   -0.9748    7.3144 C   0  0  0  0  0  0  0  0  0  0  0  0
   -7.8809   -2.1682    6.5938 C   0  0  0  0  0  0  0  0  0  0  0  0
   -6.8040   -2.8816    6.0591 C   0  0  0  0  0  0  0  0  0  0  0  0
   -5.5106   -2.4116    6.2256 C   0  0  0  0  0  0  0  0  0  0  0  0
   -5.2866   -1.2398    6.9500 C   0  0  0  0  0  0  0  0  0  0  0  0
   -3.8911   -0.7289    7.1413 C   0  0  0  0  0  0  0  0  0  0  0  0
   -3.1518   -0.8645    6.0057 F   0  0  0  0  0  0  0  0  0  0  0  0
   -3.8252    0.5949    7.4598 F   0  0  0  0  0  0  0  0  0  0  0  0
   -3.2080   -1.3856    8.1146 F   0  0  0  0  0  0  0  0  0  0  0  0
   -6.3794   -0.5560    7.5032 C   0  0  0  0  0  0  0  0  0  0  0  0
   -8.7128    1.2137    7.8390 C   0  0  0  0  0  0  0  0  0  0  0  0
   -9.6976    1.8164    8.8597 C   0  0  0  0  0  0  0  0  0  0  0  0
  -15.8351   -0.0284    9.1376 C   0  0  0  0  0  0  0  0  0  0  0  0
  -16.3391    1.0944    8.2979 C   0  0  0  0  0  0  0  0  0  0  0  0
  -17.2552    2.1101    8.6663 C   0  0  0  0  0  0  0  0  0  0  0  0
  -17.5202    2.9622    7.6726 N   0  0  0  0  0  0  0  0  0  0  0  0
  -16.7474    2.5126    6.6656 N   0  0  0  0  0  0  0  0  0  0  0  0
  -16.7132    3.2337    5.4173 C   0  0  0  0  0  0  0  0  0  0  0  0
  -16.0525    1.3809    6.9775 C   0  0  0  0  0  0  0  0  0  0  0  0
  1  2  1  0
  2  3  1  0
  3  4  1  0
  4  5  1  0
  5  6  1  0
  6  7  1  0
  7  8  1  0
  8  9  1  0
  9 10  1  0
 10 11  2  0
 11 12  1  0
 12 13  2  0
 13 14  1  0
 14 15  1  0
 15 16  1  0
 15 17  1  0
 15 18  1  0
 14 19  2  0
  9 20  1  0
 20 21  1  0
  2 22  1  0
 22 23  1  0
 23 24  1  0
 24 25  2  0
 25 26  1  0
 26 27  1  0
 26 28  1  0
 21  6  1  0
 28 23  2  0
 19 10  1  0
M  END
>  <ref_mols>  (1737) 
B0426a

>  <gnina_score>  (1737) 
5.461

>  <smina_score_min>  (1737) 
-5.728

>  <ref_pdb>  (1737) 
B0426a

>  <inspiration_score>  (1737) 
None

>  <inchikey>  (1737) 
XIJWKEWPRGQMHE-UHFFFAOYSA-N

>  <tags>  (1737) 
BulkDock Fragalysis export,openbind_d68ev3c_c2_elabs_scored,openbind_d68ev3c_c2_elabs_scored_4.5plus,openbind_d68ev3c_c2_elabs,openbind_d68ev3c_c2_elabs_scored_5plus,syndirella_product,openbind_d68ev3c_c2_elabs_scored_top80percent,syndirella_placed

>  <smiles>  (1737) 
CN(CCCN1CCN(c2cccc(C(F)(F)F)c2)CC1)Cc1cnn(C)c1

>  <subsites>  (1737) 
None

>  <rmsd(smina/fragmenstein)>  (1737) 
1.296

>  <alias>  (1737) 
None

>  <energy_score>  (1737) 
-56.976872

>  <HIPPO Pose ID>  (1737) 
131854

>  <distance_score>  (1737) 
0.620787

>  <HIPPO Compound ID>  (1737) 
157854

>  <gnina_score_min>  (1737) 
5.34

>  <name>  (1737) 
P131854

>  <exports>  (1737) 
['/opt/xchem-fragalysis-2/maxwin/BulkDock/OUTPUTS/openbind_d68ev3c_c2_elabs_1LOTQJ3.sdf', '/opt/xchem-fragalysis-2/maxwin/BulkDock/OUTPUTS/openbind_d68ev3c_c2_elabs_1LSYI5W.sdf']

$$$$
P131855
     RDKit          3D

 28 30  0  0  0  0  0  0  0  0999 V2000
  -20.3032   -0.2089    5.8647 C   0  0  0  0  0  0  0  0  0  0  0  0
  -19.0338   -0.5147    6.4790 N   0  0  0  0  0  0  0  0  0  0  0  0
  -18.2419    0.3375    7.1911 C   0  0  0  0  0  0  0  0  0  0  0  0
  -17.0731   -0.3465    7.4592 C   0  0  0  0  0  0  0  0  0  0  0  0
  -15.8299    0.1359    8.1344 C   0  0  0  0  0  0  0  0  0  0  0  0
  -16.0529    0.1562    9.5878 N   0  0  0  0  0  0  0  0  0  0  0  0
  -14.8288   -0.1438   10.3297 C   0  0  0  0  0  0  0  0  0  0  0  0
  -13.8615    1.0080   10.5836 C   0  0  0  0  0  0  0  0  0  0  0  0
  -13.4070    1.7346    9.3189 C   0  0  0  0  0  0  0  0  0  0  0  0
  -11.9642    2.2343    9.3961 C   0  0  0  0  0  0  0  0  0  0  0  0
  -11.0636    1.4530    8.5371 N   0  0  0  0  0  0  0  0  0  0  0  0
   -9.7047    2.0312    8.5656 C   0  0  0  0  0  0  0  0  0  0  0  0
   -8.7098    1.2766    7.6560 C   0  0  0  0  0  0  0  0  0  0  0  0
   -8.6663   -0.1601    7.9987 N   0  0  0  0  0  0  0  0  0  0  0  0
   -7.6454   -0.9107    7.4027 C   0  0  0  0  0  0  0  0  0  0  0  0
   -7.8629   -2.1291    6.7368 C   0  0  0  0  0  0  0  0  0  0  0  0
   -6.8135   -2.8672    6.1843 C   0  0  0  0  0  0  0  0  0  0  0  0
   -5.5118   -2.3999    6.2889 C   0  0  0  0  0  0  0  0  0  0  0  0
   -5.2527   -1.2024    6.9611 C   0  0  0  0  0  0  0  0  0  0  0  0
   -3.8473   -0.7050    7.0940 C   0  0  0  0  0  0  0  0  0  0  0  0
   -3.1389   -1.3550    8.0539 F   0  0  0  0  0  0  0  0  0  0  0  0
   -3.7549    0.6224    7.3894 F   0  0  0  0  0  0  0  0  0  0  0  0
   -3.1517   -0.8685    5.9353 F   0  0  0  0  0  0  0  0  0  0  0  0
   -6.3173   -0.4832    7.5191 C   0  0  0  0  0  0  0  0  0  0  0  0
  -10.0097   -0.7705    8.0336 C   0  0  0  0  0  0  0  0  0  0  0  0
  -10.9687    0.0293    8.9375 C   0  0  0  0  0  0  0  0  0  0  0  0
  -17.2915   -1.6221    6.8848 C   0  0  0  0  0  0  0  0  0  0  0  0
  -18.5092   -1.7518    6.3444 N   0  0  0  0  0  0  0  0  0  0  0  0
  1  2  1  0
  2  3  1  0
  3  4  2  0
  4  5  1  0
  5  6  1  0
  6  7  1  0
  7  8  1  0
  8  9  1  0
  9 10  1  0
 10 11  1  0
 11 12  1  0
 12 13  1  0
 13 14  1  0
 14 15  1  0
 15 16  2  0
 16 17  1  0
 17 18  2  0
 18 19  1  0
 19 20  1  0
 20 21  1  0
 20 22  1  0
 20 23  1  0
 19 24  2  0
 14 25  1  0
 25 26  1  0
  4 27  1  0
 27 28  2  0
 28  2  1  0
 26 11  1  0
 24 15  1  0
M  END
>  <ref_mols>  (1738) 
B0426a

>  <gnina_score>  (1738) 
5.401

>  <smina_score_min>  (1738) 
-5.513

>  <ref_pdb>  (1738) 
B0426a

>  <inspiration_score>  (1738) 
None

>  <inchikey>  (1738) 
OYROPWOLOFKLKA-UHFFFAOYSA-N

>  <tags>  (1738) 
BulkDock Fragalysis export,openbind_d68ev3c_c2_elabs_scored,openbind_d68ev3c_c2_elabs_scored_4.5plus,openbind_d68ev3c_c2_elabs,openbind_d68ev3c_c2_elabs_scored_5plus,syndirella_product,openbind_d68ev3c_c2_elabs_scored_top80percent,syndirella_placed

>  <smiles>  (1738) 
Cn1cc(CNCCCCN2CCN(c3cccc(C(F)(F)F)c3)CC2)cn1

>  <subsites>  (1738) 
None

>  <rmsd(smina/fragmenstein)>  (1738) 
0.612

>  <alias>  (1738) 
None

>  <energy_score>  (1738) 
-61.191887

>  <HIPPO Pose ID>  (1738) 
131855

>  <distance_score>  (1738) 
0.569575

>  <HIPPO Compound ID>  (1738) 
157856

>  <gnina_score_min>  (1738) 
5.353

>  <name>  (1738) 
P131855

>  <exports>  (1738) 
['/opt/xchem-fragalysis-2/maxwin/BulkDock/OUTPUTS/openbind_d68ev3c_c2_elabs_1LOTQJ3.sdf', '/opt/xchem-fragalysis-2/maxwin/BulkDock/OUTPUTS/openbind_d68ev3c_c2_elabs_1LSYI5W.sdf']

$$$$
P131856
     RDKit          3D

 28 30  0  0  0  0  0  0  0  0999 V2000
   -9.0493    5.6621    7.1858 C   0  0  0  0  0  0  0  0  0  0  0  0
   -8.7749    4.2126    7.5602 C   0  0  0  0  0  0  0  0  0  0  0  0
  -10.0783    3.4365    7.7842 C   0  0  0  0  0  0  0  0  0  0  0  0
   -9.8915    2.0070    8.3656 C   0  0  2  0  0  0  0  0  0  0  0  0
   -8.8724    1.2056    7.4856 C   0  0  0  0  0  0  0  0  0  0  0  0
   -8.7221   -0.1886    7.9449 N   0  0  0  0  0  0  0  0  0  0  0  0
   -7.6807   -0.9227    7.3618 C   0  0  0  0  0  0  0  0  0  0  0  0
   -7.8685   -2.1515    6.7056 C   0  0  0  0  0  0  0  0  0  0  0  0
   -6.7987   -2.8780    6.1797 C   0  0  0  0  0  0  0  0  0  0  0  0
   -5.5070   -2.3885    6.3035 C   0  0  0  0  0  0  0  0  0  0  0  0
   -5.2780   -1.1763    6.9625 C   0  0  0  0  0  0  0  0  0  0  0  0
   -3.8783   -0.6670    7.1174 C   0  0  0  0  0  0  0  0  0  0  0  0
   -3.1590   -0.8407    5.9744 F   0  0  0  0  0  0  0  0  0  0  0  0
   -3.1843   -1.3033    8.0974 F   0  0  0  0  0  0  0  0  0  0  0  0
   -3.7993    0.6634    7.3997 F   0  0  0  0  0  0  0  0  0  0  0  0
   -6.3638   -0.4632    7.4882 C   0  0  0  0  0  0  0  0  0  0  0  0
  -10.0138   -0.8736    8.0712 C   0  0  0  0  0  0  0  0  0  0  0  0
  -10.9580   -0.0823    8.9834 C   0  0  0  0  0  0  0  0  0  0  0  0
  -11.2118    1.3019    8.5056 N   0  0  0  0  0  0  0  0  0  0  0  0
  -12.1126    2.0170    9.4304 C   0  0  0  0  0  0  0  0  0  0  0  0
  -13.3843    1.2798    9.6895 C   0  0  0  0  0  0  0  0  0  0  0  0
  -13.8435    0.7487   10.9328 C   0  0  0  0  0  0  0  0  0  0  0  0
  -13.1596    0.7963   12.2512 C   0  0  0  0  0  0  0  0  0  0  0  0
  -15.0408    0.1540   10.8214 N   0  0  0  0  0  0  0  0  0  0  0  0
  -15.3652    0.3235    9.5191 N   0  0  0  0  0  0  0  0  0  0  0  0
  -16.6669   -0.0832    9.0533 C   0  0  0  0  0  0  0  0  0  0  0  0
  -14.4014    0.9782    8.8180 C   0  0  0  0  0  0  0  0  0  0  0  0
  -14.5926    1.3116    7.1594 Cl  0  0  0  0  0  0  0  0  0  0  0  0
  1  2  1  0
  2  3  1  0
  4  3  1  6
  4  5  1  0
  5  6  1  0
  6  7  1  0
  7  8  2  0
  8  9  1  0
  9 10  2  0
 10 11  1  0
 11 12  1  0
 12 13  1  0
 12 14  1  0
 12 15  1  0
 11 16  2  0
  6 17  1  0
 17 18  1  0
 18 19  1  0
 19 20  1  0
 20 21  1  0
 21 22  1  0
 22 23  1  0
 22 24  2  0
 24 25  1  0
 25 26  1  0
 25 27  1  0
 27 28  1  0
 19  4  1  0
 27 21  2  0
 16  7  1  0
M  END
>  <ref_mols>  (1739) 
B0426a

>  <gnina_score>  (1739) 
5.962

>  <smina_score_min>  (1739) 
-5.803

>  <ref_pdb>  (1739) 
B0426a

>  <inspiration_score>  (1739) 
None

>  <inchikey>  (1739) 
CNFTVRUXDNVFMY-QGZVFWFLSA-N

>  <tags>  (1739) 
BulkDock Fragalysis export,openbind_d68ev3c_c2_elabs_scored,openbind_d68ev3c_c2_elabs_scored_4.5plus,openbind_d68ev3c_c2_elabs,openbind_d68ev3c_c2_elabs_scored_5plus,syndirella_product,openbind_d68ev3c_c2_elabs_scored_top80percent,syndirella_placed

>  <smiles>  (1739) 
CCC[C@@H]1CN(c2cccc(C(F)(F)F)c2)CCN1Cc1c(C)nn(C)c1Cl

>  <subsites>  (1739) 
None

>  <rmsd(smina/fragmenstein)>  (1739) 
0.59

>  <alias>  (1739) 
None

>  <energy_score>  (1739) 
-50.889078

>  <HIPPO Pose ID>  (1739) 
131856

>  <distance_score>  (1739) 
0.441418

>  <HIPPO Compound ID>  (1739) 
157858

>  <gnina_score_min>  (1739) 
6.182

>  <name>  (1739) 
P131856

>  <exports>  (1739) 
['/opt/xchem-fragalysis-2/maxwin/BulkDock/OUTPUTS/openbind_d68ev3c_c2_elabs_1LOTQJ3.sdf', '/opt/xchem-fragalysis-2/maxwin/BulkDock/OUTPUTS/openbind_d68ev3c_c2_elabs_1LSYI5W.sdf']

$$$$
P131858
     RDKit          3D

 28 30  0  0  0  0  0  0  0  0999 V2000
  -11.6901    1.8027   15.0224 F   0  0  0  0  0  0  0  0  0  0  0  0
  -12.7254    1.1737   14.4118 C   0  0  0  0  0  0  0  0  0  0  0  0
  -13.5541    2.2062   13.6967 C   0  0  0  0  0  0  0  0  0  0  0  0
  -14.5192    1.5832   12.8253 N   0  0  0  0  0  0  0  0  0  0  0  0
  -14.2217    0.8239   11.7397 C   0  0  0  0  0  0  0  0  0  0  0  0
  -15.3930    0.6935   11.0260 C   0  0  0  0  0  0  0  0  0  0  0  0
  -15.5825    0.1076    9.6757 C   0  0  0  0  0  0  0  0  0  0  0  0
  -14.3064    0.0922    8.9693 N   0  0  0  0  0  0  0  0  0  0  0  0
  -13.8875    1.4039    8.4607 C   0  0  0  0  0  0  0  0  0  0  0  0
  -12.4349    1.8088    8.8274 C   0  0  0  0  0  0  0  0  0  0  0  0
  -11.3517    1.1956    8.0350 N   0  0  0  0  0  0  0  0  0  0  0  0
  -11.3240   -0.2744    8.1887 C   0  0  0  0  0  0  0  0  0  0  0  0
  -10.1673   -0.9330    7.4172 C   0  0  0  0  0  0  0  0  0  0  0  0
   -8.8480   -0.3797    7.7936 N   0  0  0  0  0  0  0  0  0  0  0  0
   -7.7218   -1.0565    7.2929 C   0  0  0  0  0  0  0  0  0  0  0  0
   -7.8096   -2.2947    6.6259 C   0  0  0  0  0  0  0  0  0  0  0  0
   -6.6866   -2.9736    6.1476 C   0  0  0  0  0  0  0  0  0  0  0  0
   -5.4270   -2.4303    6.3279 C   0  0  0  0  0  0  0  0  0  0  0  0
   -5.2846   -1.2176    7.0052 C   0  0  0  0  0  0  0  0  0  0  0  0
   -3.9143   -0.6471    7.2102 C   0  0  0  0  0  0  0  0  0  0  0  0
   -3.1468   -0.7914    6.0951 F   0  0  0  0  0  0  0  0  0  0  0  0
   -3.9042    0.6856    7.4917 F   0  0  0  0  0  0  0  0  0  0  0  0
   -3.2303   -1.2520    8.2159 F   0  0  0  0  0  0  0  0  0  0  0  0
   -6.4255   -0.5590    7.4940 C   0  0  0  0  0  0  0  0  0  0  0  0
   -8.8314    1.1015    7.7598 C   0  0  0  0  0  0  0  0  0  0  0  0
  -10.0418    1.7079    8.5102 C   0  0  0  0  0  0  0  0  0  0  0  0
  -16.3661    1.2721   11.8742 C   0  0  0  0  0  0  0  0  0  0  0  0
  -15.8380    1.7862   12.9904 N   0  0  0  0  0  0  0  0  0  0  0  0
  1  2  1  0
  2  3  1  0
  3  4  1  0
  4  5  1  0
  5  6  2  0
  6  7  1  0
  7  8  1  0
  8  9  1  0
  9 10  1  0
 10 11  1  0
 11 12  1  0
 12 13  1  0
 13 14  1  0
 14 15  1  0
 15 16  2  0
 16 17  1  0
 17 18  2  0
 18 19  1  0
 19 20  1  0
 20 21  1  0
 20 22  1  0
 20 23  1  0
 19 24  2  0
 14 25  1  0
 25 26  1  0
  6 27  1  0
 27 28  2  0
 28  4  1  0
 26 11  1  0
 24 15  1  0
M  END
>  <ref_mols>  (1740) 
B0426a

>  <gnina_score>  (1740) 
5.601

>  <smina_score_min>  (1740) 
-6.208

>  <ref_pdb>  (1740) 
B0426a

>  <inspiration_score>  (1740) 
None

>  <inchikey>  (1740) 
YPGXKDTYPNSOEF-UHFFFAOYSA-N

>  <tags>  (1740) 
BulkDock Fragalysis export,openbind_d68ev3c_c2_elabs_scored,openbind_d68ev3c_c2_elabs_scored_4.5plus,openbind_d68ev3c_c2_elabs,openbind_d68ev3c_c2_elabs_scored_5plus,syndirella_product,openbind_d68ev3c_c2_elabs_scored_top80percent,syndirella_placed

>  <smiles>  (1740) 
FCCn1cc(CNCCN2CCN(c3cccc(C(F)(F)F)c3)CC2)cn1

>  <subsites>  (1740) 
None

>  <rmsd(smina/fragmenstein)>  (1740) 
0.591

>  <alias>  (1740) 
None

>  <energy_score>  (1740) 
-45.428008

>  <HIPPO Pose ID>  (1740) 
131858

>  <distance_score>  (1740) 
0.515276

>  <HIPPO Compound ID>  (1740) 
157859

>  <gnina_score_min>  (1740) 
5.571

>  <name>  (1740) 
P131858

>  <exports>  (1740) 
['/opt/xchem-fragalysis-2/maxwin/BulkDock/OUTPUTS/openbind_d68ev3c_c2_elabs_1LOTQJ3.sdf', '/opt/xchem-fragalysis-2/maxwin/BulkDock/OUTPUTS/openbind_d68ev3c_c2_elabs_1LSYI5W.sdf']

$$$$
P131860
     RDKit          3D

 28 30  0  0  0  0  0  0  0  0999 V2000
  -12.2005    2.7060   13.2229 C   0  0  0  0  0  0  0  0  0  0  0  0
  -12.9412    1.6043   13.9680 C   0  0  0  0  0  0  0  0  0  0  0  0
  -14.0120    1.0698   13.1498 N   0  0  0  0  0  0  0  0  0  0  0  0
  -13.8426    0.4396   11.9543 C   0  0  0  0  0  0  0  0  0  0  0  0
  -15.0590    0.5100   11.3049 C   0  0  0  0  0  0  0  0  0  0  0  0
  -15.3744    0.1965    9.8825 C   0  0  1  0  0  0  0  0  0  0  0  0
  -16.4669    0.9540    9.3922 O   0  0  0  0  0  0  0  0  0  0  0  0
  -14.2360    0.4063    9.0058 N   0  0  0  0  0  0  0  0  0  0  0  0
  -13.5628    1.7043    9.1010 C   0  0  0  0  0  0  0  0  0  0  0  0
  -12.6149    2.0189    7.9246 C   0  0  0  0  0  0  0  0  0  0  0  0
  -11.3778    1.2656    7.7294 N   0  0  0  0  0  0  0  0  0  0  0  0
  -11.5582   -0.1903    7.6550 C   0  0  0  0  0  0  0  0  0  0  0  0
  -10.2859   -0.8776    7.1257 C   0  0  0  0  0  0  0  0  0  0  0  0
   -9.0591   -0.5205    7.8904 N   0  0  0  0  0  0  0  0  0  0  0  0
   -7.8829   -1.1588    7.4355 C   0  0  0  0  0  0  0  0  0  0  0  0
   -7.9158   -2.4636    6.9051 C   0  0  0  0  0  0  0  0  0  0  0  0
   -6.7767   -3.1053    6.4131 C   0  0  0  0  0  0  0  0  0  0  0  0
   -5.5467   -2.4709    6.4745 C   0  0  0  0  0  0  0  0  0  0  0  0
   -5.4473   -1.1996    7.0446 C   0  0  0  0  0  0  0  0  0  0  0  0
   -4.0963   -0.5517    7.1559 C   0  0  0  0  0  0  0  0  0  0  0  0
   -3.3703   -0.6840    6.0093 F   0  0  0  0  0  0  0  0  0  0  0  0
   -4.1396    0.7861    7.4089 F   0  0  0  0  0  0  0  0  0  0  0  0
   -3.3316   -1.0942    8.1418 F   0  0  0  0  0  0  0  0  0  0  0  0
   -6.6107   -0.5643    7.5230 C   0  0  0  0  0  0  0  0  0  0  0  0
   -8.9709    0.9176    8.2475 C   0  0  0  0  0  0  0  0  0  0  0  0
  -10.3190    1.5270    8.7145 C   0  0  0  0  0  0  0  0  0  0  0  0
  -15.9366    0.9860   12.3115 C   0  0  0  0  0  0  0  0  0  0  0  0
  -15.3024    1.3191   13.4414 N   0  0  0  0  0  0  0  0  0  0  0  0
  1  2  1  0
  2  3  1  0
  3  4  1  0
  4  5  2  0
  5  6  1  0
  6  7  1  6
  6  8  1  0
  8  9  1  0
  9 10  1  0
 10 11  1  0
 11 12  1  0
 12 13  1  0
 13 14  1  0
 14 15  1  0
 15 16  2  0
 16 17  1  0
 17 18  2  0
 18 19  1  0
 19 20  1  0
 20 21  1  0
 20 22  1  0
 20 23  1  0
 19 24  2  0
 14 25  1  0
 25 26  1  0
  5 27  1  0
 27 28  2  0
 28  3  1  0
 26 11  1  0
 24 15  1  0
M  END
>  <ref_mols>  (1741) 
B0426a

>  <gnina_score>  (1741) 
5.588

>  <smina_score_min>  (1741) 
-6.086

>  <ref_pdb>  (1741) 
B0426a

>  <inspiration_score>  (1741) 
None

>  <inchikey>  (1741) 
RAKKSJAVPXUASC-GOSISDBHSA-N

>  <tags>  (1741) 
BulkDock Fragalysis export,openbind_d68ev3c_c2_elabs_scored,openbind_d68ev3c_c2_elabs_scored_4.5plus,openbind_d68ev3c_c2_elabs,openbind_d68ev3c_c2_elabs_scored_5plus,syndirella_product,openbind_d68ev3c_c2_elabs_scored_top80percent,syndirella_placed

>  <smiles>  (1741) 
CCn1cc([C@@H](O)NCCN2CCN(c3cccc(C(F)(F)F)c3)CC2)cn1

>  <subsites>  (1741) 
None

>  <rmsd(smina/fragmenstein)>  (1741) 
0.913

>  <alias>  (1741) 
None

>  <energy_score>  (1741) 
-39.883032

>  <HIPPO Pose ID>  (1741) 
131860

>  <distance_score>  (1741) 
0.537714

>  <HIPPO Compound ID>  (1741) 
157860

>  <gnina_score_min>  (1741) 
5.488

>  <name>  (1741) 
P131860

>  <exports>  (1741) 
['/opt/xchem-fragalysis-2/maxwin/BulkDock/OUTPUTS/openbind_d68ev3c_c2_elabs_1LOTQJ3.sdf', '/opt/xchem-fragalysis-2/maxwin/BulkDock/OUTPUTS/openbind_d68ev3c_c2_elabs_1LSYI5W.sdf']

$$$$
P131861
     RDKit          3D

 28 30  0  0  0  0  0  0  0  0999 V2000
  -18.0045    1.0122    5.7443 C   0  0  0  0  0  0  0  0  0  0  0  0
  -17.4768    1.1501    7.0828 N   0  0  0  0  0  0  0  0  0  0  0  0
  -16.8755    2.3181    7.4097 N   0  0  0  0  0  0  0  0  0  0  0  0
  -16.4704    2.0992    8.6533 C   0  0  0  0  0  0  0  0  0  0  0  0
  -16.8150    0.8167    9.1394 C   0  0  0  0  0  0  0  0  0  0  0  0
  -16.6350    0.3430   10.5395 C   0  0  0  0  0  0  0  0  0  0  0  0
  -15.2895   -0.0627   10.9599 N   0  0  0  0  0  0  0  0  0  0  0  0
  -14.2530    0.9532   10.8400 C   0  0  0  0  0  0  0  0  0  0  0  0
  -13.4528    0.7003    9.5699 C   0  0  0  0  0  0  0  0  0  0  0  0
  -12.1392    1.4929    9.5489 C   0  0  0  0  0  0  0  0  0  0  0  0
  -11.2076    1.1190    8.4607 N   0  0  0  0  0  0  0  0  0  0  0  0
  -11.1568   -0.3535    8.3089 C   0  0  0  0  0  0  0  0  0  0  0  0
  -10.0929   -0.8837    7.3465 C   0  0  0  0  0  0  0  0  0  0  0  0
   -8.7554   -0.3608    7.6947 N   0  0  0  0  0  0  0  0  0  0  0  0
   -7.6440   -1.0288    7.1853 C   0  0  0  0  0  0  0  0  0  0  0  0
   -7.7421   -2.2316    6.4592 C   0  0  0  0  0  0  0  0  0  0  0  0
   -6.6233   -2.9221    5.9915 C   0  0  0  0  0  0  0  0  0  0  0  0
   -5.3586   -2.4177    6.2318 C   0  0  0  0  0  0  0  0  0  0  0  0
   -5.2105   -1.2334    6.9567 C   0  0  0  0  0  0  0  0  0  0  0  0
   -3.8415   -0.6896    7.2105 C   0  0  0  0  0  0  0  0  0  0  0  0
   -3.0464   -0.8416    6.1165 F   0  0  0  0  0  0  0  0  0  0  0  0
   -3.8130    0.6418    7.4981 F   0  0  0  0  0  0  0  0  0  0  0  0
   -3.1952   -1.3121    8.2299 F   0  0  0  0  0  0  0  0  0  0  0  0
   -6.3467   -0.5702    7.4422 C   0  0  0  0  0  0  0  0  0  0  0  0
   -8.7623    1.1174    7.7854 C   0  0  0  0  0  0  0  0  0  0  0  0
   -9.8471    1.6049    8.7766 C   0  0  0  0  0  0  0  0  0  0  0  0
  -17.5554    0.2102    8.1114 C   0  0  0  0  0  0  0  0  0  0  0  0
  -18.1859   -0.8252    7.9551 O   0  0  0  0  0  0  0  0  0  0  0  0
  1  2  1  0
  2  3  1  0
  3  4  2  0
  4  5  1  0
  5  6  1  0
  6  7  1  0
  7  8  1  0
  8  9  1  0
  9 10  1  0
 10 11  1  0
 11 12  1  0
 12 13  1  0
 13 14  1  0
 14 15  1  0
 15 16  2  0
 16 17  1  0
 17 18  2  0
 18 19  1  0
 19 20  1  0
 20 21  1  0
 20 22  1  0
 20 23  1  0
 19 24  2  0
 14 25  1  0
 25 26  1  0
  5 27  2  0
 27 28  1  0
 27  2  1  0
 26 11  1  0
 24 15  1  0
M  CHG  1  28  -1
M  END
>  <ref_mols>  (1742) 
B0426a

>  <gnina_score>  (1742) 
5.401

>  <smina_score_min>  (1742) 
-5.861

>  <ref_pdb>  (1742) 
B0426a

>  <inspiration_score>  (1742) 
None

>  <inchikey>  (1742) 
MHYPJTHNZYTLBB-UHFFFAOYSA-M

>  <tags>  (1742) 
BulkDock Fragalysis export,openbind_d68ev3c_c2_elabs_scored,openbind_d68ev3c_c2_elabs_scored_4.5plus,openbind_d68ev3c_c2_elabs,openbind_d68ev3c_c2_elabs_scored_5plus,syndirella_product,openbind_d68ev3c_c2_elabs_scored_top80percent,syndirella_placed

>  <smiles>  (1742) 
Cn1ncc(CNCCCN2CCN(c3cccc(C(F)(F)F)c3)CC2)c1[O-]

>  <subsites>  (1742) 
None

>  <rmsd(smina/fragmenstein)>  (1742) 
0.489

>  <alias>  (1742) 
None

>  <energy_score>  (1742) 
-73.428516

>  <HIPPO Pose ID>  (1742) 
131861

>  <distance_score>  (1742) 
0.723411

>  <HIPPO Compound ID>  (1742) 
157861

>  <gnina_score_min>  (1742) 
5.378

>  <name>  (1742) 
P131861

>  <exports>  (1742) 
['/opt/xchem-fragalysis-2/maxwin/BulkDock/OUTPUTS/openbind_d68ev3c_c2_elabs_1LOTQJ3.sdf', '/opt/xchem-fragalysis-2/maxwin/BulkDock/OUTPUTS/openbind_d68ev3c_c2_elabs_1LSYI5W.sdf']

$$$$
P131862
     RDKit          3D

 28 30  0  0  0  0  0  0  0  0999 V2000
  -15.2489    2.5547    5.2695 C   0  0  0  0  0  0  0  0  0  0  0  0
  -15.3602    1.5252    6.2701 N   0  0  0  0  0  0  0  0  0  0  0  0
  -14.9331    0.2686    6.0246 N   0  0  0  0  0  0  0  0  0  0  0  0
  -15.1366   -0.3546    7.1894 C   0  0  0  0  0  0  0  0  0  0  0  0
  -15.6798    0.4889    8.1917 C   0  0  0  0  0  0  0  0  0  0  0  0
  -16.0346    0.1511    9.5901 C   0  0  0  0  0  0  0  0  0  0  0  0
  -14.8508   -0.1770   10.3736 N   0  0  0  0  0  0  0  0  0  0  0  0
  -14.1226    0.9880   10.8738 C   0  0  0  0  0  0  0  0  0  0  0  0
  -12.6531    0.9765   10.4588 C   0  0  0  0  0  0  0  0  0  0  0  0
  -12.3835    1.7146    9.1402 C   0  0  0  0  0  0  0  0  0  0  0  0
  -11.1738    1.3245    8.4063 N   0  0  0  0  0  0  0  0  0  0  0  0
  -11.3333   -0.0150    7.7989 C   0  0  0  0  0  0  0  0  0  0  0  0
  -10.0977   -0.4828    7.0065 C   0  0  0  0  0  0  0  0  0  0  0  0
   -8.8733   -0.4088    7.8360 N   0  0  0  0  0  0  0  0  0  0  0  0
   -7.7539   -1.0867    7.3452 C   0  0  0  0  0  0  0  0  0  0  0  0
   -7.8690   -2.3966    6.8486 C   0  0  0  0  0  0  0  0  0  0  0  0
   -6.7720   -3.1012    6.3507 C   0  0  0  0  0  0  0  0  0  0  0  0
   -5.5128   -2.5193    6.3706 C   0  0  0  0  0  0  0  0  0  0  0  0
   -5.3426   -1.2388    6.9007 C   0  0  0  0  0  0  0  0  0  0  0  0
   -3.9689   -0.6406    6.9679 C   0  0  0  0  0  0  0  0  0  0  0  0
   -3.9543    0.6957    7.2357 F   0  0  0  0  0  0  0  0  0  0  0  0
   -3.2988   -0.7848    5.7903 F   0  0  0  0  0  0  0  0  0  0  0  0
   -3.1848   -1.2195    7.9167 F   0  0  0  0  0  0  0  0  0  0  0  0
   -6.4622   -0.5393    7.3773 C   0  0  0  0  0  0  0  0  0  0  0  0
   -8.6978    0.9151    8.4648 C   0  0  0  0  0  0  0  0  0  0  0  0
   -9.9608    1.3390    9.2423 C   0  0  0  0  0  0  0  0  0  0  0  0
  -15.8319    1.6884    7.5372 C   0  0  0  0  0  0  0  0  0  0  0  0
  -16.3219    2.8194    8.0627 F   0  0  0  0  0  0  0  0  0  0  0  0
  1  2  1  0
  2  3  1  0
  3  4  2  0
  4  5  1  0
  5  6  1  0
  6  7  1  0
  7  8  1  0
  8  9  1  0
  9 10  1  0
 10 11  1  0
 11 12  1  0
 12 13  1  0
 13 14  1  0
 14 15  1  0
 15 16  2  0
 16 17  1  0
 17 18  2  0
 18 19  1  0
 19 20  1  0
 20 21  1  0
 20 22  1  0
 20 23  1  0
 19 24  2  0
 14 25  1  0
 25 26  1  0
  5 27  2  0
 27 28  1  0
 27  2  1  0
 26 11  1  0
 24 15  1  0
M  END
>  <ref_mols>  (1743) 
B0426a

>  <gnina_score>  (1743) 
5.447

>  <smina_score_min>  (1743) 
-6.234

>  <ref_pdb>  (1743) 
B0426a

>  <inspiration_score>  (1743) 
None

>  <inchikey>  (1743) 
IMPWBYVYEMOPTF-UHFFFAOYSA-N

>  <tags>  (1743) 
BulkDock Fragalysis export,openbind_d68ev3c_c2_elabs_scored,openbind_d68ev3c_c2_elabs_scored_4.5plus,openbind_d68ev3c_c2_elabs,openbind_d68ev3c_c2_elabs_scored_5plus,syndirella_product,openbind_d68ev3c_c2_elabs_scored_top80percent,syndirella_placed

>  <smiles>  (1743) 
Cn1ncc(CNCCCN2CCN(c3cccc(C(F)(F)F)c3)CC2)c1F

>  <subsites>  (1743) 
None

>  <rmsd(smina/fragmenstein)>  (1743) 
1.436

>  <alias>  (1743) 
None

>  <energy_score>  (1743) 
-46.735677

>  <HIPPO Pose ID>  (1743) 
131862

>  <distance_score>  (1743) 
0.520999

>  <HIPPO Compound ID>  (1743) 
157862

>  <gnina_score_min>  (1743) 
5.389

>  <name>  (1743) 
P131862

>  <exports>  (1743) 
['/opt/xchem-fragalysis-2/maxwin/BulkDock/OUTPUTS/openbind_d68ev3c_c2_elabs_1LOTQJ3.sdf', '/opt/xchem-fragalysis-2/maxwin/BulkDock/OUTPUTS/openbind_d68ev3c_c2_elabs_1LSYI5W.sdf']

$$$$
P131863
     RDKit          3D

 28 30  0  0  0  0  0  0  0  0999 V2000
  -17.7593    1.3275   11.9567 C   0  0  0  0  0  0  0  0  0  0  0  0
  -16.3328    1.1261   12.3161 C   0  0  0  0  0  0  0  0  0  0  0  0
  -15.8962    1.4601   13.5421 N   0  0  0  0  0  0  0  0  0  0  0  0
  -14.5800    1.1761   13.4927 N   0  0  0  0  0  0  0  0  0  0  0  0
  -13.7207    1.4832   14.6035 C   0  0  0  0  0  0  0  0  0  0  0  0
  -14.1987    0.6022   12.3263 C   0  0  0  0  0  0  0  0  0  0  0  0
  -12.9727    0.1380   12.0485 F   0  0  0  0  0  0  0  0  0  0  0  0
  -15.2929    0.5913   11.4949 C   0  0  0  0  0  0  0  0  0  0  0  0
  -15.3733    0.1194   10.0888 C   0  0  0  0  0  0  0  0  0  0  0  0
  -14.7476    1.0859    9.1828 N   0  0  0  0  0  0  0  0  0  0  0  0
  -13.2825    1.0196    9.2673 C   0  0  0  0  0  0  0  0  0  0  0  0
  -12.5977    1.8013    8.1344 C   0  0  0  0  0  0  0  0  0  0  0  0
  -11.2591    1.3392    7.7420 N   0  0  0  0  0  0  0  0  0  0  0  0
  -11.3285   -0.0071    7.1324 C   0  0  0  0  0  0  0  0  0  0  0  0
   -9.9651   -0.4769    6.6088 C   0  0  0  0  0  0  0  0  0  0  0  0
   -8.9500   -0.4614    7.6875 N   0  0  0  0  0  0  0  0  0  0  0  0
   -7.7659   -1.1211    7.3354 C   0  0  0  0  0  0  0  0  0  0  0  0
   -7.8227   -2.4424    6.8554 C   0  0  0  0  0  0  0  0  0  0  0  0
   -6.6866   -3.1230    6.4242 C   0  0  0  0  0  0  0  0  0  0  0  0
   -5.4477   -2.5053    6.5064 C   0  0  0  0  0  0  0  0  0  0  0  0
   -5.3387   -1.2147    7.0358 C   0  0  0  0  0  0  0  0  0  0  0  0
   -3.9829   -0.5835    7.1520 C   0  0  0  0  0  0  0  0  0  0  0  0
   -3.2674   -0.7212    6.0009 F   0  0  0  0  0  0  0  0  0  0  0  0
   -4.0098    0.7537    7.4103 F   0  0  0  0  0  0  0  0  0  0  0  0
   -3.2220   -1.1403    8.1317 F   0  0  0  0  0  0  0  0  0  0  0  0
   -6.4978   -0.5379    7.4490 C   0  0  0  0  0  0  0  0  0  0  0  0
   -8.8810    0.8427    8.3810 C   0  0  0  0  0  0  0  0  0  0  0  0
  -10.2844    1.3047    8.8526 C   0  0  0  0  0  0  0  0  0  0  0  0
  1  2  1  0
  2  3  2  0
  3  4  1  0
  4  5  1  0
  4  6  1  0
  6  7  1  0
  6  8  2  0
  8  9  1  0
  9 10  1  0
 10 11  1  0
 11 12  1  0
 12 13  1  0
 13 14  1  0
 14 15  1  0
 15 16  1  0
 16 17  1  0
 17 18  2  0
 18 19  1  0
 19 20  2  0
 20 21  1  0
 21 22  1  0
 22 23  1  0
 22 24  1  0
 22 25  1  0
 21 26  2  0
 16 27  1  0
 27 28  1  0
  8  2  1  0
 28 13  1  0
 26 17  1  0
M  END
>  <ref_mols>  (1744) 
B0426a

>  <gnina_score>  (1744) 
5.631

>  <smina_score_min>  (1744) 
-6.523

>  <ref_pdb>  (1744) 
B0426a

>  <inspiration_score>  (1744) 
None

>  <inchikey>  (1744) 
KJYAZFDEYJNBLD-UHFFFAOYSA-N

>  <tags>  (1744) 
BulkDock Fragalysis export,openbind_d68ev3c_c2_elabs_scored,openbind_d68ev3c_c2_elabs_scored_4.5plus,openbind_d68ev3c_c2_elabs,openbind_d68ev3c_c2_elabs_scored_5plus,syndirella_product,openbind_d68ev3c_c2_elabs_scored_top80percent,syndirella_placed

>  <smiles>  (1744) 
Cc1nn(C)c(F)c1CNCCN1CCN(c2cccc(C(F)(F)F)c2)CC1

>  <subsites>  (1744) 
None

>  <rmsd(smina/fragmenstein)>  (1744) 
0.616

>  <alias>  (1744) 
None

>  <energy_score>  (1744) 
-56.723124

>  <HIPPO Pose ID>  (1744) 
131863

>  <distance_score>  (1744) 
0.657332

>  <HIPPO Compound ID>  (1744) 
157863

>  <gnina_score_min>  (1744) 
5.673

>  <name>  (1744) 
P131863

>  <exports>  (1744) 
['/opt/xchem-fragalysis-2/maxwin/BulkDock/OUTPUTS/openbind_d68ev3c_c2_elabs_1LOTQJ3.sdf', '/opt/xchem-fragalysis-2/maxwin/BulkDock/OUTPUTS/openbind_d68ev3c_c2_elabs_1LSYI5W.sdf']

$$$$
P131864
     RDKit          3D

 28 30  0  0  0  0  0  0  0  0999 V2000
  -10.2051    5.9021    8.0909 C   0  0  0  0  0  0  0  0  0  0  0  0
  -10.0242    4.5410    8.7457 C   0  0  0  0  0  0  0  0  0  0  0  0
  -10.0690    3.4127    7.7088 C   0  0  0  0  0  0  0  0  0  0  0  0
   -9.9200    1.9990    8.3353 C   0  0  2  0  0  0  0  0  0  0  0  0
   -8.9199    1.1881    7.4419 C   0  0  0  0  0  0  0  0  0  0  0  0
   -8.7311   -0.1820    7.9522 N   0  0  0  0  0  0  0  0  0  0  0  0
   -7.6906   -0.9166    7.3681 C   0  0  0  0  0  0  0  0  0  0  0  0
   -7.8762   -2.1529    6.7260 C   0  0  0  0  0  0  0  0  0  0  0  0
   -6.8052   -2.8795    6.2027 C   0  0  0  0  0  0  0  0  0  0  0  0
   -5.5151   -2.3834    6.3180 C   0  0  0  0  0  0  0  0  0  0  0  0
   -5.2886   -1.1629    6.9631 C   0  0  0  0  0  0  0  0  0  0  0  0
   -3.8890   -0.6512    7.1129 C   0  0  0  0  0  0  0  0  0  0  0  0
   -3.8109    0.6809    7.3875 F   0  0  0  0  0  0  0  0  0  0  0  0
   -3.1701   -0.8315    5.9707 F   0  0  0  0  0  0  0  0  0  0  0  0
   -3.1938   -1.2810    8.0965 F   0  0  0  0  0  0  0  0  0  0  0  0
   -6.3763   -0.4468    7.4819 C   0  0  0  0  0  0  0  0  0  0  0  0
  -10.0091   -0.8856    8.1231 C   0  0  0  0  0  0  0  0  0  0  0  0
  -10.9625   -0.0766    9.0137 C   0  0  0  0  0  0  0  0  0  0  0  0
  -11.2339    1.2921    8.4995 N   0  0  0  0  0  0  0  0  0  0  0  0
  -12.1396    2.0274    9.3995 C   0  0  0  0  0  0  0  0  0  0  0  0
  -13.3995    1.2844    9.6900 C   0  0  0  0  0  0  0  0  0  0  0  0
  -13.8203    0.7273   10.9373 C   0  0  0  0  0  0  0  0  0  0  0  0
  -13.0995    0.7548   12.2366 C   0  0  0  0  0  0  0  0  0  0  0  0
  -15.0170    0.1252   10.8483 N   0  0  0  0  0  0  0  0  0  0  0  0
  -15.3718    0.3207    9.5616 N   0  0  0  0  0  0  0  0  0  0  0  0
  -16.6707   -0.0738    9.0869 C   0  0  0  0  0  0  0  0  0  0  0  0
  -14.4444    1.0045    8.8436 C   0  0  0  0  0  0  0  0  0  0  0  0
  -14.5492    1.3668    7.5576 F   0  0  0  0  0  0  0  0  0  0  0  0
  1  2  1  0
  2  3  1  0
  4  3  1  6
  4  5  1  0
  5  6  1  0
  6  7  1  0
  7  8  2  0
  8  9  1  0
  9 10  2  0
 10 11  1  0
 11 12  1  0
 12 13  1  0
 12 14  1  0
 12 15  1  0
 11 16  2  0
  6 17  1  0
 17 18  1  0
 18 19  1  0
 19 20  1  0
 20 21  1  0
 21 22  1  0
 22 23  1  0
 22 24  2  0
 24 25  1  0
 25 26  1  0
 25 27  1  0
 27 28  1  0
 19  4  1  0
 27 21  2  0
 16  7  1  0
M  END
>  <ref_mols>  (1745) 
B0426a

>  <gnina_score>  (1745) 
5.907

>  <smina_score_min>  (1745) 
-5.831

>  <ref_pdb>  (1745) 
B0426a

>  <inspiration_score>  (1745) 
None

>  <inchikey>  (1745) 
DPIGULQUOMDHNJ-QGZVFWFLSA-N

>  <tags>  (1745) 
BulkDock Fragalysis export,openbind_d68ev3c_c2_elabs_scored,openbind_d68ev3c_c2_elabs_scored_4.5plus,openbind_d68ev3c_c2_elabs,openbind_d68ev3c_c2_elabs_scored_5plus,syndirella_product,openbind_d68ev3c_c2_elabs_scored_top80percent,syndirella_placed

>  <smiles>  (1745) 
CCC[C@@H]1CN(c2cccc(C(F)(F)F)c2)CCN1Cc1c(C)nn(C)c1F

>  <subsites>  (1745) 
None

>  <rmsd(smina/fragmenstein)>  (1745) 
0.918

>  <alias>  (1745) 
None

>  <energy_score>  (1745) 
-64.741014

>  <HIPPO Pose ID>  (1745) 
131864

>  <distance_score>  (1745) 
0.445733

>  <HIPPO Compound ID>  (1745) 
157864

>  <gnina_score_min>  (1745) 
6.121

>  <name>  (1745) 
P131864

>  <exports>  (1745) 
['/opt/xchem-fragalysis-2/maxwin/BulkDock/OUTPUTS/openbind_d68ev3c_c2_elabs_1LOTQJ3.sdf', '/opt/xchem-fragalysis-2/maxwin/BulkDock/OUTPUTS/openbind_d68ev3c_c2_elabs_1LSYI5W.sdf']

$$$$
P131866
     RDKit          3D

 28 30  0  0  0  0  0  0  0  0999 V2000
  -19.8572    0.0519    7.1197 C   0  0  0  0  0  0  0  0  0  0  0  0
  -18.8178    1.1455    7.2919 C   0  0  0  0  0  0  0  0  0  0  0  0
  -17.6126    0.6605    7.9285 N   0  0  0  0  0  0  0  0  0  0  0  0
  -16.7078   -0.0283    7.2139 N   0  0  0  0  0  0  0  0  0  0  0  0
  -15.7323   -0.2725    8.0976 C   0  0  0  0  0  0  0  0  0  0  0  0
  -16.0169    0.2337    9.3913 C   0  0  0  0  0  0  0  0  0  0  0  0
  -15.2021    0.1583   10.6278 C   0  0  0  0  0  0  0  0  0  0  0  0
  -13.7767    0.3588   10.3736 N   0  0  0  0  0  0  0  0  0  0  0  0
  -13.4851    1.6449    9.7225 C   0  0  0  0  0  0  0  0  0  0  0  0
  -11.9817    1.9941    9.7178 C   0  0  0  0  0  0  0  0  0  0  0  0
  -11.1590    1.4097    8.6424 N   0  0  0  0  0  0  0  0  0  0  0  0
   -9.7578    1.8502    8.8294 C   0  0  0  0  0  0  0  0  0  0  0  0
   -8.7728    1.2466    7.8082 C   0  0  0  0  0  0  0  0  0  0  0  0
   -8.8210   -0.2286    7.8603 N   0  0  0  0  0  0  0  0  0  0  0  0
   -7.7589   -0.9451    7.3026 C   0  0  0  0  0  0  0  0  0  0  0  0
   -7.9294   -2.1443    6.5906 C   0  0  0  0  0  0  0  0  0  0  0  0
   -6.8487   -2.8644    6.0711 C   0  0  0  0  0  0  0  0  0  0  0  0
   -5.5552   -2.3964    6.2443 C   0  0  0  0  0  0  0  0  0  0  0  0
   -5.3344   -1.2184    6.9598 C   0  0  0  0  0  0  0  0  0  0  0  0
   -3.9370   -0.7124    7.1598 C   0  0  0  0  0  0  0  0  0  0  0  0
   -3.8685    0.6112    7.4791 F   0  0  0  0  0  0  0  0  0  0  0  0
   -3.2638   -1.3709    8.1393 F   0  0  0  0  0  0  0  0  0  0  0  0
   -3.1867   -0.8513    6.0312 F   0  0  0  0  0  0  0  0  0  0  0  0
   -6.4324   -0.5270    7.4973 C   0  0  0  0  0  0  0  0  0  0  0  0
  -10.2027   -0.7279    7.6595 C   0  0  0  0  0  0  0  0  0  0  0  0
  -11.1897   -0.0739    8.6568 C   0  0  0  0  0  0  0  0  0  0  0  0
  -17.2501    0.8223    9.2296 C   0  0  0  0  0  0  0  0  0  0  0  0
  -17.9593    1.4470   10.1799 F   0  0  0  0  0  0  0  0  0  0  0  0
  1  2  1  0
  2  3  1  0
  3  4  1  0
  4  5  2  0
  5  6  1  0
  6  7  1  0
  7  8  1  0
  8  9  1  0
  9 10  1  0
 10 11  1  0
 11 12  1  0
 12 13  1  0
 13 14  1  0
 14 15  1  0
 15 16  2  0
 16 17  1  0
 17 18  2  0
 18 19  1  0
 19 20  1  0
 20 21  1  0
 20 22  1  0
 20 23  1  0
 19 24  2  0
 14 25  1  0
 25 26  1  0
  6 27  2  0
 27 28  1  0
 27  3  1  0
 26 11  1  0
 24 15  1  0
M  END
>  <ref_mols>  (1746) 
B0426a

>  <gnina_score>  (1746) 
5.23

>  <smina_score_min>  (1746) 
-5.846

>  <ref_pdb>  (1746) 
B0426a

>  <inspiration_score>  (1746) 
None

>  <inchikey>  (1746) 
CLMMONMGYCRSLH-UHFFFAOYSA-N

>  <tags>  (1746) 
BulkDock Fragalysis export,openbind_d68ev3c_c2_elabs_scored,openbind_d68ev3c_c2_elabs_scored_4.5plus,openbind_d68ev3c_c2_elabs,openbind_d68ev3c_c2_elabs_scored_5plus,syndirella_product,openbind_d68ev3c_c2_elabs_scored_top80percent,syndirella_placed

>  <smiles>  (1746) 
CCn1ncc(CNCCN2CCN(c3cccc(C(F)(F)F)c3)CC2)c1F

>  <subsites>  (1746) 
None

>  <rmsd(smina/fragmenstein)>  (1746) 
1.175

>  <alias>  (1746) 
None

>  <energy_score>  (1746) 
-34.905086

>  <HIPPO Pose ID>  (1746) 
131866

>  <distance_score>  (1746) 
0.532536

>  <HIPPO Compound ID>  (1746) 
157866

>  <gnina_score_min>  (1746) 
5.241

>  <name>  (1746) 
P131866

>  <exports>  (1746) 
['/opt/xchem-fragalysis-2/maxwin/BulkDock/OUTPUTS/openbind_d68ev3c_c2_elabs_1LOTQJ3.sdf', '/opt/xchem-fragalysis-2/maxwin/BulkDock/OUTPUTS/openbind_d68ev3c_c2_elabs_1LSYI5W.sdf']

$$$$
P131867
     RDKit          3D

 28 30  0  0  0  0  0  0  0  0999 V2000
  -10.4791    5.3974    6.9461 C   0  0  0  0  0  0  0  0  0  0  0  0
  -10.5053    3.8807    7.0669 C   0  0  0  0  0  0  0  0  0  0  0  0
   -9.8641    3.4186    8.3801 C   0  0  0  0  0  0  0  0  0  0  0  0
   -9.8785    1.8843    8.6078 C   0  0  2  0  0  0  0  0  0  0  0  0
   -8.8573    1.2127    7.6305 C   0  0  0  0  0  0  0  0  0  0  0  0
   -8.8035   -0.2472    7.8422 N   0  0  0  0  0  0  0  0  0  0  0  0
   -7.7284   -0.9475    7.2847 C   0  0  0  0  0  0  0  0  0  0  0  0
   -7.8770   -2.1534    6.5764 C   0  0  0  0  0  0  0  0  0  0  0  0
   -6.7829   -2.8627    6.0752 C   0  0  0  0  0  0  0  0  0  0  0  0
   -5.4997   -2.3754    6.2652 C   0  0  0  0  0  0  0  0  0  0  0  0
   -5.3042   -1.1853    6.9711 C   0  0  0  0  0  0  0  0  0  0  0  0
   -3.9142   -0.6683    7.1842 C   0  0  0  0  0  0  0  0  0  0  0  0
   -3.8568    0.6611    7.4782 F   0  0  0  0  0  0  0  0  0  0  0  0
   -3.2525   -1.3060    8.1846 F   0  0  0  0  0  0  0  0  0  0  0  0
   -3.1492   -0.8267    6.0687 F   0  0  0  0  0  0  0  0  0  0  0  0
   -6.4153   -0.4990    7.4856 C   0  0  0  0  0  0  0  0  0  0  0  0
  -10.1424   -0.8531    7.7308 C   0  0  0  0  0  0  0  0  0  0  0  0
  -11.1206   -0.1906    8.7152 C   0  0  0  0  0  0  0  0  0  0  0  0
  -11.2491    1.2833    8.5409 N   0  0  0  0  0  0  0  0  0  0  0  0
  -12.1232    1.8624    9.5803 C   0  0  0  0  0  0  0  0  0  0  0  0
  -13.4490    1.1953    9.6673 C   0  0  0  0  0  0  0  0  0  0  0  0
  -13.9722    0.4741   10.7695 C   0  0  0  0  0  0  0  0  0  0  0  0
  -15.2097    0.0118   10.5590 N   0  0  0  0  0  0  0  0  0  0  0  0
  -15.4638    0.3911    9.2849 N   0  0  0  0  0  0  0  0  0  0  0  0
  -16.7573    0.1370    8.6897 C   0  0  0  0  0  0  0  0  0  0  0  0
  -16.6977   -0.4582    7.2918 C   0  0  0  0  0  0  0  0  0  0  0  0
  -14.4676    1.1487    8.7484 C   0  0  0  0  0  0  0  0  0  0  0  0
  -14.4822    1.7470    7.5493 F   0  0  0  0  0  0  0  0  0  0  0  0
  1  2  1  0
  2  3  1  0
  4  3  1  6
  4  5  1  0
  5  6  1  0
  6  7  1  0
  7  8  2  0
  8  9  1  0
  9 10  2  0
 10 11  1  0
 11 12  1  0
 12 13  1  0
 12 14  1  0
 12 15  1  0
 11 16  2  0
  6 17  1  0
 17 18  1  0
 18 19  1  0
 19 20  1  0
 20 21  1  0
 21 22  1  0
 22 23  2  0
 23 24  1  0
 24 25  1  0
 25 26  1  0
 24 27  1  0
 27 28  1  0
 19  4  1  0
 27 21  2  0
 16  7  1  0
M  END
>  <ref_mols>  (1747) 
B0426a

>  <gnina_score>  (1747) 
5.838

>  <smina_score_min>  (1747) 
-5.212

>  <ref_pdb>  (1747) 
B0426a

>  <inspiration_score>  (1747) 
None

>  <inchikey>  (1747) 
LFMXKQIMZALFEM-GOSISDBHSA-N

>  <tags>  (1747) 
BulkDock Fragalysis export,openbind_d68ev3c_c2_elabs_scored,openbind_d68ev3c_c2_elabs_scored_4.5plus,openbind_d68ev3c_c2_elabs,openbind_d68ev3c_c2_elabs_scored_5plus,syndirella_product,openbind_d68ev3c_c2_elabs_scored_top80percent,syndirella_placed

>  <smiles>  (1747) 
CCC[C@@H]1CN(c2cccc(C(F)(F)F)c2)CCN1Cc1cnn(CC)c1F

>  <subsites>  (1747) 
None

>  <rmsd(smina/fragmenstein)>  (1747) 
0.708

>  <alias>  (1747) 
None

>  <energy_score>  (1747) 
-63.046762

>  <HIPPO Pose ID>  (1747) 
131867

>  <distance_score>  (1747) 
0.41018

>  <HIPPO Compound ID>  (1747) 
157867

>  <gnina_score_min>  (1747) 
5.812

>  <name>  (1747) 
P131867

>  <exports>  (1747) 
['/opt/xchem-fragalysis-2/maxwin/BulkDock/OUTPUTS/openbind_d68ev3c_c2_elabs_1LOTQJ3.sdf', '/opt/xchem-fragalysis-2/maxwin/BulkDock/OUTPUTS/openbind_d68ev3c_c2_elabs_1LSYI5W.sdf']

$$$$
P131869
     RDKit          3D

 28 30  0  0  0  0  0  0  0  0999 V2000
   -9.0398    5.6942    7.5242 C   0  0  0  0  0  0  0  0  0  0  0  0
   -8.7695    4.2281    7.8313 C   0  0  0  0  0  0  0  0  0  0  0  0
  -10.0750    3.4450    8.0116 C   0  0  0  0  0  0  0  0  0  0  0  0
   -9.9012    1.9800    8.5036 C   0  0  2  0  0  0  0  0  0  0  0  0
   -8.8515    1.2401    7.5983 C   0  0  0  0  0  0  0  0  0  0  0  0
   -8.7460   -0.1981    7.9168 N   0  0  0  0  0  0  0  0  0  0  0  0
   -7.6908   -0.9086    7.3299 C   0  0  0  0  0  0  0  0  0  0  0  0
   -7.8653   -2.1185    6.6331 C   0  0  0  0  0  0  0  0  0  0  0  0
   -6.7879   -2.8384    6.1132 C   0  0  0  0  0  0  0  0  0  0  0  0
   -5.4981   -2.3587    6.2764 C   0  0  0  0  0  0  0  0  0  0  0  0
   -5.2803   -1.1631    6.9683 C   0  0  0  0  0  0  0  0  0  0  0  0
   -3.8827   -0.6593    7.1571 C   0  0  0  0  0  0  0  0  0  0  0  0
   -3.1361   -0.8389    6.0329 F   0  0  0  0  0  0  0  0  0  0  0  0
   -3.8062    0.6716    7.4372 F   0  0  0  0  0  0  0  0  0  0  0  0
   -3.2157   -1.2957    8.1552 F   0  0  0  0  0  0  0  0  0  0  0  0
   -6.3744   -0.4606    7.4946 C   0  0  0  0  0  0  0  0  0  0  0  0
  -10.0560   -0.8590    7.9253 C   0  0  0  0  0  0  0  0  0  0  0  0
  -11.0028   -0.1480    8.8950 C   0  0  0  0  0  0  0  0  0  0  0  0
  -11.2305    1.2826    8.5529 N   0  0  0  0  0  0  0  0  0  0  0  0
  -12.1429    1.8917    9.5439 C   0  0  0  0  0  0  0  0  0  0  0  0
  -13.4632    1.1914    9.5586 C   0  0  0  0  0  0  0  0  0  0  0  0
  -14.1263    0.6124   10.6651 C   0  0  0  0  0  0  0  0  0  0  0  0
  -15.2711    0.0083   10.3305 N   0  0  0  0  0  0  0  0  0  0  0  0
  -15.3474    0.1963    8.9851 N   0  0  0  0  0  0  0  0  0  0  0  0
  -16.4166   -0.3627    8.1613 C   0  0  0  0  0  0  0  0  0  0  0  0
  -17.5518   -0.6303    8.8652 F   0  0  0  0  0  0  0  0  0  0  0  0
  -16.7915    0.5114    7.1773 F   0  0  0  0  0  0  0  0  0  0  0  0
  -14.3023    0.9321    8.4961 C   0  0  0  0  0  0  0  0  0  0  0  0
  1  2  1  0
  2  3  1  0
  4  3  1  6
  4  5  1  0
  5  6  1  0
  6  7  1  0
  7  8  2  0
  8  9  1  0
  9 10  2  0
 10 11  1  0
 11 12  1  0
 12 13  1  0
 12 14  1  0
 12 15  1  0
 11 16  2  0
  6 17  1  0
 17 18  1  0
 18 19  1  0
 19 20  1  0
 20 21  1  0
 21 22  1  0
 22 23  2  0
 23 24  1  0
 24 25  1  0
 25 26  1  0
 25 27  1  0
 24 28  1  0
 19  4  1  0
 28 21  2  0
 16  7  1  0
M  END
>  <ref_mols>  (1748) 
B0426a

>  <gnina_score>  (1748) 
5.745

>  <smina_score_min>  (1748) 
-5.377

>  <ref_pdb>  (1748) 
B0426a

>  <inspiration_score>  (1748) 
None

>  <inchikey>  (1748) 
WKHHJBZBGIOKLQ-QGZVFWFLSA-N

>  <tags>  (1748) 
BulkDock Fragalysis export,openbind_d68ev3c_c2_elabs_scored,openbind_d68ev3c_c2_elabs_scored_4.5plus,openbind_d68ev3c_c2_elabs,openbind_d68ev3c_c2_elabs_scored_5plus,syndirella_product,openbind_d68ev3c_c2_elabs_scored_top80percent,syndirella_placed

>  <smiles>  (1748) 
CCC[C@@H]1CN(c2cccc(C(F)(F)F)c2)CCN1Cc1cnn(C(F)F)c1

>  <subsites>  (1748) 
None

>  <rmsd(smina/fragmenstein)>  (1748) 
0.588

>  <alias>  (1748) 
None

>  <energy_score>  (1748) 
-54.563688

>  <HIPPO Pose ID>  (1748) 
131869

>  <distance_score>  (1748) 
0.452536

>  <HIPPO Compound ID>  (1748) 
157869

>  <gnina_score_min>  (1748) 
5.795

>  <name>  (1748) 
P131869

>  <exports>  (1748) 
['/opt/xchem-fragalysis-2/maxwin/BulkDock/OUTPUTS/openbind_d68ev3c_c2_elabs_1LOTQJ3.sdf', '/opt/xchem-fragalysis-2/maxwin/BulkDock/OUTPUTS/openbind_d68ev3c_c2_elabs_1LSYI5W.sdf']

$$$$
P131872
     RDKit          3D

 28 30  0  0  0  0  0  0  0  0999 V2000
  -17.3758   -0.0658    8.0130 C   0  0  0  0  0  0  0  0  0  0  0  0
  -16.7572   -0.0641    9.2008 C   0  0  0  0  0  0  0  0  0  0  0  0
  -15.4598    0.3239    9.5710 N   0  0  0  0  0  0  0  0  0  0  0  0
  -15.0412    0.2040   10.8728 N   0  0  0  0  0  0  0  0  0  0  0  0
  -13.8467    0.7802   10.9194 C   0  0  0  0  0  0  0  0  0  0  0  0
  -13.4202    1.2607    9.6735 C   0  0  0  0  0  0  0  0  0  0  0  0
  -12.1418    1.9907    9.3972 C   0  0  0  0  0  0  0  0  0  0  0  0
  -11.2638    1.2455    8.4770 N   0  0  0  0  0  0  0  0  0  0  0  0
  -10.9211   -0.0756    9.0641 C   0  0  0  0  0  0  0  0  0  0  0  0
   -9.9906   -0.9108    8.1794 C   0  0  0  0  0  0  0  0  0  0  0  0
   -8.7383   -0.1838    7.9348 N   0  0  0  0  0  0  0  0  0  0  0  0
   -7.6980   -0.9243    7.3573 C   0  0  0  0  0  0  0  0  0  0  0  0
   -7.8824   -2.1639    6.7231 C   0  0  0  0  0  0  0  0  0  0  0  0
   -6.8084   -2.8901    6.2063 C   0  0  0  0  0  0  0  0  0  0  0  0
   -5.5193   -2.3892    6.3207 C   0  0  0  0  0  0  0  0  0  0  0  0
   -5.2961   -1.1630    6.9570 C   0  0  0  0  0  0  0  0  0  0  0  0
   -3.8976   -0.6478    7.1051 C   0  0  0  0  0  0  0  0  0  0  0  0
   -3.8203    0.6845    7.3787 F   0  0  0  0  0  0  0  0  0  0  0  0
   -3.1796   -0.8276    5.9617 F   0  0  0  0  0  0  0  0  0  0  0  0
   -3.1987   -1.2766    8.0871 F   0  0  0  0  0  0  0  0  0  0  0  0
   -6.3863   -0.4461    7.4676 C   0  0  0  0  0  0  0  0  0  0  0  0
   -8.9825    1.1389    7.3299 C   0  0  0  0  0  0  0  0  0  0  0  0
   -9.9970    1.9920    8.1692 C   0  0  1  0  0  0  0  0  0  0  0  0
  -10.3212    3.3073    7.4045 C   0  0  0  0  0  0  0  0  0  0  0  0
   -9.1322    4.1316    6.8938 C   0  0  0  0  0  0  0  0  0  0  0  0
   -8.1915    4.5895    7.9955 C   0  0  0  0  0  0  0  0  0  0  0  0
  -14.4473    0.9161    8.8062 C   0  0  0  0  0  0  0  0  0  0  0  0
  -14.5168    1.1407    7.3377 C   0  0  0  0  0  0  0  0  0  0  0  0
  1  2  2  0
  2  3  1  0
  3  4  1  0
  4  5  2  0
  5  6  1  0
  6  7  1  0
  7  8  1  0
  8  9  1  0
  9 10  1  0
 10 11  1  0
 11 12  1  0
 12 13  2  0
 13 14  1  0
 14 15  2  0
 15 16  1  0
 16 17  1  0
 17 18  1  0
 17 19  1  0
 17 20  1  0
 16 21  2  0
 11 22  1  0
 22 23  1  0
 23 24  1  6
 24 25  1  0
 25 26  1  0
  6 27  2  0
 27 28  1  0
 27  3  1  0
 23  8  1  0
 21 12  1  0
M  END
>  <ref_mols>  (1749) 
B0426a

>  <gnina_score>  (1749) 
5.852

>  <smina_score_min>  (1749) 
-5.788

>  <ref_pdb>  (1749) 
B0426a

>  <inspiration_score>  (1749) 
None

>  <inchikey>  (1749) 
LPFVYOXKWYHMQY-HXUWFJFHSA-N

>  <tags>  (1749) 
BulkDock Fragalysis export,openbind_d68ev3c_c2_elabs_scored,openbind_d68ev3c_c2_elabs_scored_4.5plus,openbind_d68ev3c_c2_elabs,openbind_d68ev3c_c2_elabs_scored_5plus,syndirella_product,openbind_d68ev3c_c2_elabs_scored_top80percent,syndirella_placed

>  <smiles>  (1749) 
C=Cn1ncc(CN2CCN(c3cccc(C(F)(F)F)c3)C[C@H]2CCC)c1C

>  <subsites>  (1749) 
None

>  <rmsd(smina/fragmenstein)>  (1749) 
1.352

>  <alias>  (1749) 
None

>  <energy_score>  (1749) 
-47.273333

>  <HIPPO Pose ID>  (1749) 
131872

>  <distance_score>  (1749) 
0.476115

>  <HIPPO Compound ID>  (1749) 
157870

>  <gnina_score_min>  (1749) 
6.006

>  <name>  (1749) 
P131872

>  <exports>  (1749) 
['/opt/xchem-fragalysis-2/maxwin/BulkDock/OUTPUTS/openbind_d68ev3c_c2_elabs_1LOTQJ3.sdf', '/opt/xchem-fragalysis-2/maxwin/BulkDock/OUTPUTS/openbind_d68ev3c_c2_elabs_1LSYI5W.sdf']

$$$$
P131873
     RDKit          3D

 28 30  0  0  0  0  0  0  0  0999 V2000
  -18.4007    1.6502   14.1691 C   0  0  0  0  0  0  0  0  0  0  0  0
  -17.6491    2.4596   13.4123 C   0  0  0  0  0  0  0  0  0  0  0  0
  -16.8719    2.1978   12.2731 N   0  0  0  0  0  0  0  0  0  0  0  0
  -16.2920    3.2196   11.5781 N   0  0  0  0  0  0  0  0  0  0  0  0
  -15.7119    2.6584   10.5259 C   0  0  0  0  0  0  0  0  0  0  0  0
  -15.8707    1.2692   10.4861 C   0  0  0  0  0  0  0  0  0  0  0  0
  -15.3592    0.3706    9.4202 C   0  0  0  0  0  0  0  0  0  0  0  0
  -14.0771   -0.1887    9.7965 N   0  0  0  0  0  0  0  0  0  0  0  0
  -13.0067    0.7602   10.1184 C   0  0  0  0  0  0  0  0  0  0  0  0
  -12.5008    1.6672    8.9672 C   0  0  0  0  0  0  0  0  0  0  0  0
  -11.2883    1.2478    8.2473 N   0  0  0  0  0  0  0  0  0  0  0  0
  -11.3980   -0.1313    7.7356 C   0  0  0  0  0  0  0  0  0  0  0  0
  -10.1493   -0.5855    6.9559 C   0  0  0  0  0  0  0  0  0  0  0  0
   -8.9273   -0.4402    7.7800 N   0  0  0  0  0  0  0  0  0  0  0  0
   -7.7877   -1.1074    7.3205 C   0  0  0  0  0  0  0  0  0  0  0  0
   -7.8706   -2.4276    6.8440 C   0  0  0  0  0  0  0  0  0  0  0  0
   -6.7555   -3.1194    6.3688 C   0  0  0  0  0  0  0  0  0  0  0  0
   -5.5075   -2.5157    6.3960 C   0  0  0  0  0  0  0  0  0  0  0  0
   -5.3667   -1.2252    6.9105 C   0  0  0  0  0  0  0  0  0  0  0  0
   -4.0027   -0.6048    6.9837 C   0  0  0  0  0  0  0  0  0  0  0  0
   -4.0102    0.7317    7.2490 F   0  0  0  0  0  0  0  0  0  0  0  0
   -3.2139   -1.1700    7.9372 F   0  0  0  0  0  0  0  0  0  0  0  0
   -3.3239   -0.7419    5.8099 F   0  0  0  0  0  0  0  0  0  0  0  0
   -6.5052   -0.5380    7.3631 C   0  0  0  0  0  0  0  0  0  0  0  0
   -8.7920    0.9107    8.3613 C   0  0  0  0  0  0  0  0  0  0  0  0
  -10.0800    1.3447    9.0955 C   0  0  0  0  0  0  0  0  0  0  0  0
  -16.5669    0.9806   11.6501 C   0  0  0  0  0  0  0  0  0  0  0  0
  -16.9192   -0.3544   12.1870 C   0  0  0  0  0  0  0  0  0  0  0  0
  1  2  2  0
  2  3  1  0
  3  4  1  0
  4  5  2  0
  5  6  1  0
  6  7  1  0
  7  8  1  0
  8  9  1  0
  9 10  1  0
 10 11  1  0
 11 12  1  0
 12 13  1  0
 13 14  1  0
 14 15  1  0
 15 16  2  0
 16 17  1  0
 17 18  2  0
 18 19  1  0
 19 20  1  0
 20 21  1  0
 20 22  1  0
 20 23  1  0
 19 24  2  0
 14 25  1  0
 25 26  1  0
  6 27  2  0
 27 28  1  0
 27  3  1  0
 26 11  1  0
 24 15  1  0
M  END
>  <ref_mols>  (1750) 
B0426a

>  <gnina_score>  (1750) 
5.453

>  <smina_score_min>  (1750) 
-6.261

>  <ref_pdb>  (1750) 
B0426a

>  <inspiration_score>  (1750) 
None

>  <inchikey>  (1750) 
MJYULUMOPGAMRU-UHFFFAOYSA-N

>  <tags>  (1750) 
BulkDock Fragalysis export,openbind_d68ev3c_c2_elabs_scored,openbind_d68ev3c_c2_elabs_scored_4.5plus,openbind_d68ev3c_c2_elabs,openbind_d68ev3c_c2_elabs_scored_5plus,syndirella_product,openbind_d68ev3c_c2_elabs_scored_top80percent,syndirella_placed

>  <smiles>  (1750) 
C=Cn1ncc(CNCCN2CCN(c3cccc(C(F)(F)F)c3)CC2)c1C

>  <subsites>  (1750) 
None

>  <rmsd(smina/fragmenstein)>  (1750) 
1.105

>  <alias>  (1750) 
None

>  <energy_score>  (1750) 
-37.342851

>  <HIPPO Pose ID>  (1750) 
131873

>  <distance_score>  (1750) 
0.879541

>  <HIPPO Compound ID>  (1750) 
157871

>  <gnina_score_min>  (1750) 
5.505

>  <name>  (1750) 
P131873

>  <exports>  (1750) 
['/opt/xchem-fragalysis-2/maxwin/BulkDock/OUTPUTS/openbind_d68ev3c_c2_elabs_1LOTQJ3.sdf', '/opt/xchem-fragalysis-2/maxwin/BulkDock/OUTPUTS/openbind_d68ev3c_c2_elabs_1LSYI5W.sdf']

$$$$
P131874
     RDKit          3D

 28 30  0  0  0  0  0  0  0  0999 V2000
  -16.5113    4.8570   10.7413 C   0  0  0  0  0  0  0  0  0  0  0  0
  -16.0225    3.5871   11.2202 N   0  0  0  0  0  0  0  0  0  0  0  0
  -16.3287    2.3625   10.7144 C   0  0  0  0  0  0  0  0  0  0  0  0
  -15.4604    1.4622   11.3158 C   0  0  0  0  0  0  0  0  0  0  0  0
  -15.2571    0.0333   10.9546 C   0  0  0  0  0  0  0  0  0  0  0  0
  -15.3305   -0.1230    9.4981 N   0  0  0  0  0  0  0  0  0  0  0  0
  -14.0572    0.1528    8.8094 C   0  0  0  0  0  0  0  0  0  0  0  0
  -13.3646    1.4755    9.1428 C   0  0  0  0  0  0  0  0  0  0  0  0
  -12.3841    2.0014    8.0973 C   0  0  0  0  0  0  0  0  0  0  0  0
  -11.1371    1.3074    7.8268 N   0  0  0  0  0  0  0  0  0  0  0  0
  -11.2862   -0.0366    7.2606 C   0  0  0  0  0  0  0  0  0  0  0  0
   -9.9479   -0.5657    6.7281 C   0  0  0  0  0  0  0  0  0  0  0  0
   -8.9089   -0.5579    7.7867 N   0  0  0  0  0  0  0  0  0  0  0  0
   -7.7267   -1.1990    7.3864 C   0  0  0  0  0  0  0  0  0  0  0  0
   -7.7839   -2.5010    6.8575 C   0  0  0  0  0  0  0  0  0  0  0  0
   -6.6515   -3.1539    6.3775 C   0  0  0  0  0  0  0  0  0  0  0  0
   -5.4157   -2.5295    6.4569 C   0  0  0  0  0  0  0  0  0  0  0  0
   -5.3048   -1.2609    7.0344 C   0  0  0  0  0  0  0  0  0  0  0  0
   -3.9530   -0.6222    7.1497 C   0  0  0  0  0  0  0  0  0  0  0  0
   -3.1773   -1.1930    8.1093 F   0  0  0  0  0  0  0  0  0  0  0  0
   -3.9869    0.7094    7.4356 F   0  0  0  0  0  0  0  0  0  0  0  0
   -3.2501   -0.7306    5.9881 F   0  0  0  0  0  0  0  0  0  0  0  0
   -6.4596   -0.6119    7.4982 C   0  0  0  0  0  0  0  0  0  0  0  0
   -8.8129    0.7407    8.4939 C   0  0  0  0  0  0  0  0  0  0  0  0
  -10.1991    1.2504    8.9592 C   0  0  0  0  0  0  0  0  0  0  0  0
  -14.7993    2.2509   12.2901 C   0  0  0  0  0  0  0  0  0  0  0  0
  -13.3916    1.5779   13.6605 I   0  0  0  0  0  0  0  0  0  0  0  0
  -15.1396    3.5406   12.2282 N   0  0  0  0  0  0  0  0  0  0  0  0
  1  2  1  0
  2  3  1  0
  3  4  2  0
  4  5  1  0
  5  6  1  0
  6  7  1  0
  7  8  1  0
  8  9  1  0
  9 10  1  0
 10 11  1  0
 11 12  1  0
 12 13  1  0
 13 14  1  0
 14 15  2  0
 15 16  1  0
 16 17  2  0
 17 18  1  0
 18 19  1  0
 19 20  1  0
 19 21  1  0
 19 22  1  0
 18 23  2  0
 13 24  1  0
 24 25  1  0
  4 26  1  0
 26 27  1  0
 26 28  2  0
 28  2  1  0
 25 10  1  0
 23 14  1  0
M  END
>  <ref_mols>  (1751) 
B0426a

>  <gnina_score>  (1751) 
5.853

>  <smina_score_min>  (1751) 
-6.089

>  <ref_pdb>  (1751) 
B0426a

>  <inspiration_score>  (1751) 
None

>  <inchikey>  (1751) 
PIDRRBOMMYKKBL-UHFFFAOYSA-N

>  <tags>  (1751) 
BulkDock Fragalysis export,openbind_d68ev3c_c2_elabs_scored,openbind_d68ev3c_c2_elabs_scored_4.5plus,openbind_d68ev3c_c2_elabs,openbind_d68ev3c_c2_elabs_scored_5plus,syndirella_product,openbind_d68ev3c_c2_elabs_scored_top80percent,syndirella_placed

>  <smiles>  (1751) 
Cn1cc(CNCCCN2CCN(c3cccc(C(F)(F)F)c3)CC2)c(I)n1

>  <subsites>  (1751) 
None

>  <rmsd(smina/fragmenstein)>  (1751) 
0.59

>  <alias>  (1751) 
None

>  <energy_score>  (1751) 
-51.69608

>  <HIPPO Pose ID>  (1751) 
131874

>  <distance_score>  (1751) 
0.654057

>  <HIPPO Compound ID>  (1751) 
157872

>  <gnina_score_min>  (1751) 
5.896

>  <name>  (1751) 
P131874

>  <exports>  (1751) 
['/opt/xchem-fragalysis-2/maxwin/BulkDock/OUTPUTS/openbind_d68ev3c_c2_elabs_1LOTQJ3.sdf', '/opt/xchem-fragalysis-2/maxwin/BulkDock/OUTPUTS/openbind_d68ev3c_c2_elabs_1LSYI5W.sdf']

$$$$
P131875
     RDKit          3D

 28 30  0  0  0  0  0  0  0  0999 V2000
  -14.5027    0.6361   12.0702 C   0  0  0  0  0  0  0  0  0  0  0  0
  -14.7138   -0.2963   11.0237 O   0  0  0  0  0  0  0  0  0  0  0  0
  -15.3633    0.1874    9.8522 C   0  0  2  0  0  0  0  0  0  0  0  0
  -14.4066    0.6078    8.8289 N   0  0  0  0  0  0  0  0  0  0  0  0
  -13.3673    1.5175    9.3280 C   0  0  0  0  0  0  0  0  0  0  0  0
  -12.4640    2.0605    8.2042 C   0  0  0  0  0  0  0  0  0  0  0  0
  -11.2394    1.3341    7.8646 N   0  0  0  0  0  0  0  0  0  0  0  0
  -11.4496   -0.0945    7.5896 C   0  0  0  0  0  0  0  0  0  0  0  0
  -10.1826   -0.7620    7.0210 C   0  0  0  0  0  0  0  0  0  0  0  0
   -8.9817   -0.5350    7.8669 N   0  0  0  0  0  0  0  0  0  0  0  0
   -7.8158   -1.1811    7.4070 C   0  0  0  0  0  0  0  0  0  0  0  0
   -7.8699   -2.4797    6.8686 C   0  0  0  0  0  0  0  0  0  0  0  0
   -6.7386   -3.1289    6.3702 C   0  0  0  0  0  0  0  0  0  0  0  0
   -5.5009   -2.5070    6.4329 C   0  0  0  0  0  0  0  0  0  0  0  0
   -5.3852   -1.2420    7.0122 C   0  0  0  0  0  0  0  0  0  0  0  0
   -4.0323   -0.6009    7.1266 C   0  0  0  0  0  0  0  0  0  0  0  0
   -3.3087   -0.7349    5.9795 F   0  0  0  0  0  0  0  0  0  0  0  0
   -4.0714    0.7377    7.3793 F   0  0  0  0  0  0  0  0  0  0  0  0
   -3.2703   -1.1456    8.1126 F   0  0  0  0  0  0  0  0  0  0  0  0
   -6.5388   -0.5999    7.4963 C   0  0  0  0  0  0  0  0  0  0  0  0
   -8.8480    0.8584    8.3517 C   0  0  0  0  0  0  0  0  0  0  0  0
  -10.1767    1.4455    8.8777 C   0  0  0  0  0  0  0  0  0  0  0  0
  -16.4798    1.1681   10.0533 C   0  0  0  0  0  0  0  0  0  0  0  0
  -17.6184    0.9714   10.8755 C   0  0  0  0  0  0  0  0  0  0  0  0
  -18.4703    1.9987   10.8449 N   0  0  0  0  0  0  0  0  0  0  0  0
  -17.8884    2.8627    9.9949 N   0  0  0  0  0  0  0  0  0  0  0  0
  -18.5395    4.1141    9.6945 C   0  0  0  0  0  0  0  0  0  0  0  0
  -16.7066    2.4114    9.4893 C   0  0  0  0  0  0  0  0  0  0  0  0
  1  2  1  0
  2  3  1  0
  3  4  1  6
  4  5  1  0
  5  6  1  0
  6  7  1  0
  7  8  1  0
  8  9  1  0
  9 10  1  0
 10 11  1  0
 11 12  2  0
 12 13  1  0
 13 14  2  0
 14 15  1  0
 15 16  1  0
 16 17  1  0
 16 18  1  0
 16 19  1  0
 15 20  2  0
 10 21  1  0
 21 22  1  0
  3 23  1  0
 23 24  1  0
 24 25  2  0
 25 26  1  0
 26 27  1  0
 26 28  1  0
 22  7  1  0
 28 23  2  0
 20 11  1  0
M  END
>  <ref_mols>  (1752) 
B0426a

>  <gnina_score>  (1752) 
5.329

>  <smina_score_min>  (1752) 
-6.362

>  <ref_pdb>  (1752) 
B0426a

>  <inspiration_score>  (1752) 
None

>  <inchikey>  (1752) 
PJHOYDAYAVWDKW-SFHVURJKSA-N

>  <tags>  (1752) 
BulkDock Fragalysis export,openbind_d68ev3c_c2_elabs_scored,openbind_d68ev3c_c2_elabs_scored_4.5plus,openbind_d68ev3c_c2_elabs,openbind_d68ev3c_c2_elabs_scored_5plus,syndirella_product,openbind_d68ev3c_c2_elabs_scored_top80percent,syndirella_placed

>  <smiles>  (1752) 
CO[C@H](NCCN1CCN(c2cccc(C(F)(F)F)c2)CC1)c1cnn(C)c1

>  <subsites>  (1752) 
None

>  <rmsd(smina/fragmenstein)>  (1752) 
2.114

>  <alias>  (1752) 
None

>  <energy_score>  (1752) 
-33.799222

>  <HIPPO Pose ID>  (1752) 
131875

>  <distance_score>  (1752) 
0.487964

>  <HIPPO Compound ID>  (1752) 
157873

>  <gnina_score_min>  (1752) 
5.42

>  <name>  (1752) 
P131875

>  <exports>  (1752) 
['/opt/xchem-fragalysis-2/maxwin/BulkDock/OUTPUTS/openbind_d68ev3c_c2_elabs_1LOTQJ3.sdf', '/opt/xchem-fragalysis-2/maxwin/BulkDock/OUTPUTS/openbind_d68ev3c_c2_elabs_1LSYI5W.sdf']

$$$$
P131879
     RDKit          3D

 28 30  0  0  0  0  0  0  0  0999 V2000
   -8.1304    4.2910    6.3608 C   0  0  0  0  0  0  0  0  0  0  0  0
   -8.5414    4.2113    7.8247 C   0  0  0  0  0  0  0  0  0  0  0  0
   -9.8895    3.5076    8.0476 C   0  0  0  0  0  0  0  0  0  0  0  0
   -9.8566    2.0011    8.4435 C   0  0  2  0  0  0  0  0  0  0  0  0
   -8.8639    1.2309    7.5110 C   0  0  0  0  0  0  0  0  0  0  0  0
   -8.7877   -0.2011    7.8553 N   0  0  0  0  0  0  0  0  0  0  0  0
   -7.7252   -0.9289    7.3048 C   0  0  0  0  0  0  0  0  0  0  0  0
   -7.8910   -2.1485    6.6261 C   0  0  0  0  0  0  0  0  0  0  0  0
   -6.8056   -2.8719    6.1261 C   0  0  0  0  0  0  0  0  0  0  0  0
   -5.5172   -2.3867    6.2923 C   0  0  0  0  0  0  0  0  0  0  0  0
   -5.3064   -1.1848    6.9738 C   0  0  0  0  0  0  0  0  0  0  0  0
   -3.9112   -0.6729    7.1663 C   0  0  0  0  0  0  0  0  0  0  0  0
   -3.8444    0.6562    7.4593 F   0  0  0  0  0  0  0  0  0  0  0  0
   -3.1620   -0.8355    6.0408 F   0  0  0  0  0  0  0  0  0  0  0  0
   -3.2396   -1.3130    8.1589 F   0  0  0  0  0  0  0  0  0  0  0  0
   -6.4082   -0.4819    7.4837 C   0  0  0  0  0  0  0  0  0  0  0  0
  -10.1144   -0.8240    7.8305 C   0  0  0  0  0  0  0  0  0  0  0  0
  -11.0690   -0.0810    8.7755 C   0  0  0  0  0  0  0  0  0  0  0  0
  -11.2337    1.3701    8.4679 N   0  0  0  0  0  0  0  0  0  0  0  0
  -12.1289    2.0153    9.4625 C   0  0  1  0  0  0  0  0  0  0  0  0
  -12.5266    3.3149    9.0038 O   0  0  0  0  0  0  0  0  0  0  0  0
  -12.9112    4.1789   10.0660 C   0  0  0  0  0  0  0  0  0  0  0  0
  -13.3787    1.2124    9.7085 C   0  0  0  0  0  0  0  0  0  0  0  0
  -13.7707    0.5905   10.9183 C   0  0  0  0  0  0  0  0  0  0  0  0
  -14.9719    0.0106   10.8391 N   0  0  0  0  0  0  0  0  0  0  0  0
  -15.3544    0.2617    9.5715 N   0  0  0  0  0  0  0  0  0  0  0  0
  -16.6745   -0.0993    9.1217 C   0  0  0  0  0  0  0  0  0  0  0  0
  -14.4339    0.9598    8.8525 C   0  0  0  0  0  0  0  0  0  0  0  0
  1  2  1  0
  2  3  1  0
  4  3  1  6
  4  5  1  0
  5  6  1  0
  6  7  1  0
  7  8  2  0
  8  9  1  0
  9 10  2  0
 10 11  1  0
 11 12  1  0
 12 13  1  0
 12 14  1  0
 12 15  1  0
 11 16  2  0
  6 17  1  0
 17 18  1  0
 18 19  1  0
 19 20  1  0
 20 21  1  6
 21 22  1  0
 20 23  1  0
 23 24  1  0
 24 25  2  0
 25 26  1  0
 26 27  1  0
 26 28  1  0
 19  4  1  0
 28 23  2  0
 16  7  1  0
M  END
>  <ref_mols>  (1753) 
B0426a

>  <gnina_score>  (1753) 
5.878

>  <smina_score_min>  (1753) 
-5.559

>  <ref_pdb>  (1753) 
B0426a

>  <inspiration_score>  (1753) 
None

>  <inchikey>  (1753) 
WTHQIDKWIKFJON-MOPGFXCFSA-N

>  <tags>  (1753) 
BulkDock Fragalysis export,openbind_d68ev3c_c2_elabs_scored,openbind_d68ev3c_c2_elabs_scored_4.5plus,openbind_d68ev3c_c2_elabs,openbind_d68ev3c_c2_elabs_scored_5plus,syndirella_product,openbind_d68ev3c_c2_elabs_scored_top80percent,syndirella_placed

>  <smiles>  (1753) 
CCC[C@@H]1CN(c2cccc(C(F)(F)F)c2)CCN1[C@@H](OC)c1cnn(C)c1

>  <subsites>  (1753) 
None

>  <rmsd(smina/fragmenstein)>  (1753) 
1.021

>  <alias>  (1753) 
None

>  <energy_score>  (1753) 
-52.343387

>  <HIPPO Pose ID>  (1753) 
131879

>  <distance_score>  (1753) 
0.386866

>  <HIPPO Compound ID>  (1753) 
157874

>  <gnina_score_min>  (1753) 
5.93

>  <name>  (1753) 
P131879

>  <exports>  (1753) 
['/opt/xchem-fragalysis-2/maxwin/BulkDock/OUTPUTS/openbind_d68ev3c_c2_elabs_1LOTQJ3.sdf', '/opt/xchem-fragalysis-2/maxwin/BulkDock/OUTPUTS/openbind_d68ev3c_c2_elabs_1LSYI5W.sdf']

$$$$
P131881
     RDKit          3D

 28 30  0  0  0  0  0  0  0  0999 V2000
  -17.4893    3.0619   10.2305 C   0  0  0  0  0  0  0  0  0  0  0  0
  -17.1414    2.0890    9.1653 C   0  0  0  0  0  0  0  0  0  0  0  0
  -17.4084    2.3755    7.8869 N   0  0  0  0  0  0  0  0  0  0  0  0
  -16.9372    1.3135    7.2112 N   0  0  0  0  0  0  0  0  0  0  0  0
  -16.9783    1.3139    5.7706 C   0  0  0  0  0  0  0  0  0  0  0  0
  -16.4498    0.3294    8.0163 C   0  0  0  0  0  0  0  0  0  0  0  0
  -16.5196    0.8137    9.3080 C   0  0  0  0  0  0  0  0  0  0  0  0
  -16.1012    0.1672   10.5781 C   0  0  0  0  0  0  0  0  0  0  0  0
  -14.7721   -0.4091   10.5080 N   0  0  0  0  0  0  0  0  0  0  0  0
  -13.6698    0.5371   10.6450 C   0  0  0  0  0  0  0  0  0  0  0  0
  -13.4590    1.4576    9.4397 C   0  0  0  0  0  0  0  0  0  0  0  0
  -12.0392    2.0319    9.3920 C   0  0  0  0  0  0  0  0  0  0  0  0
  -11.1278    1.3317    8.4735 N   0  0  0  0  0  0  0  0  0  0  0  0
   -9.7651    1.8963    8.5964 C   0  0  0  0  0  0  0  0  0  0  0  0
   -8.7342    1.2223    7.6622 C   0  0  0  0  0  0  0  0  0  0  0  0
   -8.7150   -0.2418    7.8667 N   0  0  0  0  0  0  0  0  0  0  0  0
   -7.6557   -0.9600    7.3048 C   0  0  0  0  0  0  0  0  0  0  0  0
   -7.8255   -2.1694    6.6074 C   0  0  0  0  0  0  0  0  0  0  0  0
   -6.7449   -2.8882    6.0923 C   0  0  0  0  0  0  0  0  0  0  0  0
   -5.4563   -2.4073    6.2596 C   0  0  0  0  0  0  0  0  0  0  0  0
   -5.2424   -1.2170    6.9592 C   0  0  0  0  0  0  0  0  0  0  0  0
   -3.8499   -0.7021    7.1475 C   0  0  0  0  0  0  0  0  0  0  0  0
   -3.1691   -1.3444    8.1315 F   0  0  0  0  0  0  0  0  0  0  0  0
   -3.1114   -0.8570    6.0148 F   0  0  0  0  0  0  0  0  0  0  0  0
   -3.7853    0.6261    7.4451 F   0  0  0  0  0  0  0  0  0  0  0  0
   -6.3384   -0.5216    7.4871 C   0  0  0  0  0  0  0  0  0  0  0  0
  -10.0636   -0.8333    7.7670 C   0  0  0  0  0  0  0  0  0  0  0  0
  -11.0485   -0.1262    8.7156 C   0  0  0  0  0  0  0  0  0  0  0  0
  1  2  1  0
  2  3  2  0
  3  4  1  0
  4  5  1  0
  4  6  1  0
  6  7  2  0
  7  8  1  0
  8  9  1  0
  9 10  1  0
 10 11  1  0
 11 12  1  0
 12 13  1  0
 13 14  1  0
 14 15  1  0
 15 16  1  0
 16 17  1  0
 17 18  2  0
 18 19  1  0
 19 20  2  0
 20 21  1  0
 21 22  1  0
 22 23  1  0
 22 24  1  0
 22 25  1  0
 21 26  2  0
 16 27  1  0
 27 28  1  0
  7  2  1  0
 28 13  1  0
 26 17  1  0
M  END
>  <ref_mols>  (1754) 
B0426a

>  <gnina_score>  (1754) 
5.441

>  <smina_score_min>  (1754) 
-5.868

>  <ref_pdb>  (1754) 
B0426a

>  <inspiration_score>  (1754) 
None

>  <inchikey>  (1754) 
QMJMFRLFDQDBPW-UHFFFAOYSA-N

>  <tags>  (1754) 
BulkDock Fragalysis export,openbind_d68ev3c_c2_elabs_scored,openbind_d68ev3c_c2_elabs_scored_4.5plus,openbind_d68ev3c_c2_elabs,openbind_d68ev3c_c2_elabs_scored_5plus,syndirella_product,openbind_d68ev3c_c2_elabs_scored_top80percent,syndirella_placed

>  <smiles>  (1754) 
Cc1nn(C)cc1CNCCCN1CCN(c2cccc(C(F)(F)F)c2)CC1

>  <subsites>  (1754) 
None

>  <rmsd(smina/fragmenstein)>  (1754) 
0.788

>  <alias>  (1754) 
None

>  <energy_score>  (1754) 
-39.964008

>  <HIPPO Pose ID>  (1754) 
131881

>  <distance_score>  (1754) 
0.622757

>  <HIPPO Compound ID>  (1754) 
157877

>  <gnina_score_min>  (1754) 
5.31

>  <name>  (1754) 
P131881

>  <exports>  (1754) 
['/opt/xchem-fragalysis-2/maxwin/BulkDock/OUTPUTS/openbind_d68ev3c_c2_elabs_1LOTQJ3.sdf', '/opt/xchem-fragalysis-2/maxwin/BulkDock/OUTPUTS/openbind_d68ev3c_c2_elabs_1LSYI5W.sdf']

$$$$
P131884
     RDKit          3D

 28 30  0  0  0  0  0  0  0  0999 V2000
  -10.1457    5.4779    6.9692 C   0  0  0  0  0  0  0  0  0  0  0  0
  -10.1253    3.9570    7.0131 C   0  0  0  0  0  0  0  0  0  0  0  0
   -9.7097    3.4478    8.3980 C   0  0  0  0  0  0  0  0  0  0  0  0
   -9.8444    1.9141    8.6029 C   0  0  2  0  0  0  0  0  0  0  0  0
   -8.8083    1.2138    7.6605 C   0  0  0  0  0  0  0  0  0  0  0  0
   -8.7956   -0.2473    7.8649 N   0  0  0  0  0  0  0  0  0  0  0  0
   -7.7237   -0.9611    7.3126 C   0  0  0  0  0  0  0  0  0  0  0  0
   -7.8801   -2.1696    6.6107 C   0  0  0  0  0  0  0  0  0  0  0  0
   -6.7908   -2.8809    6.1004 C   0  0  0  0  0  0  0  0  0  0  0  0
   -5.5049   -2.3945    6.2757 C   0  0  0  0  0  0  0  0  0  0  0  0
   -5.3006   -1.2061    6.9808 C   0  0  0  0  0  0  0  0  0  0  0  0
   -3.9086   -0.6870    7.1788 C   0  0  0  0  0  0  0  0  0  0  0  0
   -3.1578   -0.8358    6.0524 F   0  0  0  0  0  0  0  0  0  0  0  0
   -3.2334   -1.3295    8.1668 F   0  0  0  0  0  0  0  0  0  0  0  0
   -3.8515    0.6405    7.4808 F   0  0  0  0  0  0  0  0  0  0  0  0
   -6.4063   -0.5200    7.5068 C   0  0  0  0  0  0  0  0  0  0  0  0
  -10.1430   -0.8159    7.7102 C   0  0  0  0  0  0  0  0  0  0  0  0
  -11.1372   -0.1230    8.6571 C   0  0  0  0  0  0  0  0  0  0  0  0
  -11.2394    1.3559    8.4647 N   0  0  0  0  0  0  0  0  0  0  0  0
  -12.1476    1.9495    9.4624 C   0  0  1  0  0  0  0  0  0  0  0  0
  -12.4988    3.2582    9.0485 O   0  0  0  0  0  0  0  0  0  0  0  0
  -13.4202    1.1863    9.6615 C   0  0  0  0  0  0  0  0  0  0  0  0
  -13.8505    0.5945   10.8762 C   0  0  0  0  0  0  0  0  0  0  0  0
  -15.0522    0.0188   10.7853 N   0  0  0  0  0  0  0  0  0  0  0  0
  -15.4119    0.2566    9.5056 N   0  0  0  0  0  0  0  0  0  0  0  0
  -16.7311   -0.1048    9.0525 C   0  0  0  0  0  0  0  0  0  0  0  0
  -14.4615    0.9275    8.7925 C   0  0  0  0  0  0  0  0  0  0  0  0
  -14.5658    1.4419    6.9612 Br  0  0  0  0  0  0  0  0  0  0  0  0
  1  2  1  0
  2  3  1  0
  4  3  1  6
  4  5  1  0
  5  6  1  0
  6  7  1  0
  7  8  2  0
  8  9  1  0
  9 10  2  0
 10 11  1  0
 11 12  1  0
 12 13  1  0
 12 14  1  0
 12 15  1  0
 11 16  2  0
  6 17  1  0
 17 18  1  0
 18 19  1  0
 19 20  1  0
 20 21  1  6
 20 22  1  0
 22 23  1  0
 23 24  2  0
 24 25  1  0
 25 26  1  0
 25 27  1  0
 27 28  1  0
 19  4  1  0
 27 22  2  0
 16  7  1  0
M  END
>  <ref_mols>  (1755) 
B0426a

>  <gnina_score>  (1755) 
5.779

>  <smina_score_min>  (1755) 
-5.801

>  <ref_pdb>  (1755) 
B0426a

>  <inspiration_score>  (1755) 
None

>  <inchikey>  (1755) 
LJGOEQSRBAFSLR-QAPCUYQASA-N

>  <tags>  (1755) 
BulkDock Fragalysis export,openbind_d68ev3c_c2_elabs_scored,openbind_d68ev3c_c2_elabs_scored_4.5plus,openbind_d68ev3c_c2_elabs,openbind_d68ev3c_c2_elabs_scored_5plus,syndirella_product,openbind_d68ev3c_c2_elabs_scored_top80percent,syndirella_placed

>  <smiles>  (1755) 
CCC[C@@H]1CN(c2cccc(C(F)(F)F)c2)CCN1[C@@H](O)c1cnn(C)c1Br

>  <subsites>  (1755) 
None

>  <rmsd(smina/fragmenstein)>  (1755) 
1.109

>  <alias>  (1755) 
None

>  <energy_score>  (1755) 
-71.135719

>  <HIPPO Pose ID>  (1755) 
131884

>  <distance_score>  (1755) 
0.345394

>  <HIPPO Compound ID>  (1755) 
157878

>  <gnina_score_min>  (1755) 
5.863

>  <name>  (1755) 
P131884

>  <exports>  (1755) 
['/opt/xchem-fragalysis-2/maxwin/BulkDock/OUTPUTS/openbind_d68ev3c_c2_elabs_1LOTQJ3.sdf', '/opt/xchem-fragalysis-2/maxwin/BulkDock/OUTPUTS/openbind_d68ev3c_c2_elabs_1LSYI5W.sdf']

$$$$
P131887
     RDKit          3D

 28 30  0  0  0  0  0  0  0  0999 V2000
  -13.5569    1.7172   14.5724 C   0  0  0  0  0  0  0  0  0  0  0  0
  -13.6653    1.0555   13.2992 N   0  0  0  0  0  0  0  0  0  0  0  0
  -12.5659    0.5337   12.7416 N   0  0  0  0  0  0  0  0  0  0  0  0
  -12.9779    0.1632   11.5330 C   0  0  0  0  0  0  0  0  0  0  0  0
  -14.3543    0.4382   11.2997 C   0  0  0  0  0  0  0  0  0  0  0  0
  -15.0697    0.2449   10.0034 C   0  0  1  0  0  0  0  0  0  0  0  0
  -16.2262    1.0460    9.8489 O   0  0  0  0  0  0  0  0  0  0  0  0
  -14.1813    0.5219    8.8917 N   0  0  0  0  0  0  0  0  0  0  0  0
  -13.5576    1.8490    8.9112 C   0  0  0  0  0  0  0  0  0  0  0  0
  -12.5805    2.0936    7.7451 C   0  0  0  0  0  0  0  0  0  0  0  0
  -11.3489    1.3171    7.6093 N   0  0  0  0  0  0  0  0  0  0  0  0
  -11.5491   -0.1354    7.5271 C   0  0  0  0  0  0  0  0  0  0  0  0
  -10.2712   -0.8438    7.0440 C   0  0  0  0  0  0  0  0  0  0  0  0
   -9.0638   -0.5006    7.8430 N   0  0  0  0  0  0  0  0  0  0  0  0
   -7.8830   -1.1485    7.4152 C   0  0  0  0  0  0  0  0  0  0  0  0
   -7.9153   -2.4579    6.8965 C   0  0  0  0  0  0  0  0  0  0  0  0
   -6.7738   -3.1069    6.4207 C   0  0  0  0  0  0  0  0  0  0  0  0
   -5.5428   -2.4747    6.4879 C   0  0  0  0  0  0  0  0  0  0  0  0
   -5.4447   -1.1995    7.0499 C   0  0  0  0  0  0  0  0  0  0  0  0
   -4.0933   -0.5533    7.1638 C   0  0  0  0  0  0  0  0  0  0  0  0
   -3.3276   -1.0989    8.1471 F   0  0  0  0  0  0  0  0  0  0  0  0
   -4.1338    0.7844    7.4184 F   0  0  0  0  0  0  0  0  0  0  0  0
   -3.3680   -0.6841    6.0161 F   0  0  0  0  0  0  0  0  0  0  0  0
   -6.6102   -0.5576    7.5135 C   0  0  0  0  0  0  0  0  0  0  0  0
   -8.9701    0.9331    8.2186 C   0  0  0  0  0  0  0  0  0  0  0  0
  -10.3252    1.5635    8.6349 C   0  0  0  0  0  0  0  0  0  0  0  0
  -14.7810    0.9224   12.5215 C   0  0  0  0  0  0  0  0  0  0  0  0
  -16.5601    1.3479   13.0373 Br  0  0  0  0  0  0  0  0  0  0  0  0
  1  2  1  0
  2  3  1  0
  3  4  2  0
  4  5  1  0
  5  6  1  0
  6  7  1  1
  6  8  1  0
  8  9  1  0
  9 10  1  0
 10 11  1  0
 11 12  1  0
 12 13  1  0
 13 14  1  0
 14 15  1  0
 15 16  2  0
 16 17  1  0
 17 18  2  0
 18 19  1  0
 19 20  1  0
 20 21  1  0
 20 22  1  0
 20 23  1  0
 19 24  2  0
 14 25  1  0
 25 26  1  0
  5 27  2  0
 27 28  1  0
 27  2  1  0
 26 11  1  0
 24 15  1  0
M  END
>  <ref_mols>  (1756) 
B0426a

>  <gnina_score>  (1756) 
5.644

>  <smina_score_min>  (1756) 
-6.367

>  <ref_pdb>  (1756) 
B0426a

>  <inspiration_score>  (1756) 
None

>  <inchikey>  (1756) 
WMIALYGQZSNNFK-QGZVFWFLSA-N

>  <tags>  (1756) 
BulkDock Fragalysis export,openbind_d68ev3c_c2_elabs_scored,openbind_d68ev3c_c2_elabs_scored_4.5plus,openbind_d68ev3c_c2_elabs,openbind_d68ev3c_c2_elabs_scored_5plus,syndirella_product,openbind_d68ev3c_c2_elabs_scored_top80percent,syndirella_placed

>  <smiles>  (1756) 
Cn1ncc([C@@H](O)NCCN2CCN(c3cccc(C(F)(F)F)c3)CC2)c1Br

>  <subsites>  (1756) 
None

>  <rmsd(smina/fragmenstein)>  (1756) 
0.806

>  <alias>  (1756) 
None

>  <energy_score>  (1756) 
-40.599207

>  <HIPPO Pose ID>  (1756) 
131887

>  <distance_score>  (1756) 
0.584518

>  <HIPPO Compound ID>  (1756) 
157879

>  <gnina_score_min>  (1756) 
5.622

>  <name>  (1756) 
P131887

>  <exports>  (1756) 
['/opt/xchem-fragalysis-2/maxwin/BulkDock/OUTPUTS/openbind_d68ev3c_c2_elabs_1LOTQJ3.sdf', '/opt/xchem-fragalysis-2/maxwin/BulkDock/OUTPUTS/openbind_d68ev3c_c2_elabs_1LSYI5W.sdf']

$$$$
P131890
     RDKit          3D

 28 30  0  0  0  0  0  0  0  0999 V2000
  -10.2554    5.4322    6.8132 C   0  0  0  0  0  0  0  0  0  0  0  0
  -10.2864    3.9158    6.9366 C   0  0  0  0  0  0  0  0  0  0  0  0
   -9.7209    3.4585    8.2861 C   0  0  0  0  0  0  0  0  0  0  0  0
   -9.8245    1.9326    8.5553 C   0  0  2  0  0  0  0  0  0  0  0  0
   -8.8172    1.2133    7.5967 C   0  0  0  0  0  0  0  0  0  0  0  0
   -8.7794   -0.2384    7.8549 N   0  0  0  0  0  0  0  0  0  0  0  0
   -7.7125   -0.9565    7.3021 C   0  0  0  0  0  0  0  0  0  0  0  0
   -7.8727   -2.1668    6.6051 C   0  0  0  0  0  0  0  0  0  0  0  0
   -6.7845   -2.8816    6.0985 C   0  0  0  0  0  0  0  0  0  0  0  0
   -5.4978   -2.3963    6.2735 C   0  0  0  0  0  0  0  0  0  0  0  0
   -5.2917   -1.2048    6.9733 C   0  0  0  0  0  0  0  0  0  0  0  0
   -3.8993   -0.6878    7.1712 C   0  0  0  0  0  0  0  0  0  0  0  0
   -3.1489   -0.8395    6.0453 F   0  0  0  0  0  0  0  0  0  0  0  0
   -3.8399    0.6400    7.4718 F   0  0  0  0  0  0  0  0  0  0  0  0
   -3.2257   -1.3301    8.1604 F   0  0  0  0  0  0  0  0  0  0  0  0
   -6.3959   -0.5138    7.4939 C   0  0  0  0  0  0  0  0  0  0  0  0
  -10.1222   -0.8259    7.7512 C   0  0  0  0  0  0  0  0  0  0  0  0
  -11.0927   -0.1211    8.7129 C   0  0  0  0  0  0  0  0  0  0  0  0
  -11.2132    1.3527    8.5020 N   0  0  0  0  0  0  0  0  0  0  0  0
  -12.0770    1.9530    9.5351 C   0  0  1  0  0  0  0  0  0  0  0  0
  -12.4178    3.2890    9.1836 O   0  0  0  0  0  0  0  0  0  0  0  0
  -13.3570    1.2030    9.7456 C   0  0  0  0  0  0  0  0  0  0  0  0
  -13.8113    0.6209   10.9522 C   0  0  0  0  0  0  0  0  0  0  0  0
  -15.0302    0.0876   10.8424 N   0  0  0  0  0  0  0  0  0  0  0  0
  -15.3579    0.3173    9.5549 N   0  0  0  0  0  0  0  0  0  0  0  0
  -16.6674   -0.0516    9.0601 C   0  0  0  0  0  0  0  0  0  0  0  0
  -17.5199    1.1501    8.6870 C   0  0  0  0  0  0  0  0  0  0  0  0
  -14.3860    0.9656    8.8555 C   0  0  0  0  0  0  0  0  0  0  0  0
  1  2  1  0
  2  3  1  0
  4  3  1  6
  4  5  1  0
  5  6  1  0
  6  7  1  0
  7  8  2  0
  8  9  1  0
  9 10  2  0
 10 11  1  0
 11 12  1  0
 12 13  1  0
 12 14  1  0
 12 15  1  0
 11 16  2  0
  6 17  1  0
 17 18  1  0
 18 19  1  0
 19 20  1  0
 20 21  1  6
 20 22  1  0
 22 23  1  0
 23 24  2  0
 24 25  1  0
 25 26  1  0
 26 27  1  0
 25 28  1  0
 19  4  1  0
 28 22  2  0
 16  7  1  0
M  END
>  <ref_mols>  (1757) 
B0426a

>  <gnina_score>  (1757) 
5.727

>  <smina_score_min>  (1757) 
-5.64

>  <ref_pdb>  (1757) 
B0426a

>  <inspiration_score>  (1757) 
None

>  <inchikey>  (1757) 
NNRBQKXNTCNGIQ-MOPGFXCFSA-N

>  <tags>  (1757) 
BulkDock Fragalysis export,openbind_d68ev3c_c2_elabs_scored,openbind_d68ev3c_c2_elabs_scored_4.5plus,openbind_d68ev3c_c2_elabs,openbind_d68ev3c_c2_elabs_scored_5plus,syndirella_product,openbind_d68ev3c_c2_elabs_scored_top80percent,syndirella_placed

>  <smiles>  (1757) 
CCC[C@@H]1CN(c2cccc(C(F)(F)F)c2)CCN1[C@@H](O)c1cnn(CC)c1

>  <subsites>  (1757) 
None

>  <rmsd(smina/fragmenstein)>  (1757) 
1.156

>  <alias>  (1757) 
None

>  <energy_score>  (1757) 
-54.690282

>  <HIPPO Pose ID>  (1757) 
131890

>  <distance_score>  (1757) 
0.383724

>  <HIPPO Compound ID>  (1757) 
157880

>  <gnina_score_min>  (1757) 
5.716

>  <name>  (1757) 
P131890

>  <exports>  (1757) 
['/opt/xchem-fragalysis-2/maxwin/BulkDock/OUTPUTS/openbind_d68ev3c_c2_elabs_1LOTQJ3.sdf', '/opt/xchem-fragalysis-2/maxwin/BulkDock/OUTPUTS/openbind_d68ev3c_c2_elabs_1LSYI5W.sdf']

$$$$
P131892
     RDKit          3D

 28 30  0  0  0  0  0  0  0  0999 V2000
   -8.1505    4.5918    7.9840 C   0  0  0  0  0  0  0  0  0  0  0  0
   -9.1012    4.1402    6.8883 C   0  0  0  0  0  0  0  0  0  0  0  0
  -10.2930    3.3247    7.4063 C   0  0  0  0  0  0  0  0  0  0  0  0
   -9.9738    2.0082    8.1710 C   0  0  2  0  0  0  0  0  0  0  0  0
   -8.9705    1.1465    7.3284 C   0  0  0  0  0  0  0  0  0  0  0  0
   -8.7316   -0.1759    7.9363 N   0  0  0  0  0  0  0  0  0  0  0  0
   -7.6952   -0.9219    7.3598 C   0  0  0  0  0  0  0  0  0  0  0  0
   -7.8847   -2.1626    6.7297 C   0  0  0  0  0  0  0  0  0  0  0  0
   -6.8137   -2.8925    6.2117 C   0  0  0  0  0  0  0  0  0  0  0  0
   -5.5229   -2.3943    6.3211 C   0  0  0  0  0  0  0  0  0  0  0  0
   -5.2949   -1.1674    6.9542 C   0  0  0  0  0  0  0  0  0  0  0  0
   -3.8952   -0.6542    7.0970 C   0  0  0  0  0  0  0  0  0  0  0  0
   -3.1832   -0.8302    5.9491 F   0  0  0  0  0  0  0  0  0  0  0  0
   -3.8150    0.6769    7.3754 F   0  0  0  0  0  0  0  0  0  0  0  0
   -3.1920   -1.2873    8.0730 F   0  0  0  0  0  0  0  0  0  0  0  0
   -6.3820   -0.4469    7.4660 C   0  0  0  0  0  0  0  0  0  0  0  0
   -9.9876   -0.8953    8.1856 C   0  0  0  0  0  0  0  0  0  0  0  0
  -10.9098   -0.0526    9.0718 C   0  0  0  0  0  0  0  0  0  0  0  0
  -11.2440    1.2718    8.4854 N   0  0  0  0  0  0  0  0  0  0  0  0
  -12.1085    2.0242    9.4153 C   0  0  0  0  0  0  0  0  0  0  0  0
  -13.3879    1.2974    9.7017 C   0  0  0  0  0  0  0  0  0  0  0  0
  -13.8437    0.8202   10.9646 C   0  0  0  0  0  0  0  0  0  0  0  0
  -13.1608    0.9155   12.2796 C   0  0  0  0  0  0  0  0  0  0  0  0
  -15.0375    0.2229   10.8733 N   0  0  0  0  0  0  0  0  0  0  0  0
  -15.3551    0.3296    9.5695 N   0  0  0  0  0  0  0  0  0  0  0  0
  -16.6563   -0.0974    9.1182 C   0  0  0  0  0  0  0  0  0  0  0  0
  -14.3949    0.9481    8.8159 C   0  0  0  0  0  0  0  0  0  0  0  0
  -14.5126    1.1410    7.3483 C   0  0  0  0  0  0  0  0  0  0  0  0
  1  2  1  0
  2  3  1  0
  4  3  1  6
  4  5  1  0
  5  6  1  0
  6  7  1  0
  7  8  2  0
  8  9  1  0
  9 10  2  0
 10 11  1  0
 11 12  1  0
 12 13  1  0
 12 14  1  0
 12 15  1  0
 11 16  2  0
  6 17  1  0
 17 18  1  0
 18 19  1  0
 19 20  1  0
 20 21  1  0
 21 22  1  0
 22 23  1  0
 22 24  2  0
 24 25  1  0
 25 26  1  0
 25 27  1  0
 27 28  1  0
 19  4  1  0
 27 21  2  0
 16  7  1  0
M  END
>  <ref_mols>  (1758) 
B0426a

>  <gnina_score>  (1758) 
5.986

>  <smina_score_min>  (1758) 
-5.833

>  <ref_pdb>  (1758) 
B0426a

>  <inspiration_score>  (1758) 
None

>  <inchikey>  (1758) 
WEUCIANBBCOUCH-LJQANCHMSA-N

>  <tags>  (1758) 
BulkDock Fragalysis export,openbind_d68ev3c_c2_elabs_scored,openbind_d68ev3c_c2_elabs_scored_4.5plus,openbind_d68ev3c_c2_elabs,openbind_d68ev3c_c2_elabs_scored_5plus,syndirella_product,openbind_d68ev3c_c2_elabs_scored_top80percent,syndirella_placed

>  <smiles>  (1758) 
CCC[C@@H]1CN(c2cccc(C(F)(F)F)c2)CCN1Cc1c(C)nn(C)c1C

>  <subsites>  (1758) 
None

>  <rmsd(smina/fragmenstein)>  (1758) 
0.72

>  <alias>  (1758) 
None

>  <energy_score>  (1758) 
-52.205811

>  <HIPPO Pose ID>  (1758) 
131892

>  <distance_score>  (1758) 
0.486902

>  <HIPPO Compound ID>  (1758) 
157881

>  <gnina_score_min>  (1758) 
6.168

>  <name>  (1758) 
P131892

>  <exports>  (1758) 
['/opt/xchem-fragalysis-2/maxwin/BulkDock/OUTPUTS/openbind_d68ev3c_c2_elabs_1LOTQJ3.sdf', '/opt/xchem-fragalysis-2/maxwin/BulkDock/OUTPUTS/openbind_d68ev3c_c2_elabs_1LSYI5W.sdf']

$$$$
P131895
     RDKit          3D

 28 30  0  0  0  0  0  0  0  0999 V2000
  -10.1985    4.3495   10.0812 C   0  0  0  0  0  0  0  0  0  0  0  0
  -10.6201    2.9900   10.6199 C   0  0  0  0  0  0  0  0  0  0  0  0
  -10.0595    1.7870    9.8455 C   0  0  0  0  0  0  0  0  0  0  0  0
  -10.2974    1.7607    8.3227 C   0  0  1  0  0  0  0  0  0  0  0  0
   -9.0726    1.1033    7.5896 C   0  0  0  0  0  0  0  0  0  0  0  0
   -9.0555   -0.3748    7.7055 N   0  0  0  0  0  0  0  0  0  0  0  0
   -7.8970   -1.0426    7.2541 C   0  0  0  0  0  0  0  0  0  0  0  0
   -7.9416   -2.2999    6.6192 C   0  0  0  0  0  0  0  0  0  0  0  0
   -6.7932   -2.9691    6.1855 C   0  0  0  0  0  0  0  0  0  0  0  0
   -5.5474   -2.3976    6.3764 C   0  0  0  0  0  0  0  0  0  0  0  0
   -5.4419   -1.1643    7.0230 C   0  0  0  0  0  0  0  0  0  0  0  0
   -4.0797   -0.5680    7.2350 C   0  0  0  0  0  0  0  0  0  0  0  0
   -3.2929   -0.7023    6.1291 F   0  0  0  0  0  0  0  0  0  0  0  0
   -4.0946    0.7658    7.5102 F   0  0  0  0  0  0  0  0  0  0  0  0
   -3.3928   -1.1564    8.2495 F   0  0  0  0  0  0  0  0  0  0  0  0
   -6.6105   -0.5169    7.4738 C   0  0  0  0  0  0  0  0  0  0  0  0
  -10.3564   -0.9608    7.2944 C   0  0  0  0  0  0  0  0  0  0  0  0
  -11.5509   -0.3182    8.0257 C   0  0  0  0  0  0  0  0  0  0  0  0
  -11.5672    1.1427    7.9135 N   0  0  0  0  0  0  0  0  0  0  0  0
  -12.7889    1.8359    8.2916 C   0  0  0  0  0  0  0  0  0  0  0  0
  -13.6877    1.1383    9.2585 C   0  0  0  0  0  0  0  0  0  0  0  0
  -13.4596    0.7239   10.5931 C   0  0  0  0  0  0  0  0  0  0  0  0
  -14.5456    0.2046   11.1729 N   0  0  0  0  0  0  0  0  0  0  0  0
  -15.4796    0.2928   10.2128 N   0  0  0  0  0  0  0  0  0  0  0  0
  -16.8500   -0.0469   10.5273 C   0  0  0  0  0  0  0  0  0  0  0  0
  -17.6154    1.1548   11.0378 C   0  0  0  0  0  0  0  0  0  0  0  0
  -17.9720    1.9403    9.9822 F   0  0  0  0  0  0  0  0  0  0  0  0
  -15.0105    0.8005    9.0412 C   0  0  0  0  0  0  0  0  0  0  0  0
  1  2  1  0
  2  3  1  0
  4  3  1  1
  4  5  1  0
  5  6  1  0
  6  7  1  0
  7  8  2  0
  8  9  1  0
  9 10  2  0
 10 11  1  0
 11 12  1  0
 12 13  1  0
 12 14  1  0
 12 15  1  0
 11 16  2  0
  6 17  1  0
 17 18  1  0
 18 19  1  0
 19 20  1  0
 20 21  1  0
 21 22  1  0
 22 23  2  0
 23 24  1  0
 24 25  1  0
 25 26  1  0
 26 27  1  0
 24 28  1  0
 19  4  1  0
 28 21  2  0
 16  7  1  0
M  END
>  <ref_mols>  (1759) 
B0426a

>  <gnina_score>  (1759) 
5.868

>  <smina_score_min>  (1759) 
-5.164

>  <ref_pdb>  (1759) 
B0426a

>  <inspiration_score>  (1759) 
None

>  <inchikey>  (1759) 
WTHVOEDJGCKGBU-IBGZPJMESA-N

>  <tags>  (1759) 
BulkDock Fragalysis export,openbind_d68ev3c_c2_elabs_scored,openbind_d68ev3c_c2_elabs_scored_4.5plus,openbind_d68ev3c_c2_elabs,openbind_d68ev3c_c2_elabs_scored_5plus,syndirella_product,openbind_d68ev3c_c2_elabs_scored_top80percent,syndirella_placed

>  <smiles>  (1759) 
CCC[C@H]1CN(c2cccc(C(F)(F)F)c2)CCN1Cc1cnn(CCF)c1

>  <subsites>  (1759) 
None

>  <rmsd(smina/fragmenstein)>  (1759) 
0.934

>  <alias>  (1759) 
None

>  <energy_score>  (1759) 
-39.684126

>  <HIPPO Pose ID>  (1759) 
131895

>  <distance_score>  (1759) 
0.459096

>  <HIPPO Compound ID>  (1759) 
157882

>  <gnina_score_min>  (1759) 
5.764

>  <name>  (1759) 
P131895

>  <exports>  (1759) 
['/opt/xchem-fragalysis-2/maxwin/BulkDock/OUTPUTS/openbind_d68ev3c_c2_elabs_1LOTQJ3.sdf', '/opt/xchem-fragalysis-2/maxwin/BulkDock/OUTPUTS/openbind_d68ev3c_c2_elabs_1LSYI5W.sdf']

$$$$
P131896
     RDKit          3D

 28 30  0  0  0  0  0  0  0  0999 V2000
  -14.3694    1.2894   15.1593 C   0  0  0  0  0  0  0  0  0  0  0  0
  -13.6691    2.1465   14.1334 C   0  0  0  0  0  0  0  0  0  0  0  0
  -13.7243    1.4653   12.8559 N   0  0  0  0  0  0  0  0  0  0  0  0
  -12.7160    0.6497   12.5233 N   0  0  0  0  0  0  0  0  0  0  0  0
  -13.0892    0.1536   11.3492 C   0  0  0  0  0  0  0  0  0  0  0  0
  -14.3790    0.5850   10.9584 C   0  0  0  0  0  0  0  0  0  0  0  0
  -15.0558    0.3142    9.6665 C   0  0  0  0  0  0  0  0  0  0  0  0
  -14.1277    0.5767    8.5757 N   0  0  0  0  0  0  0  0  0  0  0  0
  -13.4984    1.9010    8.6437 C   0  0  0  0  0  0  0  0  0  0  0  0
  -12.4563    2.1408    7.5393 C   0  0  0  0  0  0  0  0  0  0  0  0
  -11.2386    1.3337    7.4694 N   0  0  0  0  0  0  0  0  0  0  0  0
  -10.2697    1.5649    8.5516 C   0  0  0  0  0  0  0  0  0  0  0  0
   -8.9101    0.9086    8.2009 C   0  0  0  0  0  0  0  0  0  0  0  0
   -9.0082   -0.5236    7.8179 N   0  0  0  0  0  0  0  0  0  0  0  0
   -7.8243   -1.1746    7.4046 C   0  0  0  0  0  0  0  0  0  0  0  0
   -7.8559   -2.4791    6.8741 C   0  0  0  0  0  0  0  0  0  0  0  0
   -6.7127   -3.1238    6.3991 C   0  0  0  0  0  0  0  0  0  0  0  0
   -5.4825   -2.4922    6.4800 C   0  0  0  0  0  0  0  0  0  0  0  0
   -5.3870   -1.2235    7.0571 C   0  0  0  0  0  0  0  0  0  0  0  0
   -4.0389   -0.5752    7.1802 C   0  0  0  0  0  0  0  0  0  0  0  0
   -3.3118   -0.7011    6.0334 F   0  0  0  0  0  0  0  0  0  0  0  0
   -3.2752   -1.1232    8.1630 F   0  0  0  0  0  0  0  0  0  0  0  0
   -4.0829    0.7616    7.4386 F   0  0  0  0  0  0  0  0  0  0  0  0
   -6.5529   -0.5868    7.5216 C   0  0  0  0  0  0  0  0  0  0  0  0
  -10.1980   -0.8629    6.9931 C   0  0  0  0  0  0  0  0  0  0  0  0
  -11.4736   -0.1156    7.4100 C   0  0  0  0  0  0  0  0  0  0  0  0
  -14.7702    1.4471   11.9672 C   0  0  0  0  0  0  0  0  0  0  0  0
  -15.9865    2.2782   12.1186 C   0  0  0  0  0  0  0  0  0  0  0  0
  1  2  1  0
  2  3  1  0
  3  4  1  0
  4  5  2  0
  5  6  1  0
  6  7  1  0
  7  8  1  0
  8  9  1  0
  9 10  1  0
 10 11  1  0
 11 12  1  0
 12 13  1  0
 13 14  1  0
 14 15  1  0
 15 16  2  0
 16 17  1  0
 17 18  2  0
 18 19  1  0
 19 20  1  0
 20 21  1  0
 20 22  1  0
 20 23  1  0
 19 24  2  0
 14 25  1  0
 25 26  1  0
  6 27  2  0
 27 28  1  0
 27  3  1  0
 26 11  1  0
 24 15  1  0
M  END
>  <ref_mols>  (1760) 
B0426a

>  <gnina_score>  (1760) 
5.727

>  <smina_score_min>  (1760) 
-5.899

>  <ref_pdb>  (1760) 
B0426a

>  <inspiration_score>  (1760) 
None

>  <inchikey>  (1760) 
GTIGJRYCDOBDII-UHFFFAOYSA-N

>  <tags>  (1760) 
BulkDock Fragalysis export,openbind_d68ev3c_c2_elabs_scored,openbind_d68ev3c_c2_elabs_scored_4.5plus,openbind_d68ev3c_c2_elabs,openbind_d68ev3c_c2_elabs_scored_5plus,syndirella_product,openbind_d68ev3c_c2_elabs_scored_top80percent,syndirella_placed

>  <smiles>  (1760) 
CCn1ncc(CNCCN2CCN(c3cccc(C(F)(F)F)c3)CC2)c1C

>  <subsites>  (1760) 
None

>  <rmsd(smina/fragmenstein)>  (1760) 
0.891

>  <alias>  (1760) 
None

>  <energy_score>  (1760) 
-52.071956

>  <HIPPO Pose ID>  (1760) 
131896

>  <distance_score>  (1760) 
0.627506

>  <HIPPO Compound ID>  (1760) 
157885

>  <gnina_score_min>  (1760) 
5.625

>  <name>  (1760) 
P131896

>  <exports>  (1760) 
['/opt/xchem-fragalysis-2/maxwin/BulkDock/OUTPUTS/openbind_d68ev3c_c2_elabs_1LOTQJ3.sdf', '/opt/xchem-fragalysis-2/maxwin/BulkDock/OUTPUTS/openbind_d68ev3c_c2_elabs_1LSYI5W.sdf']

$$$$
P131897
     RDKit          3D

 28 30  0  0  0  0  0  0  0  0999 V2000
   -9.0504    5.6737    7.5898 C   0  0  0  0  0  0  0  0  0  0  0  0
   -8.7942    4.1987    7.8651 C   0  0  0  0  0  0  0  0  0  0  0  0
  -10.1073    3.4241    8.0257 C   0  0  0  0  0  0  0  0  0  0  0  0
   -9.9514    1.9439    8.4811 C   0  0  2  0  0  0  0  0  0  0  0  0
   -8.9009    1.2234    7.5652 C   0  0  0  0  0  0  0  0  0  0  0  0
   -8.8271   -0.2268    7.8271 N   0  0  0  0  0  0  0  0  0  0  0  0
   -7.7487   -0.9308    7.2778 C   0  0  0  0  0  0  0  0  0  0  0  0
   -7.8938   -2.1436    6.5804 C   0  0  0  0  0  0  0  0  0  0  0  0
   -6.7973   -2.8566    6.0899 C   0  0  0  0  0  0  0  0  0  0  0  0
   -5.5152   -2.3662    6.2801 C   0  0  0  0  0  0  0  0  0  0  0  0
   -5.3229   -1.1683    6.9743 C   0  0  0  0  0  0  0  0  0  0  0  0
   -3.9327   -0.6512    7.1889 C   0  0  0  0  0  0  0  0  0  0  0  0
   -3.8736    0.6793    7.4760 F   0  0  0  0  0  0  0  0  0  0  0  0
   -3.2745   -1.2853    8.1942 F   0  0  0  0  0  0  0  0  0  0  0  0
   -3.1637   -0.8171    6.0765 F   0  0  0  0  0  0  0  0  0  0  0  0
   -6.4368   -0.4767    7.4768 C   0  0  0  0  0  0  0  0  0  0  0  0
  -10.1546   -0.8554    7.7501 C   0  0  0  0  0  0  0  0  0  0  0  0
  -11.1163   -0.1840    8.7373 C   0  0  0  0  0  0  0  0  0  0  0  0
  -11.2968    1.2748    8.5062 N   0  0  0  0  0  0  0  0  0  0  0  0
  -12.1516    1.8379    9.5738 C   0  0  0  0  0  0  0  0  0  0  0  0
  -13.4981    1.1890    9.6409 C   0  0  0  0  0  0  0  0  0  0  0  0
  -14.0396    0.4930   10.7440 C   0  0  0  0  0  0  0  0  0  0  0  0
  -15.2845    0.0663   10.5304 N   0  0  0  0  0  0  0  0  0  0  0  0
  -15.5445    0.4598    9.2632 N   0  0  0  0  0  0  0  0  0  0  0  0
  -16.8954    0.3166    8.7502 C   0  0  0  0  0  0  0  0  0  0  0  0
  -17.0280   -0.5869    7.5365 C   0  0  0  0  0  0  0  0  0  0  0  0
  -14.5071    1.1591    8.6914 C   0  0  0  0  0  0  0  0  0  0  0  0
  -14.5377    1.7325    7.3215 C   0  0  0  0  0  0  0  0  0  0  0  0
  1  2  1  0
  2  3  1  0
  4  3  1  6
  4  5  1  0
  5  6  1  0
  6  7  1  0
  7  8  2  0
  8  9  1  0
  9 10  2  0
 10 11  1  0
 11 12  1  0
 12 13  1  0
 12 14  1  0
 12 15  1  0
 11 16  2  0
  6 17  1  0
 17 18  1  0
 18 19  1  0
 19 20  1  0
 20 21  1  0
 21 22  1  0
 22 23  2  0
 23 24  1  0
 24 25  1  0
 25 26  1  0
 24 27  1  0
 27 28  1  0
 19  4  1  0
 27 21  2  0
 16  7  1  0
M  END
>  <ref_mols>  (1761) 
B0426a

>  <gnina_score>  (1761) 
5.914

>  <smina_score_min>  (1761) 
-5.311

>  <ref_pdb>  (1761) 
B0426a

>  <inspiration_score>  (1761) 
None

>  <inchikey>  (1761) 
CSLAUOYXZNZBSU-HXUWFJFHSA-N

>  <tags>  (1761) 
BulkDock Fragalysis export,openbind_d68ev3c_c2_elabs_scored,openbind_d68ev3c_c2_elabs_scored_4.5plus,openbind_d68ev3c_c2_elabs,openbind_d68ev3c_c2_elabs_scored_5plus,syndirella_product,openbind_d68ev3c_c2_elabs_scored_top80percent,syndirella_placed

>  <smiles>  (1761) 
CCC[C@@H]1CN(c2cccc(C(F)(F)F)c2)CCN1Cc1cnn(CC)c1C

>  <subsites>  (1761) 
None

>  <rmsd(smina/fragmenstein)>  (1761) 
0.608

>  <alias>  (1761) 
None

>  <energy_score>  (1761) 
-48.411983

>  <HIPPO Pose ID>  (1761) 
131897

>  <distance_score>  (1761) 
0.43947

>  <HIPPO Compound ID>  (1761) 
157886

>  <gnina_score_min>  (1761) 
5.934

>  <name>  (1761) 
P131897

>  <exports>  (1761) 
['/opt/xchem-fragalysis-2/maxwin/BulkDock/OUTPUTS/openbind_d68ev3c_c2_elabs_1LOTQJ3.sdf', '/opt/xchem-fragalysis-2/maxwin/BulkDock/OUTPUTS/openbind_d68ev3c_c2_elabs_1LSYI5W.sdf']

$$$$
P131899
     RDKit          3D

 28 30  0  0  0  0  0  0  0  0999 V2000
  -18.1168   -0.1389   11.4958 C   0  0  0  0  0  0  0  0  0  0  0  0
  -17.5340    0.0522   10.1426 C   0  0  0  0  0  0  0  0  0  0  0  0
  -18.2079   -0.3543    9.0601 N   0  0  0  0  0  0  0  0  0  0  0  0
  -17.3933   -0.0336    8.0387 N   0  0  0  0  0  0  0  0  0  0  0  0
  -17.7564   -0.4241    6.6951 C   0  0  0  0  0  0  0  0  0  0  0  0
  -16.3111    0.7197    8.4179 C   0  0  0  0  0  0  0  0  0  0  0  0
  -15.4427    1.3881    7.4131 C   0  0  0  0  0  0  0  0  0  0  0  0
  -16.2996    0.6842    9.8091 C   0  0  0  0  0  0  0  0  0  0  0  0
  -15.3567    1.3069   10.7860 C   0  0  0  0  0  0  0  0  0  0  0  0
  -14.0874    0.5929   10.9283 N   0  0  0  0  0  0  0  0  0  0  0  0
  -13.2792    0.7427    9.7119 C   0  0  0  0  0  0  0  0  0  0  0  0
  -11.7751    0.7338    9.9957 C   0  0  0  0  0  0  0  0  0  0  0  0
  -10.9911    0.9680    8.7755 N   0  0  0  0  0  0  0  0  0  0  0  0
   -9.5904    1.2770    9.1394 C   0  0  0  0  0  0  0  0  0  0  0  0
   -8.6773    1.4617    7.9095 C   0  0  0  0  0  0  0  0  0  0  0  0
   -8.7507    0.2883    7.0157 N   0  0  0  0  0  0  0  0  0  0  0  0
   -7.7397   -0.6575    6.9834 C   0  0  0  0  0  0  0  0  0  0  0  0
   -7.9710   -2.0223    6.7476 C   0  0  0  0  0  0  0  0  0  0  0  0
   -6.9260   -2.9371    6.5865 C   0  0  0  0  0  0  0  0  0  0  0  0
   -5.6100   -2.5072    6.6875 C   0  0  0  0  0  0  0  0  0  0  0  0
   -5.3319   -1.1685    6.9634 C   0  0  0  0  0  0  0  0  0  0  0  0
   -3.9100   -0.7028    7.0618 C   0  0  0  0  0  0  0  0  0  0  0  0
   -3.7749    0.6146    7.3852 F   0  0  0  0  0  0  0  0  0  0  0  0
   -3.2493   -0.8605    5.8815 F   0  0  0  0  0  0  0  0  0  0  0  0
   -3.1879   -1.3875    7.9894 F   0  0  0  0  0  0  0  0  0  0  0  0
   -6.3965   -0.2649    7.0934 C   0  0  0  0  0  0  0  0  0  0  0  0
  -10.1414   -0.0430    6.6497 C   0  0  0  0  0  0  0  0  0  0  0  0
  -10.9967   -0.2433    7.9116 C   0  0  0  0  0  0  0  0  0  0  0  0
  1  2  1  0
  2  3  2  0
  3  4  1  0
  4  5  1  0
  4  6  1  0
  6  7  1  0
  6  8  2  0
  8  9  1  0
  9 10  1  0
 10 11  1  0
 11 12  1  0
 12 13  1  0
 13 14  1  0
 14 15  1  0
 15 16  1  0
 16 17  1  0
 17 18  2  0
 18 19  1  0
 19 20  2  0
 20 21  1  0
 21 22  1  0
 22 23  1  0
 22 24  1  0
 22 25  1  0
 21 26  2  0
 16 27  1  0
 27 28  1  0
  8  2  1  0
 28 13  1  0
 26 17  1  0
M  END
>  <ref_mols>  (1762) 
B0426a

>  <gnina_score>  (1762) 
5.344

>  <smina_score_min>  (1762) 
-5.696

>  <ref_pdb>  (1762) 
B0426a

>  <inspiration_score>  (1762) 
None

>  <inchikey>  (1762) 
MZUUYBFYPWSUCQ-UHFFFAOYSA-N

>  <tags>  (1762) 
BulkDock Fragalysis export,openbind_d68ev3c_c2_elabs_scored,openbind_d68ev3c_c2_elabs_scored_4.5plus,openbind_d68ev3c_c2_elabs,openbind_d68ev3c_c2_elabs_scored_5plus,syndirella_product,openbind_d68ev3c_c2_elabs_scored_top80percent,syndirella_placed

>  <smiles>  (1762) 
Cc1nn(C)c(C)c1CNCCN1CCN(c2cccc(C(F)(F)F)c2)CC1

>  <subsites>  (1762) 
None

>  <rmsd(smina/fragmenstein)>  (1762) 
0.74

>  <alias>  (1762) 
None

>  <energy_score>  (1762) 
-49.339367

>  <HIPPO Pose ID>  (1762) 
131899

>  <distance_score>  (1762) 
0.865316

>  <HIPPO Compound ID>  (1762) 
157889

>  <gnina_score_min>  (1762) 
5.37

>  <name>  (1762) 
P131899

>  <exports>  (1762) 
['/opt/xchem-fragalysis-2/maxwin/BulkDock/OUTPUTS/openbind_d68ev3c_c2_elabs_1LOTQJ3.sdf', '/opt/xchem-fragalysis-2/maxwin/BulkDock/OUTPUTS/openbind_d68ev3c_c2_elabs_1LSYI5W.sdf']

$$$$
P131900
     RDKit          3D

 29 31  0  0  0  0  0  0  0  0999 V2000
  -12.8172   -1.6123    3.0909 C   0  0  0  0  0  0  0  0  0  0  0  0
  -14.2603   -1.2571    3.4033 C   0  0  0  0  0  0  0  0  0  0  0  0
  -14.3708   -0.3156    4.4976 N   0  0  0  0  0  0  0  0  0  0  0  0
  -14.7323   -0.5993    5.7870 C   0  0  0  0  0  0  0  0  0  0  0  0
  -14.6481    0.5871    6.4821 C   0  0  0  0  0  0  0  0  0  0  0  0
  -14.7807    0.9210    7.9225 C   0  0  0  0  0  0  0  0  0  0  0  0
  -15.3373   -0.1308    8.7619 N   0  0  0  0  0  0  0  0  0  0  0  0
  -15.2585    0.1874   10.1928 C   0  0  0  0  0  0  0  0  0  0  0  0
  -13.8483    0.3849   10.7629 C   0  0  0  0  0  0  0  0  0  0  0  0
  -13.2451    1.7690   10.5184 C   0  0  0  0  0  0  0  0  0  0  0  0
  -11.7266    1.8030   10.2935 C   0  0  0  0  0  0  0  0  0  0  0  0
  -11.1567    1.3821    8.9921 N   0  0  0  0  0  0  0  0  0  0  0  0
  -11.1650   -0.0976    8.8218 C   0  0  0  0  0  0  0  0  0  0  0  0
  -10.2935   -0.6513    7.6644 C   0  0  0  0  0  0  0  0  0  0  0  0
   -8.9073   -0.1567    7.7843 N   0  0  0  0  0  0  0  0  0  0  0  0
   -7.8440   -0.8749    7.2511 C   0  0  0  0  0  0  0  0  0  0  0  0
   -8.0086   -2.0816    6.5515 C   0  0  0  0  0  0  0  0  0  0  0  0
   -6.9236   -2.8198    6.0657 C   0  0  0  0  0  0  0  0  0  0  0  0
   -5.6291   -2.3614    6.2580 C   0  0  0  0  0  0  0  0  0  0  0  0
   -5.4121   -1.1714    6.9548 C   0  0  0  0  0  0  0  0  0  0  0  0
   -4.0115   -0.6771    7.1745 C   0  0  0  0  0  0  0  0  0  0  0  0
   -3.2410   -0.8274    6.0601 F   0  0  0  0  0  0  0  0  0  0  0  0
   -3.9354    0.6465    7.4914 F   0  0  0  0  0  0  0  0  0  0  0  0
   -3.3605   -1.3388    8.1675 F   0  0  0  0  0  0  0  0  0  0  0  0
   -6.5169   -0.4610    7.4575 C   0  0  0  0  0  0  0  0  0  0  0  0
   -8.8827    1.3160    7.7983 C   0  0  0  0  0  0  0  0  0  0  0  0
   -9.7351    1.8326    8.9762 C   0  0  0  0  0  0  0  0  0  0  0  0
  -14.2350    1.5231    5.4974 C   0  0  0  0  0  0  0  0  0  0  0  0
  -14.0437    0.9787    4.2974 N   0  0  0  0  0  0  0  0  0  0  0  0
  1  2  1  0
  2  3  1  0
  3  4  1  0
  4  5  2  0
  5  6  1  0
  6  7  1  0
  7  8  1  0
  8  9  1  0
  9 10  1  0
 10 11  1  0
 11 12  1  0
 12 13  1  0
 13 14  1  0
 14 15  1  0
 15 16  1  0
 16 17  2  0
 17 18  1  0
 18 19  2  0
 19 20  1  0
 20 21  1  0
 21 22  1  0
 21 23  1  0
 21 24  1  0
 20 25  2  0
 15 26  1  0
 26 27  1  0
  5 28  1  0
 28 29  2  0
 29  3  1  0
 27 12  1  0
 25 16  1  0
M  END
>  <ref_mols>  (1763) 
B0426a

>  <gnina_score>  (1763) 
5.73

>  <smina_score_min>  (1763) 
-5.64

>  <ref_pdb>  (1763) 
B0426a

>  <inspiration_score>  (1763) 
None

>  <inchikey>  (1763) 
IKLHIYBHMRLABN-UHFFFAOYSA-N

>  <tags>  (1763) 
BulkDock Fragalysis export,openbind_d68ev3c_c2_elabs_scored,openbind_d68ev3c_c2_elabs_scored_4.5plus,openbind_d68ev3c_c2_elabs,openbind_d68ev3c_c2_elabs_scored_5plus,syndirella_product,openbind_d68ev3c_c2_elabs_scored_top80percent,syndirella_placed

>  <smiles>  (1763) 
CCn1cc(CNCCCCN2CCN(c3cccc(C(F)(F)F)c3)CC2)cn1

>  <subsites>  (1763) 
None

>  <rmsd(smina/fragmenstein)>  (1763) 
1.282

>  <alias>  (1763) 
None

>  <energy_score>  (1763) 
-44.014379

>  <HIPPO Pose ID>  (1763) 
131900

>  <distance_score>  (1763) 
0.626371

>  <HIPPO Compound ID>  (1763) 
157892

>  <gnina_score_min>  (1763) 
5.539

>  <name>  (1763) 
P131900

>  <exports>  (1763) 
['/opt/xchem-fragalysis-2/maxwin/BulkDock/OUTPUTS/openbind_d68ev3c_c2_elabs_1LOTQJ3.sdf', '/opt/xchem-fragalysis-2/maxwin/BulkDock/OUTPUTS/openbind_d68ev3c_c2_elabs_1LSYI5W.sdf']

$$$$
P131901
     RDKit          3D

 29 31  0  0  0  0  0  0  0  0999 V2000
  -14.5659   -1.2179    6.6306 C   0  0  0  0  0  0  0  0  0  0  0  0
  -15.4604   -0.0858    6.9849 C   0  0  0  0  0  0  0  0  0  0  0  0
  -15.9621    0.6706    6.0036 N   0  0  0  0  0  0  0  0  0  0  0  0
  -16.6954    1.5943    6.6341 N   0  0  0  0  0  0  0  0  0  0  0  0
  -17.3670    2.6076    5.8603 C   0  0  0  0  0  0  0  0  0  0  0  0
  -16.7180    1.4390    7.9849 C   0  0  0  0  0  0  0  0  0  0  0  0
  -15.9031    0.3572    8.2686 C   0  0  0  0  0  0  0  0  0  0  0  0
  -15.5867   -0.2360    9.6000 C   0  0  0  0  0  0  0  0  0  0  0  0
  -15.3276    0.8107   10.6019 N   0  0  0  0  0  0  0  0  0  0  0  0
  -15.9326    0.4742   11.8838 C   0  0  0  0  0  0  0  0  0  0  0  0
  -13.8858    1.0726   10.7349 C   0  0  0  0  0  0  0  0  0  0  0  0
  -13.3415    1.8037    9.5045 C   0  0  0  0  0  0  0  0  0  0  0  0
  -11.8548    2.1217    9.6375 C   0  0  0  0  0  0  0  0  0  0  0  0
  -11.0269    1.4379    8.6345 N   0  0  0  0  0  0  0  0  0  0  0  0
   -9.6393    1.9344    8.7251 C   0  0  0  0  0  0  0  0  0  0  0  0
   -8.6850    1.2526    7.7251 C   0  0  0  0  0  0  0  0  0  0  0  0
   -8.7028   -0.2126    7.9140 N   0  0  0  0  0  0  0  0  0  0  0  0
   -7.6676   -0.9476    7.3338 C   0  0  0  0  0  0  0  0  0  0  0  0
   -7.8682   -2.1467    6.6306 C   0  0  0  0  0  0  0  0  0  0  0  0
   -6.8052   -2.8748    6.0899 C   0  0  0  0  0  0  0  0  0  0  0  0
   -5.5054   -2.4134    6.2361 C   0  0  0  0  0  0  0  0  0  0  0  0
   -5.2612   -1.2349    6.9444 C   0  0  0  0  0  0  0  0  0  0  0  0
   -3.8609   -0.7333    7.1143 C   0  0  0  0  0  0  0  0  0  0  0  0
   -3.1687   -1.3924    8.0796 F   0  0  0  0  0  0  0  0  0  0  0  0
   -3.1402   -0.8773    5.9682 F   0  0  0  0  0  0  0  0  0  0  0  0
   -3.7806    0.5907    7.4286 F   0  0  0  0  0  0  0  0  0  0  0  0
   -6.3391   -0.5340    7.5004 C   0  0  0  0  0  0  0  0  0  0  0  0
  -10.0752   -0.7582    7.8397 C   0  0  0  0  0  0  0  0  0  0  0  0
  -11.0112   -0.0331    8.8309 C   0  0  0  0  0  0  0  0  0  0  0  0
  1  2  1  0
  2  3  2  0
  3  4  1  0
  4  5  1  0
  4  6  1  0
  6  7  2  0
  7  8  1  0
  8  9  1  0
  9 10  1  0
  9 11  1  0
 11 12  1  0
 12 13  1  0
 13 14  1  0
 14 15  1  0
 15 16  1  0
 16 17  1  0
 17 18  1  0
 18 19  2  0
 19 20  1  0
 20 21  2  0
 21 22  1  0
 22 23  1  0
 23 24  1  0
 23 25  1  0
 23 26  1  0
 22 27  2  0
 17 28  1  0
 28 29  1  0
  7  2  1  0
 29 14  1  0
 27 18  1  0
M  END
>  <ref_mols>  (1764) 
B0426a

>  <gnina_score>  (1764) 
5.71

>  <smina_score_min>  (1764) 
-6.073

>  <ref_pdb>  (1764) 
B0426a

>  <inspiration_score>  (1764) 
None

>  <inchikey>  (1764) 
KMGVDMNQIJSQBA-UHFFFAOYSA-N

>  <tags>  (1764) 
BulkDock Fragalysis export,openbind_d68ev3c_c2_elabs_scored,openbind_d68ev3c_c2_elabs_scored_4.5plus,openbind_d68ev3c_c2_elabs,openbind_d68ev3c_c2_elabs_scored_5plus,syndirella_product,openbind_d68ev3c_c2_elabs_scored_top80percent,syndirella_placed

>  <smiles>  (1764) 
Cc1nn(C)cc1CN(C)CCCN1CCN(c2cccc(C(F)(F)F)c2)CC1

>  <subsites>  (1764) 
None

>  <rmsd(smina/fragmenstein)>  (1764) 
2.704

>  <alias>  (1764) 
None

>  <energy_score>  (1764) 
-52.745215

>  <HIPPO Pose ID>  (1764) 
131901

>  <distance_score>  (1764) 
0.591385

>  <HIPPO Compound ID>  (1764) 
157893

>  <gnina_score_min>  (1764) 
5.617

>  <name>  (1764) 
P131901

>  <exports>  (1764) 
['/opt/xchem-fragalysis-2/maxwin/BulkDock/OUTPUTS/openbind_d68ev3c_c2_elabs_1LOTQJ3.sdf', '/opt/xchem-fragalysis-2/maxwin/BulkDock/OUTPUTS/openbind_d68ev3c_c2_elabs_1LSYI5W.sdf']

$$$$
P131902
     RDKit          3D

 29 31  0  0  0  0  0  0  0  0999 V2000
  -15.0628   -1.3790    4.8519 C   0  0  0  0  0  0  0  0  0  0  0  0
  -15.7514   -1.0073    6.0659 N   0  0  0  0  0  0  0  0  0  0  0  0
  -15.1756   -0.5452    7.2110 C   0  0  0  0  0  0  0  0  0  0  0  0
  -16.1936   -0.3051    8.1209 C   0  0  0  0  0  0  0  0  0  0  0  0
  -16.1198    0.1358    9.5559 C   0  0  2  0  0  0  0  0  0  0  0  0
  -16.3705    1.5187    9.7086 O   0  0  0  0  0  0  0  0  0  0  0  0
  -14.8969   -0.3070   10.1988 N   0  0  0  0  0  0  0  0  0  0  0  0
  -13.8664    0.6626   10.5368 C   0  0  0  0  0  0  0  0  0  0  0  0
  -13.4525    1.6560    9.4475 C   0  0  0  0  0  0  0  0  0  0  0  0
  -11.9844    2.0766    9.5422 C   0  0  0  0  0  0  0  0  0  0  0  0
  -11.1112    1.3844    8.5810 N   0  0  0  0  0  0  0  0  0  0  0  0
  -11.0550   -0.0796    8.8012 C   0  0  0  0  0  0  0  0  0  0  0  0
  -10.0866   -0.7906    7.8327 C   0  0  0  0  0  0  0  0  0  0  0  0
   -8.7290   -0.2173    7.9161 N   0  0  0  0  0  0  0  0  0  0  0  0
   -7.6810   -0.9403    7.3384 C   0  0  0  0  0  0  0  0  0  0  0  0
   -7.8667   -2.1470    6.6413 C   0  0  0  0  0  0  0  0  0  0  0  0
   -6.7963   -2.8707    6.1094 C   0  0  0  0  0  0  0  0  0  0  0  0
   -5.5017   -2.3985    6.2594 C   0  0  0  0  0  0  0  0  0  0  0  0
   -5.2708   -1.2117    6.9590 C   0  0  0  0  0  0  0  0  0  0  0  0
   -3.8718   -0.7061    7.1341 C   0  0  0  0  0  0  0  0  0  0  0  0
   -3.7972    0.6205    7.4376 F   0  0  0  0  0  0  0  0  0  0  0  0
   -3.1436   -0.8590    5.9941 F   0  0  0  0  0  0  0  0  0  0  0  0
   -3.1855   -1.3562    8.1094 F   0  0  0  0  0  0  0  0  0  0  0  0
   -6.3570   -0.5117    7.5031 C   0  0  0  0  0  0  0  0  0  0  0  0
   -8.7311    1.2488    7.7348 C   0  0  0  0  0  0  0  0  0  0  0  0
   -9.7344    1.9177    8.6999 C   0  0  0  0  0  0  0  0  0  0  0  0
  -17.3578   -0.6321    7.3708 C   0  0  0  0  0  0  0  0  0  0  0  0
  -19.3335   -0.4506    8.0134 I   0  0  0  0  0  0  0  0  0  0  0  0
  -17.0927   -1.1143    6.1514 N   0  0  0  0  0  0  0  0  0  0  0  0
  1  2  1  0
  2  3  1  0
  3  4  2  0
  4  5  1  0
  5  6  1  6
  5  7  1  0
  7  8  1  0
  8  9  1  0
  9 10  1  0
 10 11  1  0
 11 12  1  0
 12 13  1  0
 13 14  1  0
 14 15  1  0
 15 16  2  0
 16 17  1  0
 17 18  2  0
 18 19  1  0
 19 20  1  0
 20 21  1  0
 20 22  1  0
 20 23  1  0
 19 24  2  0
 14 25  1  0
 25 26  1  0
  4 27  1  0
 27 28  1  0
 27 29  2  0
 29  2  1  0
 26 11  1  0
 24 15  1  0
M  END
>  <ref_mols>  (1765) 
B0426a

>  <gnina_score>  (1765) 
5.564

>  <smina_score_min>  (1765) 
-5.853

>  <ref_pdb>  (1765) 
B0426a

>  <inspiration_score>  (1765) 
None

>  <inchikey>  (1765) 
NMFUOYVUGOYTOT-SFHVURJKSA-N

>  <tags>  (1765) 
BulkDock Fragalysis export,openbind_d68ev3c_c2_elabs_scored,openbind_d68ev3c_c2_elabs_scored_4.5plus,openbind_d68ev3c_c2_elabs,openbind_d68ev3c_c2_elabs_scored_5plus,syndirella_product,openbind_d68ev3c_c2_elabs_scored_top80percent,syndirella_placed

>  <smiles>  (1765) 
Cn1cc([C@H](O)NCCCN2CCN(c3cccc(C(F)(F)F)c3)CC2)c(I)n1

>  <subsites>  (1765) 
None

>  <rmsd(smina/fragmenstein)>  (1765) 
0.802

>  <alias>  (1765) 
None

>  <energy_score>  (1765) 
-39.981241

>  <HIPPO Pose ID>  (1765) 
131902

>  <distance_score>  (1765) 
0.593827

>  <HIPPO Compound ID>  (1765) 
157894

>  <gnina_score_min>  (1765) 
5.531

>  <name>  (1765) 
P131902

>  <exports>  (1765) 
['/opt/xchem-fragalysis-2/maxwin/BulkDock/OUTPUTS/openbind_d68ev3c_c2_elabs_1LOTQJ3.sdf', '/opt/xchem-fragalysis-2/maxwin/BulkDock/OUTPUTS/openbind_d68ev3c_c2_elabs_1LSYI5W.sdf']

$$$$
P131904
     RDKit          3D

 29 31  0  0  0  0  0  0  0  0999 V2000
  -14.4153    2.8958    4.4770 C   0  0  0  0  0  0  0  0  0  0  0  0
  -13.8406    2.5873    5.8403 C   0  0  0  0  0  0  0  0  0  0  0  0
  -14.6132    1.6026    6.5709 N   0  0  0  0  0  0  0  0  0  0  0  0
  -15.3156    1.8233    7.7200 C   0  0  0  0  0  0  0  0  0  0  0  0
  -15.5555    0.5793    8.2749 C   0  0  0  0  0  0  0  0  0  0  0  0
  -16.1993    0.2797    9.5860 C   0  0  0  0  0  0  0  0  0  0  0  0
  -15.2774    0.0805   10.7325 N   0  0  0  0  0  0  0  0  0  0  0  0
  -16.0839    0.1127   11.9599 C   0  0  0  0  0  0  0  0  0  0  0  0
  -14.2005    1.0829   10.8162 C   0  0  0  0  0  0  0  0  0  0  0  0
  -12.9576    0.5901   10.0724 C   0  0  0  0  0  0  0  0  0  0  0  0
  -12.2096    1.7318    9.3743 C   0  0  0  0  0  0  0  0  0  0  0  0
  -11.0199    1.3630    8.5935 N   0  0  0  0  0  0  0  0  0  0  0  0
   -9.8509    1.1684    9.4686 C   0  0  0  0  0  0  0  0  0  0  0  0
   -8.5794    0.8206    8.6718 C   0  0  0  0  0  0  0  0  0  0  0  0
   -8.7881   -0.3807    7.8479 N   0  0  0  0  0  0  0  0  0  0  0  0
   -7.6899   -1.0615    7.3312 C   0  0  0  0  0  0  0  0  0  0  0  0
   -7.8453   -2.3407    6.7732 C   0  0  0  0  0  0  0  0  0  0  0  0
   -6.7641   -3.0572    6.2602 C   0  0  0  0  0  0  0  0  0  0  0  0
   -5.4893   -2.5111    6.3139 C   0  0  0  0  0  0  0  0  0  0  0  0
   -5.2877   -1.2565    6.8944 C   0  0  0  0  0  0  0  0  0  0  0  0
   -3.9033   -0.6914    6.9882 C   0  0  0  0  0  0  0  0  0  0  0  0
   -3.2263   -0.8314    5.8150 F   0  0  0  0  0  0  0  0  0  0  0  0
   -3.8622    0.6400    7.2772 F   0  0  0  0  0  0  0  0  0  0  0  0
   -3.1435   -1.3024    7.9360 F   0  0  0  0  0  0  0  0  0  0  0  0
   -6.3881   -0.5482    7.3942 C   0  0  0  0  0  0  0  0  0  0  0  0
   -9.9710   -0.2708    6.9694 C   0  0  0  0  0  0  0  0  0  0  0  0
  -11.2110    0.1291    7.7916 C   0  0  0  0  0  0  0  0  0  0  0  0
  -15.0993   -0.3171    7.2809 C   0  0  0  0  0  0  0  0  0  0  0  0
  -14.5465    0.3026    6.2334 N   0  0  0  0  0  0  0  0  0  0  0  0
  1  2  1  0
  2  3  1  0
  3  4  1  0
  4  5  2  0
  5  6  1  0
  6  7  1  0
  7  8  1  0
  7  9  1  0
  9 10  1  0
 10 11  1  0
 11 12  1  0
 12 13  1  0
 13 14  1  0
 14 15  1  0
 15 16  1  0
 16 17  2  0
 17 18  1  0
 18 19  2  0
 19 20  1  0
 20 21  1  0
 21 22  1  0
 21 23  1  0
 21 24  1  0
 20 25  2  0
 15 26  1  0
 26 27  1  0
  5 28  1  0
 28 29  2  0
 29  3  1  0
 27 12  1  0
 25 16  1  0
M  END
>  <ref_mols>  (1766) 
B0426a

>  <gnina_score>  (1766) 
5.634

>  <smina_score_min>  (1766) 
-6.111

>  <ref_pdb>  (1766) 
B0426a

>  <inspiration_score>  (1766) 
None

>  <inchikey>  (1766) 
LFWULGVFVCFYCA-UHFFFAOYSA-N

>  <tags>  (1766) 
BulkDock Fragalysis export,openbind_d68ev3c_c2_elabs_scored,openbind_d68ev3c_c2_elabs_scored_4.5plus,openbind_d68ev3c_c2_elabs,openbind_d68ev3c_c2_elabs_scored_5plus,syndirella_product,openbind_d68ev3c_c2_elabs_scored_top80percent,syndirella_placed

>  <smiles>  (1766) 
CCn1cc(CN(C)CCCN2CCN(c3cccc(C(F)(F)F)c3)CC2)cn1

>  <subsites>  (1766) 
None

>  <rmsd(smina/fragmenstein)>  (1766) 
1.341

>  <alias>  (1766) 
None

>  <energy_score>  (1766) 
-69.995099

>  <HIPPO Pose ID>  (1766) 
131904

>  <distance_score>  (1766) 
0.550525

>  <HIPPO Compound ID>  (1766) 
157895

>  <gnina_score_min>  (1766) 
5.535

>  <name>  (1766) 
P131904

>  <exports>  (1766) 
['/opt/xchem-fragalysis-2/maxwin/BulkDock/OUTPUTS/openbind_d68ev3c_c2_elabs_1LOTQJ3.sdf', '/opt/xchem-fragalysis-2/maxwin/BulkDock/OUTPUTS/openbind_d68ev3c_c2_elabs_1LSYI5W.sdf']

$$$$
P131905
     RDKit          3D

 29 31  0  0  0  0  0  0  0  0999 V2000
  -15.8065   -2.0057    5.8568 C   0  0  0  0  0  0  0  0  0  0  0  0
  -16.9693   -1.4928    6.6312 C   0  0  0  0  0  0  0  0  0  0  0  0
  -18.2205   -1.8910    6.3396 N   0  0  0  0  0  0  0  0  0  0  0  0
  -18.9903   -1.1029    7.1079 N   0  0  0  0  0  0  0  0  0  0  0  0
  -20.4220   -1.1417    6.9457 C   0  0  0  0  0  0  0  0  0  0  0  0
  -18.2862   -0.3315    7.9775 C   0  0  0  0  0  0  0  0  0  0  0  0
  -16.9501   -0.5523    7.7011 C   0  0  0  0  0  0  0  0  0  0  0  0
  -15.7553    0.0728    8.3498 C   0  0  0  0  0  0  0  0  0  0  0  0
  -15.7856   -0.3020    9.7645 N   0  0  0  0  0  0  0  0  0  0  0  0
  -14.6135    0.1123   10.5284 C   0  0  0  0  0  0  0  0  0  0  0  0
  -14.3344    1.6110   10.5100 C   0  0  0  0  0  0  0  0  0  0  0  0
  -13.3882    2.0175    9.3788 C   0  0  0  0  0  0  0  0  0  0  0  0
  -11.9278    1.8500    9.7901 C   0  0  0  0  0  0  0  0  0  0  0  0
  -11.0811    1.4021    8.6760 N   0  0  0  0  0  0  0  0  0  0  0  0
   -9.6741    1.7290    8.9881 C   0  0  0  0  0  0  0  0  0  0  0  0
   -8.6819    1.1978    7.9386 C   0  0  0  0  0  0  0  0  0  0  0  0
   -8.7916   -0.2721    7.8280 N   0  0  0  0  0  0  0  0  0  0  0  0
   -7.7263   -0.9873    7.2782 C   0  0  0  0  0  0  0  0  0  0  0  0
   -7.8949   -2.1826    6.5594 C   0  0  0  0  0  0  0  0  0  0  0  0
   -6.8140   -2.8989    6.0343 C   0  0  0  0  0  0  0  0  0  0  0  0
   -5.5207   -2.4318    6.2075 C   0  0  0  0  0  0  0  0  0  0  0  0
   -5.3004   -1.2624    6.9341 C   0  0  0  0  0  0  0  0  0  0  0  0
   -3.9063   -0.7487    7.1332 C   0  0  0  0  0  0  0  0  0  0  0  0
   -3.1617   -0.8721    5.9997 F   0  0  0  0  0  0  0  0  0  0  0  0
   -3.8455    0.5728    7.4633 F   0  0  0  0  0  0  0  0  0  0  0  0
   -3.2246   -1.4103    8.1044 F   0  0  0  0  0  0  0  0  0  0  0  0
   -6.3979   -0.5789    7.4805 C   0  0  0  0  0  0  0  0  0  0  0  0
  -10.1812   -0.6871    7.5155 C   0  0  0  0  0  0  0  0  0  0  0  0
  -11.1847   -0.0763    8.5209 C   0  0  0  0  0  0  0  0  0  0  0  0
  1  2  1  0
  2  3  2  0
  3  4  1  0
  4  5  1  0
  4  6  1  0
  6  7  2  0
  7  8  1  0
  8  9  1  0
  9 10  1  0
 10 11  1  0
 11 12  1  0
 12 13  1  0
 13 14  1  0
 14 15  1  0
 15 16  1  0
 16 17  1  0
 17 18  1  0
 18 19  2  0
 19 20  1  0
 20 21  2  0
 21 22  1  0
 22 23  1  0
 23 24  1  0
 23 25  1  0
 23 26  1  0
 22 27  2  0
 17 28  1  0
 28 29  1  0
  7  2  1  0
 29 14  1  0
 27 18  1  0
M  END
>  <ref_mols>  (1767) 
B0426a

>  <gnina_score>  (1767) 
5.507

>  <smina_score_min>  (1767) 
-6.321

>  <ref_pdb>  (1767) 
B0426a

>  <inspiration_score>  (1767) 
None

>  <inchikey>  (1767) 
VDIKHRPECDSEKK-UHFFFAOYSA-N

>  <tags>  (1767) 
BulkDock Fragalysis export,openbind_d68ev3c_c2_elabs_scored,openbind_d68ev3c_c2_elabs_scored_4.5plus,openbind_d68ev3c_c2_elabs,openbind_d68ev3c_c2_elabs_scored_5plus,syndirella_product,openbind_d68ev3c_c2_elabs_scored_top80percent,syndirella_placed

>  <smiles>  (1767) 
Cc1nn(C)cc1CNCCCCN1CCN(c2cccc(C(F)(F)F)c2)CC1

>  <subsites>  (1767) 
None

>  <rmsd(smina/fragmenstein)>  (1767) 
0.98

>  <alias>  (1767) 
None

>  <energy_score>  (1767) 
-35.913891

>  <HIPPO Pose ID>  (1767) 
131905

>  <distance_score>  (1767) 
0.577879

>  <HIPPO Compound ID>  (1767) 
157896

>  <gnina_score_min>  (1767) 
5.269

>  <name>  (1767) 
P131905

>  <exports>  (1767) 
['/opt/xchem-fragalysis-2/maxwin/BulkDock/OUTPUTS/openbind_d68ev3c_c2_elabs_1LOTQJ3.sdf', '/opt/xchem-fragalysis-2/maxwin/BulkDock/OUTPUTS/openbind_d68ev3c_c2_elabs_1LSYI5W.sdf']

$$$$
P131906
     RDKit          3D

 29 31  0  0  0  0  0  0  0  0999 V2000
  -18.5979    3.4319    9.8925 C   0  0  0  0  0  0  0  0  0  0  0  0
  -17.1570    3.4888    9.4092 C   0  0  0  0  0  0  0  0  0  0  0  0
  -16.8582    2.3924    8.4391 C   0  0  0  0  0  0  0  0  0  0  0  0
  -16.4416    1.0840    8.6553 C   0  0  0  0  0  0  0  0  0  0  0  0
  -16.2369    0.3934    9.9611 C   0  0  0  0  0  0  0  0  0  0  0  0
  -14.9447   -0.2528   10.0583 N   0  0  0  0  0  0  0  0  0  0  0  0
  -13.8285    0.5956   10.4523 C   0  0  0  0  0  0  0  0  0  0  0  0
  -13.4482    1.6211    9.3840 C   0  0  0  0  0  0  0  0  0  0  0  0
  -11.9893    2.0669    9.4915 C   0  0  0  0  0  0  0  0  0  0  0  0
  -11.0864    1.4024    8.5403 N   0  0  0  0  0  0  0  0  0  0  0  0
   -9.7034    1.8749    8.7554 C   0  0  0  0  0  0  0  0  0  0  0  0
   -8.6842    1.2307    7.7920 C   0  0  0  0  0  0  0  0  0  0  0  0
   -8.7302   -0.2447    7.8897 N   0  0  0  0  0  0  0  0  0  0  0  0
   -7.6752   -0.9652    7.3206 C   0  0  0  0  0  0  0  0  0  0  0  0
   -7.8547   -2.1605    6.6027 C   0  0  0  0  0  0  0  0  0  0  0  0
   -6.7802   -2.8778    6.0698 C   0  0  0  0  0  0  0  0  0  0  0  0
   -5.4864   -2.4097    6.2364 C   0  0  0  0  0  0  0  0  0  0  0  0
   -5.2605   -1.2363    6.9583 C   0  0  0  0  0  0  0  0  0  0  0  0
   -3.8651   -0.7263    7.1455 C   0  0  0  0  0  0  0  0  0  0  0  0
   -3.7973    0.5987    7.4585 F   0  0  0  0  0  0  0  0  0  0  0  0
   -3.1286   -0.8683    6.0095 F   0  0  0  0  0  0  0  0  0  0  0  0
   -3.1821   -1.3798    8.1209 F   0  0  0  0  0  0  0  0  0  0  0  0
   -6.3503   -0.5480    7.5098 C   0  0  0  0  0  0  0  0  0  0  0  0
  -10.1034   -0.7618    7.6948 C   0  0  0  0  0  0  0  0  0  0  0  0
  -11.0975   -0.0753    8.6535 C   0  0  0  0  0  0  0  0  0  0  0  0
  -16.3278    0.5431    7.3491 C   0  0  0  0  0  0  0  0  0  0  0  0
  -16.6708    1.4139    6.3912 N   0  0  0  0  0  0  0  0  0  0  0  0
  -16.9525    2.5369    7.0773 N   0  0  0  0  0  0  0  0  0  0  0  0
  -17.3237    3.7284    6.3502 C   0  0  0  0  0  0  0  0  0  0  0  0
  1  2  1  0
  2  3  1  0
  3  4  2  0
  4  5  1  0
  5  6  1  0
  6  7  1  0
  7  8  1  0
  8  9  1  0
  9 10  1  0
 10 11  1  0
 11 12  1  0
 12 13  1  0
 13 14  1  0
 14 15  2  0
 15 16  1  0
 16 17  2  0
 17 18  1  0
 18 19  1  0
 19 20  1  0
 19 21  1  0
 19 22  1  0
 18 23  2  0
 13 24  1  0
 24 25  1  0
  4 26  1  0
 26 27  2  0
 27 28  1  0
 28 29  1  0
 28  3  1  0
 25 10  1  0
 23 14  1  0
M  END
>  <ref_mols>  (1768) 
B0426a

>  <gnina_score>  (1768) 
5.487

>  <smina_score_min>  (1768) 
-5.722

>  <ref_pdb>  (1768) 
B0426a

>  <inspiration_score>  (1768) 
None

>  <inchikey>  (1768) 
WUUGDXJVZIFDQG-UHFFFAOYSA-N

>  <tags>  (1768) 
BulkDock Fragalysis export,openbind_d68ev3c_c2_elabs_scored,openbind_d68ev3c_c2_elabs_scored_4.5plus,openbind_d68ev3c_c2_elabs,openbind_d68ev3c_c2_elabs_scored_5plus,syndirella_product,openbind_d68ev3c_c2_elabs_scored_top80percent,syndirella_placed

>  <smiles>  (1768) 
CCc1c(CNCCCN2CCN(c3cccc(C(F)(F)F)c3)CC2)cnn1C

>  <subsites>  (1768) 
None

>  <rmsd(smina/fragmenstein)>  (1768) 
1.053

>  <alias>  (1768) 
None

>  <energy_score>  (1768) 
-46.792793

>  <HIPPO Pose ID>  (1768) 
131906

>  <distance_score>  (1768) 
0.626983

>  <HIPPO Compound ID>  (1768) 
157897

>  <gnina_score_min>  (1768) 
5.411

>  <name>  (1768) 
P131906

>  <exports>  (1768) 
['/opt/xchem-fragalysis-2/maxwin/BulkDock/OUTPUTS/openbind_d68ev3c_c2_elabs_1LOTQJ3.sdf', '/opt/xchem-fragalysis-2/maxwin/BulkDock/OUTPUTS/openbind_d68ev3c_c2_elabs_1LSYI5W.sdf']

$$$$
P131907
     RDKit          3D

 29 31  0  0  0  0  0  0  0  0999 V2000
  -15.2256    0.6926   12.3220 C   0  0  0  0  0  0  0  0  0  0  0  0
  -15.4614    1.0162   10.9176 N   0  0  0  0  0  0  0  0  0  0  0  0
  -14.3435    1.8028   10.3753 C   0  0  0  0  0  0  0  0  0  0  0  0
  -13.2143    0.9998    9.7533 C   0  0  0  0  0  0  0  0  0  0  0  0
  -11.9923    1.8533    9.4213 C   0  0  0  0  0  0  0  0  0  0  0  0
  -11.0733    1.1807    8.4904 N   0  0  0  0  0  0  0  0  0  0  0  0
   -9.7425    1.8233    8.5243 C   0  0  0  0  0  0  0  0  0  0  0  0
   -8.7158    1.1541    7.5789 C   0  0  0  0  0  0  0  0  0  0  0  0
   -8.6281   -0.2981    7.8414 N   0  0  0  0  0  0  0  0  0  0  0  0
   -7.5681   -0.9985    7.2664 C   0  0  0  0  0  0  0  0  0  0  0  0
   -7.7292   -2.2015    6.5552 C   0  0  0  0  0  0  0  0  0  0  0  0
   -6.6430   -2.9077    6.0405 C   0  0  0  0  0  0  0  0  0  0  0  0
   -5.3611   -2.4178    6.2245 C   0  0  0  0  0  0  0  0  0  0  0  0
   -5.1620   -1.2305    6.9353 C   0  0  0  0  0  0  0  0  0  0  0  0
   -3.7782   -0.7069    7.1379 C   0  0  0  0  0  0  0  0  0  0  0  0
   -3.7243    0.6246    7.4213 F   0  0  0  0  0  0  0  0  0  0  0  0
   -3.0314   -0.8715    6.0142 F   0  0  0  0  0  0  0  0  0  0  0  0
   -3.1064   -1.3359    8.1356 F   0  0  0  0  0  0  0  0  0  0  0  0
   -6.2617   -0.5444    7.4585 C   0  0  0  0  0  0  0  0  0  0  0  0
   -9.9412   -0.9554    7.8151 C   0  0  0  0  0  0  0  0  0  0  0  0
  -10.9094   -0.2619    8.7769 C   0  0  0  0  0  0  0  0  0  0  0  0
  -15.8208   -0.1796   10.1497 C   0  0  0  0  0  0  0  0  0  0  0  0
  -16.2604    0.1280    8.7592 C   0  0  0  0  0  0  0  0  0  0  0  0
  -15.7390   -0.4303    7.5645 C   0  0  0  0  0  0  0  0  0  0  0  0
  -16.3908   -0.0412    6.4677 N   0  0  0  0  0  0  0  0  0  0  0  0
  -17.3084    0.8314    6.9391 N   0  0  0  0  0  0  0  0  0  0  0  0
  -18.1592    1.5146    5.9948 C   0  0  0  0  0  0  0  0  0  0  0  0
  -17.2820    0.9272    8.3006 C   0  0  0  0  0  0  0  0  0  0  0  0
  -18.3947    1.9077    9.1374 Cl  0  0  0  0  0  0  0  0  0  0  0  0
  1  2  1  0
  2  3  1  0
  3  4  1  0
  4  5  1  0
  5  6  1  0
  6  7  1  0
  7  8  1  0
  8  9  1  0
  9 10  1  0
 10 11  2  0
 11 12  1  0
 12 13  2  0
 13 14  1  0
 14 15  1  0
 15 16  1  0
 15 17  1  0
 15 18  1  0
 14 19  2  0
  9 20  1  0
 20 21  1  0
  2 22  1  0
 22 23  1  0
 23 24  1  0
 24 25  2  0
 25 26  1  0
 26 27  1  0
 26 28  1  0
 28 29  1  0
 21  6  1  0
 28 23  2  0
 19 10  1  0
M  END
>  <ref_mols>  (1769) 
B0426a

>  <gnina_score>  (1769) 
5.605

>  <smina_score_min>  (1769) 
-6.197

>  <ref_pdb>  (1769) 
B0426a

>  <inspiration_score>  (1769) 
None

>  <inchikey>  (1769) 
WHTNDEJLCBIYGJ-UHFFFAOYSA-N

>  <tags>  (1769) 
BulkDock Fragalysis export,openbind_d68ev3c_c2_elabs_scored,openbind_d68ev3c_c2_elabs_scored_4.5plus,openbind_d68ev3c_c2_elabs,openbind_d68ev3c_c2_elabs_scored_5plus,syndirella_product,openbind_d68ev3c_c2_elabs_scored_top80percent,syndirella_placed

>  <smiles>  (1769) 
CN(CCCN1CCN(c2cccc(C(F)(F)F)c2)CC1)Cc1cnn(C)c1Cl

>  <subsites>  (1769) 
None

>  <rmsd(smina/fragmenstein)>  (1769) 
2.467

>  <alias>  (1769) 
None

>  <energy_score>  (1769) 
-49.362383

>  <HIPPO Pose ID>  (1769) 
131907

>  <distance_score>  (1769) 
0.715062

>  <HIPPO Compound ID>  (1769) 
157898

>  <gnina_score_min>  (1769) 
5.741

>  <name>  (1769) 
P131907

>  <exports>  (1769) 
['/opt/xchem-fragalysis-2/maxwin/BulkDock/OUTPUTS/openbind_d68ev3c_c2_elabs_1LOTQJ3.sdf', '/opt/xchem-fragalysis-2/maxwin/BulkDock/OUTPUTS/openbind_d68ev3c_c2_elabs_1LSYI5W.sdf']

$$$$
P131908
     RDKit          3D

 29 31  0  0  0  0  0  0  0  0999 V2000
  -15.9836    1.9275   12.7567 C   0  0  0  0  0  0  0  0  0  0  0  0
  -14.6691    1.2451   12.8476 C   0  0  0  0  0  0  0  0  0  0  0  0
  -13.8877    0.6320   11.8929 C   0  0  0  0  0  0  0  0  0  0  0  0
  -14.1161    0.5364   10.4595 C   0  0  0  0  0  0  0  0  0  0  0  0
  -15.4440    0.0548   10.1645 N   0  0  0  0  0  0  0  0  0  0  0  0
  -15.7979    0.2285    8.7576 C   0  0  0  0  0  0  0  0  0  0  0  0
  -15.0901    1.3480    7.9549 C   0  0  0  0  0  0  0  0  0  0  0  0
  -13.6858    0.9572    7.4739 C   0  0  0  0  0  0  0  0  0  0  0  0
  -12.4812    1.7765    7.9958 C   0  0  0  0  0  0  0  0  0  0  0  0
  -11.2467    1.0628    7.6693 N   0  0  0  0  0  0  0  0  0  0  0  0
  -10.0266    1.8749    7.8458 C   0  0  0  0  0  0  0  0  0  0  0  0
   -8.7701    1.1268    7.3178 C   0  0  0  0  0  0  0  0  0  0  0  0
   -8.6497   -0.2500    7.8608 N   0  0  0  0  0  0  0  0  0  0  0  0
   -7.5653   -0.9934    7.3553 C   0  0  0  0  0  0  0  0  0  0  0  0
   -7.7017   -2.2656    6.7630 C   0  0  0  0  0  0  0  0  0  0  0  0
   -6.6084   -2.9795    6.2777 C   0  0  0  0  0  0  0  0  0  0  0  0
   -5.3400   -2.4396    6.3940 C   0  0  0  0  0  0  0  0  0  0  0  0
   -5.1618   -1.1931    7.0037 C   0  0  0  0  0  0  0  0  0  0  0  0
   -3.7822   -0.6381    7.1411 C   0  0  0  0  0  0  0  0  0  0  0  0
   -3.7409    0.7006    7.3850 F   0  0  0  0  0  0  0  0  0  0  0  0
   -3.0658   -1.2292    8.1313 F   0  0  0  0  0  0  0  0  0  0  0  0
   -3.0727   -0.8262    5.9963 F   0  0  0  0  0  0  0  0  0  0  0  0
   -6.2706   -0.4861    7.4812 C   0  0  0  0  0  0  0  0  0  0  0  0
   -9.9189   -0.9924    7.8970 C   0  0  0  0  0  0  0  0  0  0  0  0
  -11.0540   -0.1586    8.4827 C   0  0  0  0  0  0  0  0  0  0  0  0
  -12.7050    0.2585   12.5507 C   0  0  0  0  0  0  0  0  0  0  0  0
  -12.7360    0.5672   13.8399 N   0  0  0  0  0  0  0  0  0  0  0  0
  -13.9358    1.1472   13.9850 N   0  0  0  0  0  0  0  0  0  0  0  0
  -14.2998    1.6069   15.2824 C   0  0  0  0  0  0  0  0  0  0  0  0
  1  2  1  0
  2  3  2  0
  3  4  1  0
  4  5  1  0
  5  6  1  0
  6  7  1  0
  7  8  1  0
  8  9  1  0
  9 10  1  0
 10 11  1  0
 11 12  1  0
 12 13  1  0
 13 14  1  0
 14 15  2  0
 15 16  1  0
 16 17  2  0
 17 18  1  0
 18 19  1  0
 19 20  1  0
 19 21  1  0
 19 22  1  0
 18 23  2  0
 13 24  1  0
 24 25  1  0
  3 26  1  0
 26 27  2  0
 27 28  1  0
 28 29  1  0
 28  2  1  0
 25 10  1  0
 23 14  1  0
M  END
>  <ref_mols>  (1770) 
B0426a

>  <gnina_score>  (1770) 
5.893

>  <smina_score_min>  (1770) 
-6.013

>  <ref_pdb>  (1770) 
B0426a

>  <inspiration_score>  (1770) 
None

>  <inchikey>  (1770) 
QYCRQDOAKOEFGX-UHFFFAOYSA-N

>  <tags>  (1770) 
BulkDock Fragalysis export,openbind_d68ev3c_c2_elabs_scored,openbind_d68ev3c_c2_elabs_scored_4.5plus,openbind_d68ev3c_c2_elabs,openbind_d68ev3c_c2_elabs_scored_5plus,syndirella_product,openbind_d68ev3c_c2_elabs_scored_top80percent,syndirella_placed

>  <smiles>  (1770) 
Cc1c(CNCCCCN2CCN(c3cccc(C(F)(F)F)c3)CC2)cnn1C

>  <subsites>  (1770) 
None

>  <rmsd(smina/fragmenstein)>  (1770) 
0.905

>  <alias>  (1770) 
None

>  <energy_score>  (1770) 
-25.59968

>  <HIPPO Pose ID>  (1770) 
131908

>  <distance_score>  (1770) 
0.781386

>  <HIPPO Compound ID>  (1770) 
157899

>  <gnina_score_min>  (1770) 
5.558

>  <name>  (1770) 
P131908

>  <exports>  (1770) 
['/opt/xchem-fragalysis-2/maxwin/BulkDock/OUTPUTS/openbind_d68ev3c_c2_elabs_1LOTQJ3.sdf', '/opt/xchem-fragalysis-2/maxwin/BulkDock/OUTPUTS/openbind_d68ev3c_c2_elabs_1LSYI5W.sdf']

$$$$
P131909
     RDKit          3D

 29 31  0  0  0  0  0  0  0  0999 V2000
  -13.6330    3.1071   13.9105 C   0  0  0  0  0  0  0  0  0  0  0  0
  -14.5279    2.1482   13.3378 N   0  0  0  0  0  0  0  0  0  0  0  0
  -15.8456    2.2118   13.6187 N   0  0  0  0  0  0  0  0  0  0  0  0
  -16.3652    1.2796   12.8167 C   0  0  0  0  0  0  0  0  0  0  0  0
  -15.3802    0.5849   12.0724 C   0  0  0  0  0  0  0  0  0  0  0  0
  -15.5773   -0.4642   11.0681 C   0  0  0  0  0  0  0  0  0  0  0  0
  -16.5181    0.0464   10.0952 N   0  0  0  0  0  0  0  0  0  0  0  0
  -15.9479    0.3001    8.7843 C   0  0  0  0  0  0  0  0  0  0  0  0
  -14.8774    1.3902    8.7557 C   0  0  0  0  0  0  0  0  0  0  0  0
  -13.4818    0.8032    8.6087 C   0  0  0  0  0  0  0  0  0  0  0  0
  -12.4332    1.8911    8.3617 C   0  0  0  0  0  0  0  0  0  0  0  0
  -11.1023    1.4207    7.9664 N   0  0  0  0  0  0  0  0  0  0  0  0
  -10.2142    1.1413    9.1126 C   0  0  0  0  0  0  0  0  0  0  0  0
   -8.7916    0.7409    8.6428 C   0  0  0  0  0  0  0  0  0  0  0  0
   -8.8568   -0.4281    7.7433 N   0  0  0  0  0  0  0  0  0  0  0  0
   -7.6905   -1.0988    7.3746 C   0  0  0  0  0  0  0  0  0  0  0  0
   -7.7928   -2.3931    6.8338 C   0  0  0  0  0  0  0  0  0  0  0  0
   -6.6772   -3.0894    6.3793 C   0  0  0  0  0  0  0  0  0  0  0  0
   -5.4226   -2.5060    6.4822 C   0  0  0  0  0  0  0  0  0  0  0  0
   -5.2776   -1.2365    7.0556 C   0  0  0  0  0  0  0  0  0  0  0  0
   -3.9087   -0.6377    7.1720 C   0  0  0  0  0  0  0  0  0  0  0  0
   -3.9042    0.6942    7.4575 F   0  0  0  0  0  0  0  0  0  0  0  0
   -3.1503   -1.2314    8.1308 F   0  0  0  0  0  0  0  0  0  0  0  0
   -3.2108   -0.7664    6.0097 F   0  0  0  0  0  0  0  0  0  0  0  0
   -6.4134   -0.5476    7.5048 C   0  0  0  0  0  0  0  0  0  0  0  0
   -9.7575   -0.1958    6.5962 C   0  0  0  0  0  0  0  0  0  0  0  0
  -11.1434    0.2266    7.0954 C   0  0  0  0  0  0  0  0  0  0  0  0
  -14.2054    1.1250   12.5121 C   0  0  0  0  0  0  0  0  0  0  0  0
  -12.5883    0.7453   12.1710 Cl  0  0  0  0  0  0  0  0  0  0  0  0
  1  2  1  0
  2  3  1  0
  3  4  2  0
  4  5  1  0
  5  6  1  0
  6  7  1  0
  7  8  1  0
  8  9  1  0
  9 10  1  0
 10 11  1  0
 11 12  1  0
 12 13  1  0
 13 14  1  0
 14 15  1  0
 15 16  1  0
 16 17  2  0
 17 18  1  0
 18 19  2  0
 19 20  1  0
 20 21  1  0
 21 22  1  0
 21 23  1  0
 21 24  1  0
 20 25  2  0
 15 26  1  0
 26 27  1  0
  5 28  2  0
 28 29  1  0
 28  2  1  0
 27 12  1  0
 25 16  1  0
M  END
>  <ref_mols>  (1771) 
B0426a

>  <gnina_score>  (1771) 
6.031

>  <smina_score_min>  (1771) 
-6.265

>  <ref_pdb>  (1771) 
B0426a

>  <inspiration_score>  (1771) 
None

>  <inchikey>  (1771) 
QTMGSUSJGBHRIF-UHFFFAOYSA-N

>  <tags>  (1771) 
BulkDock Fragalysis export,openbind_d68ev3c_c2_elabs_scored,openbind_d68ev3c_c2_elabs_scored_4.5plus,openbind_d68ev3c_c2_elabs,openbind_d68ev3c_c2_elabs_scored_5plus,syndirella_product,openbind_d68ev3c_c2_elabs_scored_top80percent,syndirella_placed

>  <smiles>  (1771) 
Cn1ncc(CNCCCCN2CCN(c3cccc(C(F)(F)F)c3)CC2)c1Cl

>  <subsites>  (1771) 
None

>  <rmsd(smina/fragmenstein)>  (1771) 
0.979

>  <alias>  (1771) 
None

>  <energy_score>  (1771) 
-41.476224

>  <HIPPO Pose ID>  (1771) 
131909

>  <distance_score>  (1771) 
0.857833

>  <HIPPO Compound ID>  (1771) 
157900

>  <gnina_score_min>  (1771) 
5.65

>  <name>  (1771) 
P131909

>  <exports>  (1771) 
['/opt/xchem-fragalysis-2/maxwin/BulkDock/OUTPUTS/openbind_d68ev3c_c2_elabs_1LOTQJ3.sdf', '/opt/xchem-fragalysis-2/maxwin/BulkDock/OUTPUTS/openbind_d68ev3c_c2_elabs_1LSYI5W.sdf']

$$$$
P131910
     RDKit          3D

 29 31  0  0  0  0  0  0  0  0999 V2000
  -20.5426    0.8469    7.6004 C   0  0  0  0  0  0  0  0  0  0  0  0
  -19.9567    1.8921    6.9987 C   0  0  0  0  0  0  0  0  0  0  0  0
  -18.4832    2.1324    6.7806 C   0  0  0  0  0  0  0  0  0  0  0  0
  -17.5839    1.1535    7.3804 N   0  0  0  0  0  0  0  0  0  0  0  0
  -17.0882    1.1745    8.6548 C   0  0  0  0  0  0  0  0  0  0  0  0
  -16.2079    0.1155    8.7542 C   0  0  0  0  0  0  0  0  0  0  0  0
  -15.4266   -0.3874    9.9136 C   0  0  0  0  0  0  0  0  0  0  0  0
  -15.0823    0.6651   10.8652 N   0  0  0  0  0  0  0  0  0  0  0  0
  -13.6808    1.0690   10.7244 C   0  0  0  0  0  0  0  0  0  0  0  0
  -13.4137    1.8006    9.4085 C   0  0  0  0  0  0  0  0  0  0  0  0
  -11.9619    2.2736    9.3092 C   0  0  0  0  0  0  0  0  0  0  0  0
  -11.1039    1.4689    8.4285 N   0  0  0  0  0  0  0  0  0  0  0  0
   -9.7356    2.0355    8.4340 C   0  0  0  0  0  0  0  0  0  0  0  0
   -8.7466    1.2627    7.5370 C   0  0  0  0  0  0  0  0  0  0  0  0
   -8.7072   -0.1633    7.9171 N   0  0  0  0  0  0  0  0  0  0  0  0
   -7.6722   -0.9219    7.3573 C   0  0  0  0  0  0  0  0  0  0  0  0
   -7.8733   -2.1489    6.7035 C   0  0  0  0  0  0  0  0  0  0  0  0
   -6.8103   -2.8891    6.1804 C   0  0  0  0  0  0  0  0  0  0  0  0
   -5.5122   -2.4151    6.3028 C   0  0  0  0  0  0  0  0  0  0  0  0
   -5.2688   -1.2095    6.9659 C   0  0  0  0  0  0  0  0  0  0  0  0
   -3.8667   -0.7053    7.1147 C   0  0  0  0  0  0  0  0  0  0  0  0
   -3.1579   -0.8624    5.9629 F   0  0  0  0  0  0  0  0  0  0  0  0
   -3.1647   -1.3542    8.0801 F   0  0  0  0  0  0  0  0  0  0  0  0
   -3.7837    0.6218    7.4143 F   0  0  0  0  0  0  0  0  0  0  0  0
   -6.3468   -0.4891    7.4964 C   0  0  0  0  0  0  0  0  0  0  0  0
  -10.0540   -0.7682    7.9355 C   0  0  0  0  0  0  0  0  0  0  0  0
  -11.0211    0.0442    8.8237 C   0  0  0  0  0  0  0  0  0  0  0  0
  -16.2538   -0.4760    7.4659 C   0  0  0  0  0  0  0  0  0  0  0  0
  -17.1310    0.1127    6.6497 N   0  0  0  0  0  0  0  0  0  0  0  0
  1  2  2  0
  2  3  1  0
  3  4  1  0
  4  5  1  0
  5  6  2  0
  6  7  1  0
  7  8  1  0
  8  9  1  0
  9 10  1  0
 10 11  1  0
 11 12  1  0
 12 13  1  0
 13 14  1  0
 14 15  1  0
 15 16  1  0
 16 17  2  0
 17 18  1  0
 18 19  2  0
 19 20  1  0
 20 21  1  0
 21 22  1  0
 21 23  1  0
 21 24  1  0
 20 25  2  0
 15 26  1  0
 26 27  1  0
  6 28  1  0
 28 29  2  0
 29  4  1  0
 27 12  1  0
 25 16  1  0
M  END
>  <ref_mols>  (1772) 
B0426a

>  <gnina_score>  (1772) 
5.132

>  <smina_score_min>  (1772) 
-5.624

>  <ref_pdb>  (1772) 
B0426a

>  <inspiration_score>  (1772) 
None

>  <inchikey>  (1772) 
OOVDAFVICSTYJA-UHFFFAOYSA-N

>  <tags>  (1772) 
BulkDock Fragalysis export,openbind_d68ev3c_c2_elabs_scored,openbind_d68ev3c_c2_elabs_scored_4.5plus,openbind_d68ev3c_c2_elabs,openbind_d68ev3c_c2_elabs_scored_5plus,syndirella_product,openbind_d68ev3c_c2_elabs_scored_top80percent,syndirella_placed

>  <smiles>  (1772) 
C=CCn1cc(CNCCCN2CCN(c3cccc(C(F)(F)F)c3)CC2)cn1

>  <subsites>  (1772) 
None

>  <rmsd(smina/fragmenstein)>  (1772) 
1.92

>  <alias>  (1772) 
None

>  <energy_score>  (1772) 
-59.388852

>  <HIPPO Pose ID>  (1772) 
131910

>  <distance_score>  (1772) 
0.59851

>  <HIPPO Compound ID>  (1772) 
157901

>  <gnina_score_min>  (1772) 
5.477

>  <name>  (1772) 
P131910

>  <exports>  (1772) 
['/opt/xchem-fragalysis-2/maxwin/BulkDock/OUTPUTS/openbind_d68ev3c_c2_elabs_1LOTQJ3.sdf', '/opt/xchem-fragalysis-2/maxwin/BulkDock/OUTPUTS/openbind_d68ev3c_c2_elabs_1LSYI5W.sdf']

$$$$
P131911
     RDKit          3D

 29 31  0  0  0  0  0  0  0  0999 V2000
  -16.3125    5.0897    4.6430 C   0  0  0  0  0  0  0  0  0  0  0  0
  -16.2581    4.4118    6.0018 C   0  0  0  0  0  0  0  0  0  0  0  0
  -17.1421    3.1689    6.0397 C   0  0  0  0  0  0  0  0  0  0  0  0
  -17.0812    2.4976    7.3250 N   0  0  0  0  0  0  0  0  0  0  0  0
  -16.3477    1.3876    7.6280 C   0  0  0  0  0  0  0  0  0  0  0  0
  -16.5813    1.1119    8.9608 C   0  0  0  0  0  0  0  0  0  0  0  0
  -16.0421   -0.0036    9.7766 C   0  0  0  0  0  0  0  0  0  0  0  0
  -15.3678    0.4660   10.9894 N   0  0  0  0  0  0  0  0  0  0  0  0
  -14.2264    1.3574   10.7455 C   0  0  0  0  0  0  0  0  0  0  0  0
  -13.2684    0.8154    9.7005 C   0  0  0  0  0  0  0  0  0  0  0  0
  -11.9789    1.6247    9.5947 C   0  0  0  0  0  0  0  0  0  0  0  0
  -11.0951    1.1326    8.5198 N   0  0  0  0  0  0  0  0  0  0  0  0
   -9.7316    1.6771    8.7131 C   0  0  0  0  0  0  0  0  0  0  0  0
   -8.6950    1.1258    7.7059 C   0  0  0  0  0  0  0  0  0  0  0  0
   -8.6785   -0.3539    7.7330 N   0  0  0  0  0  0  0  0  0  0  0  0
   -7.5879   -1.0327    7.1963 C   0  0  0  0  0  0  0  0  0  0  0  0
   -7.7117   -2.2206    6.4517 C   0  0  0  0  0  0  0  0  0  0  0  0
   -6.6045   -2.9131    5.9624 C   0  0  0  0  0  0  0  0  0  0  0  0
   -5.3326   -2.4226    6.1986 C   0  0  0  0  0  0  0  0  0  0  0  0
   -5.1652   -1.2517    6.9413 C   0  0  0  0  0  0  0  0  0  0  0  0
   -3.7920   -0.7175    7.1898 C   0  0  0  0  0  0  0  0  0  0  0  0
   -3.7597    0.6131    7.4807 F   0  0  0  0  0  0  0  0  0  0  0  0
   -3.1462   -1.3457    8.2043 F   0  0  0  0  0  0  0  0  0  0  0  0
   -3.0090   -0.8692    6.0895 F   0  0  0  0  0  0  0  0  0  0  0  0
   -6.2873   -0.5876    7.4494 C   0  0  0  0  0  0  0  0  0  0  0  0
  -10.0136   -0.9251    7.5114 C   0  0  0  0  0  0  0  0  0  0  0  0
  -11.0142   -0.3464    8.5134 C   0  0  0  0  0  0  0  0  0  0  0  0
  -17.4926    2.1199    9.3557 C   0  0  0  0  0  0  0  0  0  0  0  0
  -17.8072    2.9560    8.3625 N   0  0  0  0  0  0  0  0  0  0  0  0
  1  2  1  0
  2  3  1  0
  3  4  1  0
  4  5  1  0
  5  6  2  0
  6  7  1  0
  7  8  1  0
  8  9  1  0
  9 10  1  0
 10 11  1  0
 11 12  1  0
 12 13  1  0
 13 14  1  0
 14 15  1  0
 15 16  1  0
 16 17  2  0
 17 18  1  0
 18 19  2  0
 19 20  1  0
 20 21  1  0
 21 22  1  0
 21 23  1  0
 21 24  1  0
 20 25  2  0
 15 26  1  0
 26 27  1  0
  6 28  1  0
 28 29  2  0
 29  4  1  0
 27 12  1  0
 25 16  1  0
M  END
>  <ref_mols>  (1773) 
B0426a

>  <gnina_score>  (1773) 
5.343

>  <smina_score_min>  (1773) 
-5.722

>  <ref_pdb>  (1773) 
B0426a

>  <inspiration_score>  (1773) 
None

>  <inchikey>  (1773) 
WLDZOPBGWYDMLJ-UHFFFAOYSA-N

>  <tags>  (1773) 
BulkDock Fragalysis export,openbind_d68ev3c_c2_elabs_scored,openbind_d68ev3c_c2_elabs_scored_4.5plus,openbind_d68ev3c_c2_elabs,openbind_d68ev3c_c2_elabs_scored_5plus,syndirella_product,openbind_d68ev3c_c2_elabs_scored_top80percent,syndirella_placed

>  <smiles>  (1773) 
CCCn1cc(CNCCCN2CCN(c3cccc(C(F)(F)F)c3)CC2)cn1

>  <subsites>  (1773) 
None

>  <rmsd(smina/fragmenstein)>  (1773) 
2.661

>  <alias>  (1773) 
None

>  <energy_score>  (1773) 
-65.570496

>  <HIPPO Pose ID>  (1773) 
131911

>  <distance_score>  (1773) 
0.680234

>  <HIPPO Compound ID>  (1773) 
157902

>  <gnina_score_min>  (1773) 
5.478

>  <name>  (1773) 
P131911

>  <exports>  (1773) 
['/opt/xchem-fragalysis-2/maxwin/BulkDock/OUTPUTS/openbind_d68ev3c_c2_elabs_1LOTQJ3.sdf', '/opt/xchem-fragalysis-2/maxwin/BulkDock/OUTPUTS/openbind_d68ev3c_c2_elabs_1LSYI5W.sdf']

$$$$
P131912
     RDKit          3D

 29 31  0  0  0  0  0  0  0  0999 V2000
  -16.4600    2.7719    7.9657 C   0  0  0  0  0  0  0  0  0  0  0  0
  -15.7793    1.5211    7.5474 C   0  0  0  0  0  0  0  0  0  0  0  0
  -15.4692    0.3724    8.2643 C   0  0  0  0  0  0  0  0  0  0  0  0
  -15.7548    0.0463    9.6945 C   0  0  0  0  0  0  0  0  0  0  0  0
  -15.2518    1.1146   10.5708 N   0  0  0  0  0  0  0  0  0  0  0  0
  -16.2113    1.3889   11.6438 C   0  0  0  0  0  0  0  0  0  0  0  0
  -13.9330    0.8425   11.1526 C   0  0  0  0  0  0  0  0  0  0  0  0
  -12.7987    0.4971   10.1923 C   0  0  0  0  0  0  0  0  0  0  0  0
  -12.3388    1.6509    9.2890 C   0  0  0  0  0  0  0  0  0  0  0  0
  -11.1288    1.3797    8.4859 N   0  0  0  0  0  0  0  0  0  0  0  0
  -11.2701    0.1564    7.6627 C   0  0  0  0  0  0  0  0  0  0  0  0
  -10.0091   -0.2101    6.8546 C   0  0  0  0  0  0  0  0  0  0  0  0
   -8.8341   -0.2898    7.7475 N   0  0  0  0  0  0  0  0  0  0  0  0
   -7.7311   -0.9962    7.2802 C   0  0  0  0  0  0  0  0  0  0  0  0
   -7.8846   -2.2960    6.7701 C   0  0  0  0  0  0  0  0  0  0  0  0
   -6.7995   -3.0413    6.3078 C   0  0  0  0  0  0  0  0  0  0  0  0
   -5.5213   -2.5039    6.3669 C   0  0  0  0  0  0  0  0  0  0  0  0
   -5.3204   -1.2283    6.9007 C   0  0  0  0  0  0  0  0  0  0  0  0
   -3.9310   -0.6733    6.9952 C   0  0  0  0  0  0  0  0  0  0  0  0
   -3.2525   -0.8207    5.8232 F   0  0  0  0  0  0  0  0  0  0  0  0
   -3.1767   -1.2901    7.9441 F   0  0  0  0  0  0  0  0  0  0  0  0
   -3.8785    0.6578    7.2831 F   0  0  0  0  0  0  0  0  0  0  0  0
   -6.4258   -0.4910    7.3487 C   0  0  0  0  0  0  0  0  0  0  0  0
   -8.6461    0.9440    8.5274 C   0  0  0  0  0  0  0  0  0  0  0  0
   -9.9215    1.2755    9.3273 C   0  0  0  0  0  0  0  0  0  0  0  0
  -14.8331   -0.4559    7.3107 C   0  0  0  0  0  0  0  0  0  0  0  0
  -14.7206    0.1127    6.1106 N   0  0  0  0  0  0  0  0  0  0  0  0
  -15.2498    1.3369    6.2939 N   0  0  0  0  0  0  0  0  0  0  0  0
  -15.1465    2.3206    5.2419 C   0  0  0  0  0  0  0  0  0  0  0  0
  1  2  1  0
  2  3  2  0
  3  4  1  0
  4  5  1  0
  5  6  1  0
  5  7  1  0
  7  8  1  0
  8  9  1  0
  9 10  1  0
 10 11  1  0
 11 12  1  0
 12 13  1  0
 13 14  1  0
 14 15  2  0
 15 16  1  0
 16 17  2  0
 17 18  1  0
 18 19  1  0
 19 20  1  0
 19 21  1  0
 19 22  1  0
 18 23  2  0
 13 24  1  0
 24 25  1  0
  3 26  1  0
 26 27  2  0
 27 28  1  0
 28 29  1  0
 28  2  1  0
 25 10  1  0
 23 14  1  0
M  END
>  <ref_mols>  (1774) 
B0426a

>  <gnina_score>  (1774) 
5.735

>  <smina_score_min>  (1774) 
-5.83

>  <ref_pdb>  (1774) 
B0426a

>  <inspiration_score>  (1774) 
None

>  <inchikey>  (1774) 
JTRZGGBPVIKFMU-UHFFFAOYSA-N

>  <tags>  (1774) 
BulkDock Fragalysis export,openbind_d68ev3c_c2_elabs_scored,openbind_d68ev3c_c2_elabs_scored_4.5plus,openbind_d68ev3c_c2_elabs,openbind_d68ev3c_c2_elabs_scored_5plus,syndirella_product,openbind_d68ev3c_c2_elabs_scored_top80percent,syndirella_placed

>  <smiles>  (1774) 
Cc1c(CN(C)CCCN2CCN(c3cccc(C(F)(F)F)c3)CC2)cnn1C

>  <subsites>  (1774) 
None

>  <rmsd(smina/fragmenstein)>  (1774) 
1.231

>  <alias>  (1774) 
None

>  <energy_score>  (1774) 
-61.109599

>  <HIPPO Pose ID>  (1774) 
131912

>  <distance_score>  (1774) 
0.583093

>  <HIPPO Compound ID>  (1774) 
157903

>  <gnina_score_min>  (1774) 
5.625

>  <name>  (1774) 
P131912

>  <exports>  (1774) 
['/opt/xchem-fragalysis-2/maxwin/BulkDock/OUTPUTS/openbind_d68ev3c_c2_elabs_1LOTQJ3.sdf', '/opt/xchem-fragalysis-2/maxwin/BulkDock/OUTPUTS/openbind_d68ev3c_c2_elabs_1LSYI5W.sdf']

$$$$
P131913
     RDKit          3D

 29 31  0  0  0  0  0  0  0  0999 V2000
  -17.3293    5.3333    7.1861 C   0  0  0  0  0  0  0  0  0  0  0  0
  -17.0447    4.1914    6.5471 C   0  0  0  0  0  0  0  0  0  0  0  0
  -16.7687    2.9011    7.0297 N   0  0  0  0  0  0  0  0  0  0  0  0
  -16.4685    1.8859    6.1591 N   0  0  0  0  0  0  0  0  0  0  0  0
  -16.1602    0.8429    6.9255 C   0  0  0  0  0  0  0  0  0  0  0  0
  -16.3492    1.0874    8.2974 C   0  0  0  0  0  0  0  0  0  0  0  0
  -16.1818    0.0998    9.4032 C   0  0  0  0  0  0  0  0  0  0  0  0
  -14.7743   -0.0674    9.6649 N   0  0  0  0  0  0  0  0  0  0  0  0
  -14.2142    0.8296   10.6577 C   0  0  0  0  0  0  0  0  0  0  0  0
  -12.7213    0.9580   10.3924 C   0  0  0  0  0  0  0  0  0  0  0  0
  -12.4162    1.7242    9.0902 C   0  0  0  0  0  0  0  0  0  0  0  0
  -11.1969    1.3295    8.3723 N   0  0  0  0  0  0  0  0  0  0  0  0
   -9.9947    1.3422    9.2224 C   0  0  0  0  0  0  0  0  0  0  0  0
   -8.7257    0.9127    8.4573 C   0  0  0  0  0  0  0  0  0  0  0  0
   -8.8958   -0.4135    7.8319 N   0  0  0  0  0  0  0  0  0  0  0  0
   -7.7724   -1.0886    7.3446 C   0  0  0  0  0  0  0  0  0  0  0  0
   -7.8828   -2.3989    6.8482 C   0  0  0  0  0  0  0  0  0  0  0  0
   -6.7826   -3.1011    6.3533 C   0  0  0  0  0  0  0  0  0  0  0  0
   -5.5249   -2.5162    6.3752 C   0  0  0  0  0  0  0  0  0  0  0  0
   -5.3590   -1.2345    6.9044 C   0  0  0  0  0  0  0  0  0  0  0  0
   -3.9868   -0.6325    6.9721 C   0  0  0  0  0  0  0  0  0  0  0  0
   -3.2019   -1.2098    7.9219 F   0  0  0  0  0  0  0  0  0  0  0  0
   -3.3137   -0.7751    5.7958 F   0  0  0  0  0  0  0  0  0  0  0  0
   -3.9752    0.7036    7.2407 F   0  0  0  0  0  0  0  0  0  0  0  0
   -6.4818   -0.5379    7.3793 C   0  0  0  0  0  0  0  0  0  0  0  0
  -10.1177   -0.4921    6.9944 C   0  0  0  0  0  0  0  0  0  0  0  0
  -11.3594   -0.0157    7.7735 C   0  0  0  0  0  0  0  0  0  0  0  0
  -16.7614    2.4129    8.3459 C   0  0  0  0  0  0  0  0  0  0  0  0
  -17.1307    3.2160    9.5410 C   0  0  0  0  0  0  0  0  0  0  0  0
  1  2  2  0
  2  3  1  0
  3  4  1  0
  4  5  2  0
  5  6  1  0
  6  7  1  0
  7  8  1  0
  8  9  1  0
  9 10  1  0
 10 11  1  0
 11 12  1  0
 12 13  1  0
 13 14  1  0
 14 15  1  0
 15 16  1  0
 16 17  2  0
 17 18  1  0
 18 19  2  0
 19 20  1  0
 20 21  1  0
 21 22  1  0
 21 23  1  0
 21 24  1  0
 20 25  2  0
 15 26  1  0
 26 27  1  0
  6 28  2  0
 28 29  1  0
 28  3  1  0
 27 12  1  0
 25 16  1  0
M  END
>  <ref_mols>  (1775) 
B0426a

>  <gnina_score>  (1775) 
5.435

>  <smina_score_min>  (1775) 
-5.701

>  <ref_pdb>  (1775) 
B0426a

>  <inspiration_score>  (1775) 
None

>  <inchikey>  (1775) 
XJENCXHUAWFDOJ-UHFFFAOYSA-N

>  <tags>  (1775) 
BulkDock Fragalysis export,openbind_d68ev3c_c2_elabs_scored,openbind_d68ev3c_c2_elabs_scored_4.5plus,openbind_d68ev3c_c2_elabs,openbind_d68ev3c_c2_elabs_scored_5plus,syndirella_product,openbind_d68ev3c_c2_elabs_scored_top80percent,syndirella_placed

>  <smiles>  (1775) 
C=Cn1ncc(CNCCCN2CCN(c3cccc(C(F)(F)F)c3)CC2)c1C

>  <subsites>  (1775) 
None

>  <rmsd(smina/fragmenstein)>  (1775) 
1.257

>  <alias>  (1775) 
None

>  <energy_score>  (1775) 
-36.343389

>  <HIPPO Pose ID>  (1775) 
131913

>  <distance_score>  (1775) 
0.65398

>  <HIPPO Compound ID>  (1775) 
157904

>  <gnina_score_min>  (1775) 
5.39

>  <name>  (1775) 
P131913

>  <exports>  (1775) 
['/opt/xchem-fragalysis-2/maxwin/BulkDock/OUTPUTS/openbind_d68ev3c_c2_elabs_1LOTQJ3.sdf', '/opt/xchem-fragalysis-2/maxwin/BulkDock/OUTPUTS/openbind_d68ev3c_c2_elabs_1LSYI5W.sdf']

$$$$
P131914
     RDKit          3D

 29 31  0  0  0  0  0  0  0  0999 V2000
  -14.6416   -0.8596    4.2820 C   0  0  0  0  0  0  0  0  0  0  0  0
  -14.4070    0.4196    5.0599 C   0  0  0  0  0  0  0  0  0  0  0  0
  -15.2925    0.5757    6.1989 N   0  0  0  0  0  0  0  0  0  0  0  0
  -15.3077   -0.2057    7.3175 C   0  0  0  0  0  0  0  0  0  0  0  0
  -15.9664    0.5201    8.2946 C   0  0  0  0  0  0  0  0  0  0  0  0
  -16.0994    0.2396    9.7568 C   0  0  0  0  0  0  0  0  0  0  0  0
  -14.8935   -0.3560   10.3238 N   0  0  0  0  0  0  0  0  0  0  0  0
  -13.8032    0.5673   10.6453 C   0  0  0  0  0  0  0  0  0  0  0  0
  -13.3910    1.5635    9.5570 C   0  0  0  0  0  0  0  0  0  0  0  0
  -11.9348    2.0140    9.6707 C   0  0  0  0  0  0  0  0  0  0  0  0
  -11.0621    1.3643    8.6769 N   0  0  0  0  0  0  0  0  0  0  0  0
  -11.0289   -0.1113    8.8167 C   0  0  0  0  0  0  0  0  0  0  0  0
  -10.0723   -0.7862    7.8134 C   0  0  0  0  0  0  0  0  0  0  0  0
   -8.7082   -0.2343    7.9254 N   0  0  0  0  0  0  0  0  0  0  0  0
   -7.6631   -0.9488    7.3358 C   0  0  0  0  0  0  0  0  0  0  0  0
   -7.8519   -2.1437    6.6191 C   0  0  0  0  0  0  0  0  0  0  0  0
   -6.7841   -2.8631    6.0766 C   0  0  0  0  0  0  0  0  0  0  0  0
   -5.4883   -2.3972    6.2326 C   0  0  0  0  0  0  0  0  0  0  0  0
   -5.2544   -1.2218    6.9496 C   0  0  0  0  0  0  0  0  0  0  0  0
   -3.8560   -0.7178    7.1291 C   0  0  0  0  0  0  0  0  0  0  0  0
   -3.1265   -0.8680    5.9899 F   0  0  0  0  0  0  0  0  0  0  0  0
   -3.7816    0.6081    7.4359 F   0  0  0  0  0  0  0  0  0  0  0  0
   -3.1720   -1.3704    8.1041 F   0  0  0  0  0  0  0  0  0  0  0  0
   -6.3378   -0.5284    7.5069 C   0  0  0  0  0  0  0  0  0  0  0  0
   -8.6931    1.2396    7.8156 C   0  0  0  0  0  0  0  0  0  0  0  0
   -9.6816    1.8722    8.8199 C   0  0  0  0  0  0  0  0  0  0  0  0
  -16.4685    1.6529    7.5894 C   0  0  0  0  0  0  0  0  0  0  0  0
  -17.2916    2.7676    8.1199 C   0  0  0  0  0  0  0  0  0  0  0  0
  -16.0636    1.6719    6.3138 N   0  0  0  0  0  0  0  0  0  0  0  0
  1  2  1  0
  2  3  1  0
  3  4  1  0
  4  5  2  0
  5  6  1  0
  6  7  1  0
  7  8  1  0
  8  9  1  0
  9 10  1  0
 10 11  1  0
 11 12  1  0
 12 13  1  0
 13 14  1  0
 14 15  1  0
 15 16  2  0
 16 17  1  0
 17 18  2  0
 18 19  1  0
 19 20  1  0
 20 21  1  0
 20 22  1  0
 20 23  1  0
 19 24  2  0
 14 25  1  0
 25 26  1  0
  5 27  1  0
 27 28  1  0
 27 29  2  0
 29  3  1  0
 26 11  1  0
 24 15  1  0
M  END
>  <ref_mols>  (1776) 
B0426a

>  <gnina_score>  (1776) 
5.492

>  <smina_score_min>  (1776) 
-5.401

>  <ref_pdb>  (1776) 
B0426a

>  <inspiration_score>  (1776) 
None

>  <inchikey>  (1776) 
FXYNKWJFSDPNPI-UHFFFAOYSA-N

>  <tags>  (1776) 
BulkDock Fragalysis export,openbind_d68ev3c_c2_elabs_scored,openbind_d68ev3c_c2_elabs_scored_4.5plus,openbind_d68ev3c_c2_elabs,openbind_d68ev3c_c2_elabs_scored_5plus,syndirella_product,openbind_d68ev3c_c2_elabs_scored_top80percent,syndirella_placed

>  <smiles>  (1776) 
CCn1cc(CNCCCN2CCN(c3cccc(C(F)(F)F)c3)CC2)c(C)n1

>  <subsites>  (1776) 
None

>  <rmsd(smina/fragmenstein)>  (1776) 
1.183

>  <alias>  (1776) 
None

>  <energy_score>  (1776) 
-38.810225

>  <HIPPO Pose ID>  (1776) 
131914

>  <distance_score>  (1776) 
0.535452

>  <HIPPO Compound ID>  (1776) 
157905

>  <gnina_score_min>  (1776) 
5.531

>  <name>  (1776) 
P131914

>  <exports>  (1776) 
['/opt/xchem-fragalysis-2/maxwin/BulkDock/OUTPUTS/openbind_d68ev3c_c2_elabs_1LOTQJ3.sdf', '/opt/xchem-fragalysis-2/maxwin/BulkDock/OUTPUTS/openbind_d68ev3c_c2_elabs_1LSYI5W.sdf']

$$$$
P131915
     RDKit          3D

 29 31  0  0  0  0  0  0  0  0999 V2000
  -11.8528    1.2975    4.2300 O   0  0  0  0  0  0  0  0  0  0  0  0
  -12.7696    2.3144    4.6356 C   0  0  0  0  0  0  0  0  0  0  0  0
  -14.2089    1.8122    4.6065 C   0  0  0  0  0  0  0  0  0  0  0  0
  -14.4808    0.9505    5.7423 N   0  0  0  0  0  0  0  0  0  0  0  0
  -15.2500    1.2382    6.8313 C   0  0  0  0  0  0  0  0  0  0  0  0
  -15.0626    0.2011    7.7277 C   0  0  0  0  0  0  0  0  0  0  0  0
  -15.6143    0.0671    9.1029 C   0  0  0  0  0  0  0  0  0  0  0  0
  -14.5600   -0.2542   10.0628 N   0  0  0  0  0  0  0  0  0  0  0  0
  -13.9671    0.8860   10.7500 C   0  0  0  0  0  0  0  0  0  0  0  0
  -13.3740    2.0089    9.8920 C   0  0  0  0  0  0  0  0  0  0  0  0
  -11.8471    2.1190    9.8928 C   0  0  0  0  0  0  0  0  0  0  0  0
  -11.1345    1.4934    8.7692 N   0  0  0  0  0  0  0  0  0  0  0  0
   -9.7304    1.9718    8.7762 C   0  0  0  0  0  0  0  0  0  0  0  0
   -8.8272    1.3140    7.7126 C   0  0  0  0  0  0  0  0  0  0  0  0
   -8.8387   -0.1505    7.8828 N   0  0  0  0  0  0  0  0  0  0  0  0
   -7.7987   -0.8860    7.3147 C   0  0  0  0  0  0  0  0  0  0  0  0
   -7.9948   -2.0882    6.6175 C   0  0  0  0  0  0  0  0  0  0  0  0
   -6.9273   -2.8278    6.0979 C   0  0  0  0  0  0  0  0  0  0  0  0
   -5.6248   -2.3761    6.2578 C   0  0  0  0  0  0  0  0  0  0  0  0
   -5.3807   -1.1916    6.9562 C   0  0  0  0  0  0  0  0  0  0  0  0
   -3.9740   -0.7057    7.1461 C   0  0  0  0  0  0  0  0  0  0  0  0
   -3.3040   -1.3742    8.1219 F   0  0  0  0  0  0  0  0  0  0  0  0
   -3.2295   -0.8545    6.0140 F   0  0  0  0  0  0  0  0  0  0  0  0
   -3.8832    0.6165    7.4665 F   0  0  0  0  0  0  0  0  0  0  0  0
   -6.4661   -0.4777    7.4899 C   0  0  0  0  0  0  0  0  0  0  0  0
  -10.2223   -0.6779    7.8192 C   0  0  0  0  0  0  0  0  0  0  0  0
  -11.1165    0.0124    8.8806 C   0  0  0  0  0  0  0  0  0  0  0  0
  -14.2310   -0.7024    7.0187 C   0  0  0  0  0  0  0  0  0  0  0  0
  -13.8569   -0.2361    5.8238 N   0  0  0  0  0  0  0  0  0  0  0  0
  1  2  1  0
  2  3  1  0
  3  4  1  0
  4  5  1  0
  5  6  2  0
  6  7  1  0
  7  8  1  0
  8  9  1  0
  9 10  1  0
 10 11  1  0
 11 12  1  0
 12 13  1  0
 13 14  1  0
 14 15  1  0
 15 16  1  0
 16 17  2  0
 17 18  1  0
 18 19  2  0
 19 20  1  0
 20 21  1  0
 21 22  1  0
 21 23  1  0
 21 24  1  0
 20 25  2  0
 15 26  1  0
 26 27  1  0
  6 28  1  0
 28 29  2  0
 29  4  1  0
 27 12  1  0
 25 16  1  0
M  END
>  <ref_mols>  (1777) 
B0426a

>  <gnina_score>  (1777) 
5.517

>  <smina_score_min>  (1777) 
-5.19

>  <ref_pdb>  (1777) 
B0426a

>  <inspiration_score>  (1777) 
None

>  <inchikey>  (1777) 
WTPDQQQIXYKBNT-UHFFFAOYSA-N

>  <tags>  (1777) 
BulkDock Fragalysis export,openbind_d68ev3c_c2_elabs_scored,openbind_d68ev3c_c2_elabs_scored_4.5plus,openbind_d68ev3c_c2_elabs,openbind_d68ev3c_c2_elabs_scored_5plus,syndirella_product,openbind_d68ev3c_c2_elabs_scored_top80percent,syndirella_placed

>  <smiles>  (1777) 
OCCn1cc(CNCCCN2CCN(c3cccc(C(F)(F)F)c3)CC2)cn1

>  <subsites>  (1777) 
None

>  <rmsd(smina/fragmenstein)>  (1777) 
1.683

>  <alias>  (1777) 
None

>  <energy_score>  (1777) 
-49.756657

>  <HIPPO Pose ID>  (1777) 
131915

>  <distance_score>  (1777) 
0.575836

>  <HIPPO Compound ID>  (1777) 
157906

>  <gnina_score_min>  (1777) 
5.619

>  <name>  (1777) 
P131915

>  <exports>  (1777) 
['/opt/xchem-fragalysis-2/maxwin/BulkDock/OUTPUTS/openbind_d68ev3c_c2_elabs_1LOTQJ3.sdf', '/opt/xchem-fragalysis-2/maxwin/BulkDock/OUTPUTS/openbind_d68ev3c_c2_elabs_1LSYI5W.sdf']

$$$$
P131917
     RDKit          3D

 29 31  0  0  0  0  0  0  0  0999 V2000
  -16.6840    3.3974   10.3065 C   0  0  0  0  0  0  0  0  0  0  0  0
  -16.3085    2.7029    9.0492 C   0  0  0  0  0  0  0  0  0  0  0  0
  -16.3838    3.3534    7.8815 N   0  0  0  0  0  0  0  0  0  0  0  0
  -16.0287    2.4302    6.9711 N   0  0  0  0  0  0  0  0  0  0  0  0
  -15.9865    2.7834    5.5729 C   0  0  0  0  0  0  0  0  0  0  0  0
  -15.7372    1.2167    7.5150 C   0  0  0  0  0  0  0  0  0  0  0  0
  -15.8602    1.3588    8.8867 C   0  0  0  0  0  0  0  0  0  0  0  0
  -15.6598    0.3372    9.9501 C   0  0  1  0  0  0  0  0  0  0  0  0
  -16.5079   -0.7556    9.6990 O   0  0  0  0  0  0  0  0  0  0  0  0
  -14.3199   -0.1912    9.9443 N   0  0  0  0  0  0  0  0  0  0  0  0
  -13.3298    0.5349   10.7212 C   0  0  0  0  0  0  0  0  0  0  0  0
  -12.8702    1.8909   10.1961 C   0  0  0  0  0  0  0  0  0  0  0  0
  -12.3896    2.0194    8.7451 C   0  0  0  0  0  0  0  0  0  0  0  0
  -11.2032    1.3165    8.2724 N   0  0  0  0  0  0  0  0  0  0  0  0
  -11.4139   -0.1048    7.9674 C   0  0  0  0  0  0  0  0  0  0  0  0
  -10.2061   -0.7225    7.2316 C   0  0  0  0  0  0  0  0  0  0  0  0
   -8.9277   -0.4989    7.9580 N   0  0  0  0  0  0  0  0  0  0  0  0
   -7.8023   -1.1538    7.4257 C   0  0  0  0  0  0  0  0  0  0  0  0
   -7.8966   -2.4502    6.8893 C   0  0  0  0  0  0  0  0  0  0  0  0
   -6.7943   -3.1171    6.3485 C   0  0  0  0  0  0  0  0  0  0  0  0
   -5.5458   -2.5137    6.3593 C   0  0  0  0  0  0  0  0  0  0  0  0
   -5.3897   -1.2483    6.9266 C   0  0  0  0  0  0  0  0  0  0  0  0
   -4.0255   -0.6250    6.9876 C   0  0  0  0  0  0  0  0  0  0  0  0
   -3.2259   -1.1933    7.9305 F   0  0  0  0  0  0  0  0  0  0  0  0
   -3.3553   -0.7516    5.8072 F   0  0  0  0  0  0  0  0  0  0  0  0
   -4.0344    0.7102    7.2610 F   0  0  0  0  0  0  0  0  0  0  0  0
   -6.5146   -0.5889    7.4523 C   0  0  0  0  0  0  0  0  0  0  0  0
   -8.7601    0.8926    8.4359 C   0  0  0  0  0  0  0  0  0  0  0  0
  -10.0221    1.4477    9.1307 C   0  0  0  0  0  0  0  0  0  0  0  0
  1  2  1  0
  2  3  2  0
  3  4  1  0
  4  5  1  0
  4  6  1  0
  6  7  2  0
  7  8  1  0
  8  9  1  6
  8 10  1  0
 10 11  1  0
 11 12  1  0
 12 13  1  0
 13 14  1  0
 14 15  1  0
 15 16  1  0
 16 17  1  0
 17 18  1  0
 18 19  2  0
 19 20  1  0
 20 21  2  0
 21 22  1  0
 22 23  1  0
 23 24  1  0
 23 25  1  0
 23 26  1  0
 22 27  2  0
 17 28  1  0
 28 29  1  0
  7  2  1  0
 29 14  1  0
 27 18  1  0
M  END
>  <ref_mols>  (1778) 
B0426a

>  <gnina_score>  (1778) 
5.571

>  <smina_score_min>  (1778) 
-5.76

>  <ref_pdb>  (1778) 
B0426a

>  <inspiration_score>  (1778) 
None

>  <inchikey>  (1778) 
LYCPYXSAAMUGBT-LJQANCHMSA-N

>  <tags>  (1778) 
BulkDock Fragalysis export,openbind_d68ev3c_c2_elabs_scored,openbind_d68ev3c_c2_elabs_scored_4.5plus,openbind_d68ev3c_c2_elabs,openbind_d68ev3c_c2_elabs_scored_5plus,syndirella_product,openbind_d68ev3c_c2_elabs_scored_top80percent,syndirella_placed

>  <smiles>  (1778) 
Cc1nn(C)cc1[C@@H](O)NCCCN1CCN(c2cccc(C(F)(F)F)c2)CC1

>  <subsites>  (1778) 
None

>  <rmsd(smina/fragmenstein)>  (1778) 
0.507

>  <alias>  (1778) 
None

>  <energy_score>  (1778) 
-58.924634

>  <HIPPO Pose ID>  (1778) 
131917

>  <distance_score>  (1778) 
0.557796

>  <HIPPO Compound ID>  (1778) 
157907

>  <gnina_score_min>  (1778) 
5.47

>  <name>  (1778) 
P131917

>  <exports>  (1778) 
['/opt/xchem-fragalysis-2/maxwin/BulkDock/OUTPUTS/openbind_d68ev3c_c2_elabs_1LOTQJ3.sdf', '/opt/xchem-fragalysis-2/maxwin/BulkDock/OUTPUTS/openbind_d68ev3c_c2_elabs_1LSYI5W.sdf']

$$$$
P131918
     RDKit          3D

 29 31  0  0  0  0  0  0  0  0999 V2000
  -13.8057    4.8392   11.9153 F   0  0  0  0  0  0  0  0  0  0  0  0
  -14.2105    4.7306   13.2121 C   0  0  0  0  0  0  0  0  0  0  0  0
  -13.9372    3.3313   13.7286 C   0  0  0  0  0  0  0  0  0  0  0  0
  -14.8102    2.3231   13.1645 N   0  0  0  0  0  0  0  0  0  0  0  0
  -15.0789    2.1174   11.8461 C   0  0  0  0  0  0  0  0  0  0  0  0
  -15.8465    0.9759   11.7696 C   0  0  0  0  0  0  0  0  0  0  0  0
  -16.4653    0.3356   10.5887 C   0  0  0  0  0  0  0  0  0  0  0  0
  -15.5123   -0.2369    9.6676 N   0  0  0  0  0  0  0  0  0  0  0  0
  -14.7252    0.7127    8.9015 C   0  0  0  0  0  0  0  0  0  0  0  0
  -13.2643    0.7360    9.3500 C   0  0  0  0  0  0  0  0  0  0  0  0
  -12.4778    1.7590    8.5192 C   0  0  0  0  0  0  0  0  0  0  0  0
  -11.1580    1.3422    8.0477 N   0  0  0  0  0  0  0  0  0  0  0  0
  -10.1901    1.1266    9.1404 C   0  0  0  0  0  0  0  0  0  0  0  0
   -8.7924    0.7467    8.5968 C   0  0  0  0  0  0  0  0  0  0  0  0
   -8.8806   -0.4485    7.7356 N   0  0  0  0  0  0  0  0  0  0  0  0
   -7.7168   -1.1105    7.3426 C   0  0  0  0  0  0  0  0  0  0  0  0
   -7.8109   -2.4049    6.8020 C   0  0  0  0  0  0  0  0  0  0  0  0
   -6.6906   -3.0964    6.3491 C   0  0  0  0  0  0  0  0  0  0  0  0
   -5.4375   -2.5099    6.4541 C   0  0  0  0  0  0  0  0  0  0  0  0
   -5.2979   -1.2411    7.0276 C   0  0  0  0  0  0  0  0  0  0  0  0
   -3.9307   -0.6397    7.1564 C   0  0  0  0  0  0  0  0  0  0  0  0
   -3.1779   -1.2345    8.1195 F   0  0  0  0  0  0  0  0  0  0  0  0
   -3.9311    0.6913    7.4473 F   0  0  0  0  0  0  0  0  0  0  0  0
   -3.2226   -0.7623    5.9995 F   0  0  0  0  0  0  0  0  0  0  0  0
   -6.4388   -0.5564    7.4716 C   0  0  0  0  0  0  0  0  0  0  0  0
   -9.8607   -0.2816    6.6409 C   0  0  0  0  0  0  0  0  0  0  0  0
  -11.2299    0.1296    7.2037 C   0  0  0  0  0  0  0  0  0  0  0  0
  -16.0521    0.6236   13.1229 C   0  0  0  0  0  0  0  0  0  0  0  0
  -15.4212    1.4343   13.9747 N   0  0  0  0  0  0  0  0  0  0  0  0
  1  2  1  0
  2  3  1  0
  3  4  1  0
  4  5  1  0
  5  6  2  0
  6  7  1  0
  7  8  1  0
  8  9  1  0
  9 10  1  0
 10 11  1  0
 11 12  1  0
 12 13  1  0
 13 14  1  0
 14 15  1  0
 15 16  1  0
 16 17  2  0
 17 18  1  0
 18 19  2  0
 19 20  1  0
 20 21  1  0
 21 22  1  0
 21 23  1  0
 21 24  1  0
 20 25  2  0
 15 26  1  0
 26 27  1  0
  6 28  1  0
 28 29  2  0
 29  4  1  0
 27 12  1  0
 25 16  1  0
M  END
>  <ref_mols>  (1779) 
B0426a

>  <gnina_score>  (1779) 
5.74

>  <smina_score_min>  (1779) 
-5.931

>  <ref_pdb>  (1779) 
B0426a

>  <inspiration_score>  (1779) 
None

>  <inchikey>  (1779) 
ZWWIXMJWOABLTM-UHFFFAOYSA-N

>  <tags>  (1779) 
BulkDock Fragalysis export,openbind_d68ev3c_c2_elabs_scored,openbind_d68ev3c_c2_elabs_scored_4.5plus,openbind_d68ev3c_c2_elabs,openbind_d68ev3c_c2_elabs_scored_5plus,syndirella_product,openbind_d68ev3c_c2_elabs_scored_top80percent,syndirella_placed

>  <smiles>  (1779) 
FCCn1cc(CNCCCN2CCN(c3cccc(C(F)(F)F)c3)CC2)cn1

>  <subsites>  (1779) 
None

>  <rmsd(smina/fragmenstein)>  (1779) 
0.542

>  <alias>  (1779) 
None

>  <energy_score>  (1779) 
-37.732561

>  <HIPPO Pose ID>  (1779) 
131918

>  <distance_score>  (1779) 
0.778972

>  <HIPPO Compound ID>  (1779) 
157908

>  <gnina_score_min>  (1779) 
5.567

>  <name>  (1779) 
P131918

>  <exports>  (1779) 
['/opt/xchem-fragalysis-2/maxwin/BulkDock/OUTPUTS/openbind_d68ev3c_c2_elabs_1LOTQJ3.sdf', '/opt/xchem-fragalysis-2/maxwin/BulkDock/OUTPUTS/openbind_d68ev3c_c2_elabs_1LSYI5W.sdf']

$$$$
P131919
     RDKit          3D

 29 31  0  0  0  0  0  0  0  0999 V2000
  -15.3726    3.0980    5.4172 C   0  0  0  0  0  0  0  0  0  0  0  0
  -16.7623    2.6892    5.8720 C   0  0  0  0  0  0  0  0  0  0  0  0
  -16.7880    2.3272    7.2775 N   0  0  0  0  0  0  0  0  0  0  0  0
  -17.1197    3.2700    8.1834 N   0  0  0  0  0  0  0  0  0  0  0  0
  -16.9378    2.6578    9.3516 C   0  0  0  0  0  0  0  0  0  0  0  0
  -16.5179    1.3141    9.2132 C   0  0  0  0  0  0  0  0  0  0  0  0
  -16.2296    0.3752   10.3266 C   0  0  0  0  0  0  0  0  0  0  0  0
  -14.9286   -0.2522   10.2031 N   0  0  0  0  0  0  0  0  0  0  0  0
  -13.7790    0.5734   10.5499 C   0  0  0  0  0  0  0  0  0  0  0  0
  -13.4307    1.5922    9.4625 C   0  0  0  0  0  0  0  0  0  0  0  0
  -11.9720    2.0460    9.5226 C   0  0  0  0  0  0  0  0  0  0  0  0
  -11.0872    1.3833    8.5521 N   0  0  0  0  0  0  0  0  0  0  0  0
   -9.7041    1.8693    8.7377 C   0  0  0  0  0  0  0  0  0  0  0  0
   -8.6962    1.2255    7.7630 C   0  0  0  0  0  0  0  0  0  0  0  0
   -8.7305   -0.2488    7.8742 N   0  0  0  0  0  0  0  0  0  0  0  0
   -7.6746   -0.9690    7.3098 C   0  0  0  0  0  0  0  0  0  0  0  0
   -7.8510   -2.1681    6.5979 C   0  0  0  0  0  0  0  0  0  0  0  0
   -6.7742   -2.8861    6.0711 C   0  0  0  0  0  0  0  0  0  0  0  0
   -5.4816   -2.4145    6.2382 C   0  0  0  0  0  0  0  0  0  0  0  0
   -5.2591   -1.2368    6.9543 C   0  0  0  0  0  0  0  0  0  0  0  0
   -3.8648   -0.7248    7.1427 C   0  0  0  0  0  0  0  0  0  0  0  0
   -3.7987    0.6004    7.4549 F   0  0  0  0  0  0  0  0  0  0  0  0
   -3.1810   -1.3773    8.1182 F   0  0  0  0  0  0  0  0  0  0  0  0
   -3.1282   -0.8663    6.0066 F   0  0  0  0  0  0  0  0  0  0  0  0
   -6.3513   -0.5472    7.4989 C   0  0  0  0  0  0  0  0  0  0  0  0
  -10.1016   -0.7782    7.7047 C   0  0  0  0  0  0  0  0  0  0  0  0
  -11.0854   -0.0929    8.6750 C   0  0  0  0  0  0  0  0  0  0  0  0
  -16.4903    1.1104    7.8411 C   0  0  0  0  0  0  0  0  0  0  0  0
  -16.1408   -0.1008    7.0535 C   0  0  0  0  0  0  0  0  0  0  0  0
  1  2  1  0
  2  3  1  0
  3  4  1  0
  4  5  2  0
  5  6  1  0
  6  7  1  0
  7  8  1  0
  8  9  1  0
  9 10  1  0
 10 11  1  0
 11 12  1  0
 12 13  1  0
 13 14  1  0
 14 15  1  0
 15 16  1  0
 16 17  2  0
 17 18  1  0
 18 19  2  0
 19 20  1  0
 20 21  1  0
 21 22  1  0
 21 23  1  0
 21 24  1  0
 20 25  2  0
 15 26  1  0
 26 27  1  0
  6 28  2  0
 28 29  1  0
 28  3  1  0
 27 12  1  0
 25 16  1  0
M  END
>  <ref_mols>  (1780) 
B0426a

>  <gnina_score>  (1780) 
5.518

>  <smina_score_min>  (1780) 
-5.646

>  <ref_pdb>  (1780) 
B0426a

>  <inspiration_score>  (1780) 
None

>  <inchikey>  (1780) 
PYVFCTUIVFPNKU-UHFFFAOYSA-N

>  <tags>  (1780) 
BulkDock Fragalysis export,openbind_d68ev3c_c2_elabs_scored,openbind_d68ev3c_c2_elabs_scored_4.5plus,openbind_d68ev3c_c2_elabs,openbind_d68ev3c_c2_elabs_scored_5plus,syndirella_product,openbind_d68ev3c_c2_elabs_scored_top80percent,syndirella_placed

>  <smiles>  (1780) 
CCn1ncc(CNCCCN2CCN(c3cccc(C(F)(F)F)c3)CC2)c1C

>  <subsites>  (1780) 
None

>  <rmsd(smina/fragmenstein)>  (1780) 
0.968

>  <alias>  (1780) 
None

>  <energy_score>  (1780) 
-65.623398

>  <HIPPO Pose ID>  (1780) 
131919

>  <distance_score>  (1780) 
0.660489

>  <HIPPO Compound ID>  (1780) 
157909

>  <gnina_score_min>  (1780) 
5.401

>  <name>  (1780) 
P131919

>  <exports>  (1780) 
['/opt/xchem-fragalysis-2/maxwin/BulkDock/OUTPUTS/openbind_d68ev3c_c2_elabs_1LOTQJ3.sdf', '/opt/xchem-fragalysis-2/maxwin/BulkDock/OUTPUTS/openbind_d68ev3c_c2_elabs_1LSYI5W.sdf']

$$$$
P131921
     RDKit          3D

 29 31  0  0  0  0  0  0  0  0999 V2000
  -15.3215    5.0905   11.8175 C   0  0  0  0  0  0  0  0  0  0  0  0
  -15.1155    3.6763   12.0160 N   0  0  0  0  0  0  0  0  0  0  0  0
  -15.6870    2.6539   11.3204 C   0  0  0  0  0  0  0  0  0  0  0  0
  -14.9928    1.5058   11.6804 C   0  0  0  0  0  0  0  0  0  0  0  0
  -15.0816    0.1359   11.1098 C   0  0  1  0  0  0  0  0  0  0  0  0
  -16.1325   -0.5752   11.7234 O   0  0  0  0  0  0  0  0  0  0  0  0
  -15.4025    0.1731    9.6943 N   0  0  0  0  0  0  0  0  0  0  0  0
  -14.2172    0.3410    8.8349 C   0  0  0  0  0  0  0  0  0  0  0  0
  -13.3390    1.5561    9.1512 C   0  0  0  0  0  0  0  0  0  0  0  0
  -12.3903    1.9923    8.0378 C   0  0  0  0  0  0  0  0  0  0  0  0
  -11.1679    1.2472    7.7863 N   0  0  0  0  0  0  0  0  0  0  0  0
  -10.1427    1.3769    8.8351 C   0  0  0  0  0  0  0  0  0  0  0  0
   -8.7937    0.7913    8.3556 C   0  0  0  0  0  0  0  0  0  0  0  0
   -8.9083   -0.5979    7.8455 N   0  0  0  0  0  0  0  0  0  0  0  0
   -7.7325   -1.2325    7.3995 C   0  0  0  0  0  0  0  0  0  0  0  0
   -7.7756   -2.5270    6.8497 C   0  0  0  0  0  0  0  0  0  0  0  0
   -6.6409   -3.1599    6.3443 C   0  0  0  0  0  0  0  0  0  0  0  0
   -5.4102   -2.5273    6.4180 C   0  0  0  0  0  0  0  0  0  0  0  0
   -5.3061   -1.2698    7.0165 C   0  0  0  0  0  0  0  0  0  0  0  0
   -3.9596   -0.6202    7.1342 C   0  0  0  0  0  0  0  0  0  0  0  0
   -4.0050    0.7127    7.4118 F   0  0  0  0  0  0  0  0  0  0  0  0
   -3.1829   -1.1800    8.0994 F   0  0  0  0  0  0  0  0  0  0  0  0
   -3.2512   -0.7293    5.9756 F   0  0  0  0  0  0  0  0  0  0  0  0
   -6.4633   -0.6420    7.5054 C   0  0  0  0  0  0  0  0  0  0  0  0
  -10.0769   -0.8156    6.9563 C   0  0  0  0  0  0  0  0  0  0  0  0
  -11.3569   -0.1796    7.5140 C   0  0  0  0  0  0  0  0  0  0  0  0
  -14.1355    1.9532   12.7142 C   0  0  0  0  0  0  0  0  0  0  0  0
  -13.0387    1.0244   13.6101 Cl  0  0  0  0  0  0  0  0  0  0  0  0
  -14.2294    3.2652   12.9294 N   0  0  0  0  0  0  0  0  0  0  0  0
  1  2  1  0
  2  3  1  0
  3  4  2  0
  4  5  1  0
  5  6  1  1
  5  7  1  0
  7  8  1  0
  8  9  1  0
  9 10  1  0
 10 11  1  0
 11 12  1  0
 12 13  1  0
 13 14  1  0
 14 15  1  0
 15 16  2  0
 16 17  1  0
 17 18  2  0
 18 19  1  0
 19 20  1  0
 20 21  1  0
 20 22  1  0
 20 23  1  0
 19 24  2  0
 14 25  1  0
 25 26  1  0
  4 27  1  0
 27 28  1  0
 27 29  2  0
 29  2  1  0
 26 11  1  0
 24 15  1  0
M  END
>  <ref_mols>  (1781) 
B0426a

>  <gnina_score>  (1781) 
5.824

>  <smina_score_min>  (1781) 
-6.566

>  <ref_pdb>  (1781) 
B0426a

>  <inspiration_score>  (1781) 
None

>  <inchikey>  (1781) 
ZXYPCRAJYUNEGD-GOSISDBHSA-N

>  <tags>  (1781) 
BulkDock Fragalysis export,openbind_d68ev3c_c2_elabs_scored,openbind_d68ev3c_c2_elabs_scored_4.5plus,openbind_d68ev3c_c2_elabs,openbind_d68ev3c_c2_elabs_scored_5plus,syndirella_product,openbind_d68ev3c_c2_elabs_scored_top80percent,syndirella_placed

>  <smiles>  (1781) 
Cn1cc([C@@H](O)NCCCN2CCN(c3cccc(C(F)(F)F)c3)CC2)c(Cl)n1

>  <subsites>  (1781) 
None

>  <rmsd(smina/fragmenstein)>  (1781) 
0.568

>  <alias>  (1781) 
None

>  <energy_score>  (1781) 
-38.113115

>  <HIPPO Pose ID>  (1781) 
131921

>  <distance_score>  (1781) 
0.593659

>  <HIPPO Compound ID>  (1781) 
157910

>  <gnina_score_min>  (1781) 
5.92

>  <name>  (1781) 
P131921

>  <exports>  (1781) 
['/opt/xchem-fragalysis-2/maxwin/BulkDock/OUTPUTS/openbind_d68ev3c_c2_elabs_1LOTQJ3.sdf', '/opt/xchem-fragalysis-2/maxwin/BulkDock/OUTPUTS/openbind_d68ev3c_c2_elabs_1LSYI5W.sdf']

$$$$
P131923
     RDKit          3D

 29 31  0  0  0  0  0  0  0  0999 V2000
  -13.9836   -1.1047    3.4548 C   0  0  0  0  0  0  0  0  0  0  0  0
  -13.1221   -0.7624    4.6560 C   0  0  0  0  0  0  0  0  0  0  0  0
  -13.8826   -0.1278    5.7148 N   0  0  0  0  0  0  0  0  0  0  0  0
  -14.1954   -0.6726    6.9239 C   0  0  0  0  0  0  0  0  0  0  0  0
  -14.9166    0.2807    7.6205 C   0  0  0  0  0  0  0  0  0  0  0  0
  -15.5183    0.2025    8.9828 C   0  0  1  0  0  0  0  0  0  0  0  0
  -16.5291   -0.7848    8.9959 O   0  0  0  0  0  0  0  0  0  0  0  0
  -14.5352   -0.2137    9.9607 N   0  0  0  0  0  0  0  0  0  0  0  0
  -13.9471    0.8725   10.7326 C   0  0  0  0  0  0  0  0  0  0  0  0
  -13.3258    2.0360    9.9549 C   0  0  0  0  0  0  0  0  0  0  0  0
  -11.7979    2.0978    9.9341 C   0  0  0  0  0  0  0  0  0  0  0  0
  -11.1098    1.4648    8.7993 N   0  0  0  0  0  0  0  0  0  0  0  0
   -9.7085    1.9523    8.7790 C   0  0  0  0  0  0  0  0  0  0  0  0
   -8.8212    1.2974    7.7026 C   0  0  0  0  0  0  0  0  0  0  0  0
   -8.8218   -0.1658    7.8761 N   0  0  0  0  0  0  0  0  0  0  0  0
   -7.7819   -0.9004    7.3107 C   0  0  0  0  0  0  0  0  0  0  0  0
   -7.9760   -2.1096    6.6249 C   0  0  0  0  0  0  0  0  0  0  0  0
   -6.9077   -2.8477    6.1056 C   0  0  0  0  0  0  0  0  0  0  0  0
   -5.6068   -2.3884    6.2569 C   0  0  0  0  0  0  0  0  0  0  0  0
   -5.3650   -1.1983    6.9465 C   0  0  0  0  0  0  0  0  0  0  0  0
   -3.9591   -0.7082    7.1320 C   0  0  0  0  0  0  0  0  0  0  0  0
   -3.8717    0.6142    7.4512 F   0  0  0  0  0  0  0  0  0  0  0  0
   -3.2845   -1.3749    8.1055 F   0  0  0  0  0  0  0  0  0  0  0  0
   -3.2202   -0.8559    5.9966 F   0  0  0  0  0  0  0  0  0  0  0  0
   -6.4511   -0.4840    7.4770 C   0  0  0  0  0  0  0  0  0  0  0  0
  -10.1977   -0.7081    7.8549 C   0  0  0  0  0  0  0  0  0  0  0  0
  -11.0817   -0.0141    8.9223 C   0  0  0  0  0  0  0  0  0  0  0  0
  -14.9995    1.3568    6.7028 C   0  0  0  0  0  0  0  0  0  0  0  0
  -14.3560    1.1247    5.5556 N   0  0  0  0  0  0  0  0  0  0  0  0
  1  2  1  0
  2  3  1  0
  3  4  1  0
  4  5  2  0
  5  6  1  0
  6  7  1  6
  6  8  1  0
  8  9  1  0
  9 10  1  0
 10 11  1  0
 11 12  1  0
 12 13  1  0
 13 14  1  0
 14 15  1  0
 15 16  1  0
 16 17  2  0
 17 18  1  0
 18 19  2  0
 19 20  1  0
 20 21  1  0
 21 22  1  0
 21 23  1  0
 21 24  1  0
 20 25  2  0
 15 26  1  0
 26 27  1  0
  5 28  1  0
 28 29  2  0
 29  3  1  0
 27 12  1  0
 25 16  1  0
M  END
>  <ref_mols>  (1782) 
B0426a

>  <gnina_score>  (1782) 
5.67

>  <smina_score_min>  (1782) 
-6.091

>  <ref_pdb>  (1782) 
B0426a

>  <inspiration_score>  (1782) 
None

>  <inchikey>  (1782) 
LDWVTQXJVILSMK-LJQANCHMSA-N

>  <tags>  (1782) 
BulkDock Fragalysis export,openbind_d68ev3c_c2_elabs_scored,openbind_d68ev3c_c2_elabs_scored_4.5plus,openbind_d68ev3c_c2_elabs,openbind_d68ev3c_c2_elabs_scored_5plus,syndirella_product,openbind_d68ev3c_c2_elabs_scored_top80percent,syndirella_placed

>  <smiles>  (1782) 
CCn1cc([C@@H](O)NCCCN2CCN(c3cccc(C(F)(F)F)c3)CC2)cn1

>  <subsites>  (1782) 
None

>  <rmsd(smina/fragmenstein)>  (1782) 
1.493

>  <alias>  (1782) 
None

>  <energy_score>  (1782) 
-45.627967

>  <HIPPO Pose ID>  (1782) 
131923

>  <distance_score>  (1782) 
0.6055

>  <HIPPO Compound ID>  (1782) 
157911

>  <gnina_score_min>  (1782) 
5.397

>  <name>  (1782) 
P131923

>  <exports>  (1782) 
['/opt/xchem-fragalysis-2/maxwin/BulkDock/OUTPUTS/openbind_d68ev3c_c2_elabs_1LOTQJ3.sdf', '/opt/xchem-fragalysis-2/maxwin/BulkDock/OUTPUTS/openbind_d68ev3c_c2_elabs_1LSYI5W.sdf']

$$$$
P131924
     RDKit          3D

 29 31  0  0  0  0  0  0  0  0999 V2000
  -15.6598   -0.3821   11.1895 C   0  0  0  0  0  0  0  0  0  0  0  0
  -15.6583    0.9913   10.7758 N   0  0  0  0  0  0  0  0  0  0  0  0
  -14.3379    1.6158   10.6462 C   0  0  0  0  0  0  0  0  0  0  0  0
  -13.3019    0.8668    9.8119 C   0  0  0  0  0  0  0  0  0  0  0  0
  -12.0548    1.7187    9.5537 C   0  0  0  0  0  0  0  0  0  0  0  0
  -11.1049    1.1347    8.5886 N   0  0  0  0  0  0  0  0  0  0  0  0
  -11.0267   -0.3336    8.6651 C   0  0  0  0  0  0  0  0  0  0  0  0
  -10.0303   -0.9348    7.6672 C   0  0  0  0  0  0  0  0  0  0  0  0
   -8.6863   -0.3478    7.8414 N   0  0  0  0  0  0  0  0  0  0  0  0
   -7.6117   -1.0204    7.2628 C   0  0  0  0  0  0  0  0  0  0  0  0
   -7.7554   -2.2036    6.5153 C   0  0  0  0  0  0  0  0  0  0  0  0
   -6.6611   -2.8932    5.9926 C   0  0  0  0  0  0  0  0  0  0  0  0
   -5.3824   -2.4050    6.1991 C   0  0  0  0  0  0  0  0  0  0  0  0
   -5.1950   -1.2367    6.9426 C   0  0  0  0  0  0  0  0  0  0  0  0
   -3.8150   -0.7098    7.1659 C   0  0  0  0  0  0  0  0  0  0  0  0
   -3.0493   -0.8633    6.0514 F   0  0  0  0  0  0  0  0  0  0  0  0
   -3.1510   -1.3455    8.1658 F   0  0  0  0  0  0  0  0  0  0  0  0
   -3.7646    0.6194    7.4606 F   0  0  0  0  0  0  0  0  0  0  0  0
   -6.3045   -0.5735    7.4803 C   0  0  0  0  0  0  0  0  0  0  0  0
   -8.7242    1.1321    7.7697 C   0  0  0  0  0  0  0  0  0  0  0  0
   -9.7615    1.7090    8.7617 C   0  0  0  0  0  0  0  0  0  0  0  0
  -16.5792    1.2832    9.6698 C   0  0  0  0  0  0  0  0  0  0  0  0
  -16.0919    1.0072    8.2917 C   0  0  0  0  0  0  0  0  0  0  0  0
  -16.0895   -0.2301    7.6168 C   0  0  0  0  0  0  0  0  0  0  0  0
  -15.6059   -0.1541    6.3803 N   0  0  0  0  0  0  0  0  0  0  0  0
  -15.2980    1.1658    6.2632 N   0  0  0  0  0  0  0  0  0  0  0  0
  -14.6400    1.6230    5.0592 C   0  0  0  0  0  0  0  0  0  0  0  0
  -15.6197    1.9479    7.3710 C   0  0  0  0  0  0  0  0  0  0  0  0
  -15.4403    3.1550    7.3588 O   0  0  0  0  0  0  0  0  0  0  0  0
  1  2  1  0
  2  3  1  0
  3  4  1  0
  4  5  1  0
  5  6  1  0
  6  7  1  0
  7  8  1  0
  8  9  1  0
  9 10  1  0
 10 11  2  0
 11 12  1  0
 12 13  2  0
 13 14  1  0
 14 15  1  0
 15 16  1  0
 15 17  1  0
 15 18  1  0
 14 19  2  0
  9 20  1  0
 20 21  1  0
  2 22  1  0
 22 23  1  0
 23 24  1  0
 24 25  2  0
 25 26  1  0
 26 27  1  0
 26 28  1  0
 28 29  1  0
 21  6  1  0
 28 23  2  0
 19 10  1  0
M  CHG  1  29  -1
M  END
>  <ref_mols>  (1783) 
B0426a

>  <gnina_score>  (1783) 
5.608

>  <smina_score_min>  (1783) 
-5.704

>  <ref_pdb>  (1783) 
B0426a

>  <inspiration_score>  (1783) 
None

>  <inchikey>  (1783) 
ZHBFCECBFJWQKY-UHFFFAOYSA-M

>  <tags>  (1783) 
BulkDock Fragalysis export,openbind_d68ev3c_c2_elabs_scored,openbind_d68ev3c_c2_elabs_scored_4.5plus,openbind_d68ev3c_c2_elabs,openbind_d68ev3c_c2_elabs_scored_5plus,syndirella_product,openbind_d68ev3c_c2_elabs_scored_top80percent,syndirella_placed

>  <smiles>  (1783) 
CN(CCCN1CCN(c2cccc(C(F)(F)F)c2)CC1)Cc1cnn(C)c1[O-]

>  <subsites>  (1783) 
None

>  <rmsd(smina/fragmenstein)>  (1783) 
1.063

>  <alias>  (1783) 
None

>  <energy_score>  (1783) 
-87.300014

>  <HIPPO Pose ID>  (1783) 
131924

>  <distance_score>  (1783) 
0.789812

>  <HIPPO Compound ID>  (1783) 
157912

>  <gnina_score_min>  (1783) 
5.626

>  <name>  (1783) 
P131924

>  <exports>  (1783) 
['/opt/xchem-fragalysis-2/maxwin/BulkDock/OUTPUTS/openbind_d68ev3c_c2_elabs_1LOTQJ3.sdf', '/opt/xchem-fragalysis-2/maxwin/BulkDock/OUTPUTS/openbind_d68ev3c_c2_elabs_1LSYI5W.sdf']

$$$$
P131925
     RDKit          3D

 29 31  0  0  0  0  0  0  0  0999 V2000
  -20.3820    3.2687   10.3209 C   0  0  0  0  0  0  0  0  0  0  0  0
  -19.4023    2.2087   10.2196 N   0  0  0  0  0  0  0  0  0  0  0  0
  -19.5427    1.1193   11.0147 N   0  0  0  0  0  0  0  0  0  0  0  0
  -18.4886    0.3782   10.6820 C   0  0  0  0  0  0  0  0  0  0  0  0
  -17.6907    0.9624    9.6722 C   0  0  0  0  0  0  0  0  0  0  0  0
  -16.4520    0.4003    9.0419 C   0  0  0  0  0  0  0  0  0  0  0  0
  -15.6824   -0.4036   10.0026 N   0  0  0  0  0  0  0  0  0  0  0  0
  -15.0305    0.4105   11.0208 C   0  0  0  0  0  0  0  0  0  0  0  0
  -13.5661    0.7251   10.7239 C   0  0  0  0  0  0  0  0  0  0  0  0
  -13.3859    1.6107    9.4895 C   0  0  0  0  0  0  0  0  0  0  0  0
  -11.9595    2.1408    9.3405 C   0  0  0  0  0  0  0  0  0  0  0  0
  -11.0851    1.3777    8.4373 N   0  0  0  0  0  0  0  0  0  0  0  0
  -11.0101   -0.0613    8.7626 C   0  0  0  0  0  0  0  0  0  0  0  0
  -10.0315   -0.8284    7.8521 C   0  0  0  0  0  0  0  0  0  0  0  0
   -8.6845   -0.2252    7.8804 N   0  0  0  0  0  0  0  0  0  0  0  0
   -7.6382   -0.9636    7.3217 C   0  0  0  0  0  0  0  0  0  0  0  0
   -7.8221   -2.1832    6.6484 C   0  0  0  0  0  0  0  0  0  0  0  0
   -6.7491   -2.9097    6.1288 C   0  0  0  0  0  0  0  0  0  0  0  0
   -5.4572   -2.4271    6.2721 C   0  0  0  0  0  0  0  0  0  0  0  0
   -5.2315   -1.2285    6.9537 C   0  0  0  0  0  0  0  0  0  0  0  0
   -3.8374   -0.7130    7.1203 C   0  0  0  0  0  0  0  0  0  0  0  0
   -3.1396   -1.3573    8.0917 F   0  0  0  0  0  0  0  0  0  0  0  0
   -3.7659    0.6146    7.4197 F   0  0  0  0  0  0  0  0  0  0  0  0
   -3.1168   -0.8656    5.9754 F   0  0  0  0  0  0  0  0  0  0  0  0
   -6.3190   -0.5239    7.4830 C   0  0  0  0  0  0  0  0  0  0  0  0
   -8.7199    1.2195    7.5726 C   0  0  0  0  0  0  0  0  0  0  0  0
   -9.7218    1.9474    8.4915 C   0  0  0  0  0  0  0  0  0  0  0  0
  -18.3013    2.1825    9.3682 C   0  0  0  0  0  0  0  0  0  0  0  0
  -18.0869    3.1082    8.6042 O   0  0  0  0  0  0  0  0  0  0  0  0
  1  2  1  0
  2  3  1  0
  3  4  2  0
  4  5  1  0
  5  6  1  0
  6  7  1  0
  7  8  1  0
  8  9  1  0
  9 10  1  0
 10 11  1  0
 11 12  1  0
 12 13  1  0
 13 14  1  0
 14 15  1  0
 15 16  1  0
 16 17  2  0
 17 18  1  0
 18 19  2  0
 19 20  1  0
 20 21  1  0
 21 22  1  0
 21 23  1  0
 21 24  1  0
 20 25  2  0
 15 26  1  0
 26 27  1  0
  5 28  2  0
 28 29  1  0
 28  2  1  0
 27 12  1  0
 25 16  1  0
M  CHG  1  29  -1
M  END
>  <ref_mols>  (1784) 
B0426a

>  <gnina_score>  (1784) 
5.438

>  <smina_score_min>  (1784) 
-5.823

>  <ref_pdb>  (1784) 
B0426a

>  <inspiration_score>  (1784) 
None

>  <inchikey>  (1784) 
SIGCAEIRHCEDDT-UHFFFAOYSA-M

>  <tags>  (1784) 
BulkDock Fragalysis export,openbind_d68ev3c_c2_elabs_scored,openbind_d68ev3c_c2_elabs_scored_4.5plus,openbind_d68ev3c_c2_elabs,openbind_d68ev3c_c2_elabs_scored_5plus,syndirella_product,openbind_d68ev3c_c2_elabs_scored_top80percent,syndirella_placed

>  <smiles>  (1784) 
Cn1ncc(CNCCCCN2CCN(c3cccc(C(F)(F)F)c3)CC2)c1[O-]

>  <subsites>  (1784) 
None

>  <rmsd(smina/fragmenstein)>  (1784) 
1.064

>  <alias>  (1784) 
None

>  <energy_score>  (1784) 
-72.492441

>  <HIPPO Pose ID>  (1784) 
131925

>  <distance_score>  (1784) 
0.588179

>  <HIPPO Compound ID>  (1784) 
157913

>  <gnina_score_min>  (1784) 
5.437

>  <name>  (1784) 
P131925

>  <exports>  (1784) 
['/opt/xchem-fragalysis-2/maxwin/BulkDock/OUTPUTS/openbind_d68ev3c_c2_elabs_1LOTQJ3.sdf', '/opt/xchem-fragalysis-2/maxwin/BulkDock/OUTPUTS/openbind_d68ev3c_c2_elabs_1LSYI5W.sdf']

$$$$
P131926
     RDKit          3D

 29 31  0  0  0  0  0  0  0  0999 V2000
  -17.1209    3.2571   10.4416 C   0  0  0  0  0  0  0  0  0  0  0  0
  -16.9076    2.3953    9.2528 C   0  0  0  0  0  0  0  0  0  0  0  0
  -17.1216    2.8866    8.0302 N   0  0  0  0  0  0  0  0  0  0  0  0
  -16.8009    1.8725    7.2090 N   0  0  0  0  0  0  0  0  0  0  0  0
  -16.8339    2.0911    5.7819 C   0  0  0  0  0  0  0  0  0  0  0  0
  -16.4832    0.7118    7.8675 C   0  0  0  0  0  0  0  0  0  0  0  0
  -16.1838   -0.5668    7.1720 C   0  0  0  0  0  0  0  0  0  0  0  0
  -16.4739    1.0366    9.2174 C   0  0  0  0  0  0  0  0  0  0  0  0
  -16.1581    0.1893   10.4012 C   0  0  0  0  0  0  0  0  0  0  0  0
  -14.8235   -0.3806   10.3744 N   0  0  0  0  0  0  0  0  0  0  0  0
  -13.7234    0.5493   10.6049 C   0  0  0  0  0  0  0  0  0  0  0  0
  -13.4322    1.4991    9.4399 C   0  0  0  0  0  0  0  0  0  0  0  0
  -11.9940    2.0207    9.4543 C   0  0  0  0  0  0  0  0  0  0  0  0
  -11.0969    1.3360    8.5121 N   0  0  0  0  0  0  0  0  0  0  0  0
  -11.0467   -0.1303    8.7118 C   0  0  0  0  0  0  0  0  0  0  0  0
  -10.0651   -0.8288    7.7518 C   0  0  0  0  0  0  0  0  0  0  0  0
   -8.7083   -0.2579    7.8731 N   0  0  0  0  0  0  0  0  0  0  0  0
   -7.6514   -0.9748    7.3065 C   0  0  0  0  0  0  0  0  0  0  0  0
   -7.8244   -2.1769    6.5984 C   0  0  0  0  0  0  0  0  0  0  0  0
   -6.7454   -2.8923    6.0744 C   0  0  0  0  0  0  0  0  0  0  0  0
   -5.4555   -2.4144    6.2424 C   0  0  0  0  0  0  0  0  0  0  0  0
   -5.2385   -1.2321    6.9537 C   0  0  0  0  0  0  0  0  0  0  0  0
   -3.8463   -0.7164    7.1420 C   0  0  0  0  0  0  0  0  0  0  0  0
   -3.1628   -1.3626    8.1216 F   0  0  0  0  0  0  0  0  0  0  0  0
   -3.7829    0.6105    7.4463 F   0  0  0  0  0  0  0  0  0  0  0  0
   -3.1096   -0.8640    6.0072 F   0  0  0  0  0  0  0  0  0  0  0  0
   -6.3324   -0.5427    7.4927 C   0  0  0  0  0  0  0  0  0  0  0  0
   -8.7088    1.2106    7.7017 C   0  0  0  0  0  0  0  0  0  0  0  0
   -9.7264    1.8727    8.6559 C   0  0  0  0  0  0  0  0  0  0  0  0
  1  2  1  0
  2  3  2  0
  3  4  1  0
  4  5  1  0
  4  6  1  0
  6  7  1  0
  6  8  2  0
  8  9  1  0
  9 10  1  0
 10 11  1  0
 11 12  1  0
 12 13  1  0
 13 14  1  0
 14 15  1  0
 15 16  1  0
 16 17  1  0
 17 18  1  0
 18 19  2  0
 19 20  1  0
 20 21  2  0
 21 22  1  0
 22 23  1  0
 23 24  1  0
 23 25  1  0
 23 26  1  0
 22 27  2  0
 17 28  1  0
 28 29  1  0
  8  2  1  0
 29 14  1  0
 27 18  1  0
M  END
>  <ref_mols>  (1785) 
B0426a

>  <gnina_score>  (1785) 
5.556

>  <smina_score_min>  (1785) 
-5.904

>  <ref_pdb>  (1785) 
B0426a

>  <inspiration_score>  (1785) 
None

>  <inchikey>  (1785) 
YBFLSWAEWYPVFY-UHFFFAOYSA-N

>  <tags>  (1785) 
BulkDock Fragalysis export,openbind_d68ev3c_c2_elabs_scored,openbind_d68ev3c_c2_elabs_scored_4.5plus,openbind_d68ev3c_c2_elabs,openbind_d68ev3c_c2_elabs_scored_5plus,syndirella_product,openbind_d68ev3c_c2_elabs_scored_top80percent,syndirella_placed

>  <smiles>  (1785) 
Cc1nn(C)c(C)c1CNCCCN1CCN(c2cccc(C(F)(F)F)c2)CC1

>  <subsites>  (1785) 
None

>  <rmsd(smina/fragmenstein)>  (1785) 
0.863

>  <alias>  (1785) 
None

>  <energy_score>  (1785) 
-49.272698

>  <HIPPO Pose ID>  (1785) 
131926

>  <distance_score>  (1785) 
0.621962

>  <HIPPO Compound ID>  (1785) 
157914

>  <gnina_score_min>  (1785) 
5.426

>  <name>  (1785) 
P131926

>  <exports>  (1785) 
['/opt/xchem-fragalysis-2/maxwin/BulkDock/OUTPUTS/openbind_d68ev3c_c2_elabs_1LOTQJ3.sdf', '/opt/xchem-fragalysis-2/maxwin/BulkDock/OUTPUTS/openbind_d68ev3c_c2_elabs_1LSYI5W.sdf']

$$$$
P131927
     RDKit          3D

 29 31  0  0  0  0  0  0  0  0999 V2000
  -15.9811   -0.2959   11.5139 C   0  0  0  0  0  0  0  0  0  0  0  0
  -15.4135    0.5041   10.4403 N   0  0  0  0  0  0  0  0  0  0  0  0
  -13.9525    0.6418   10.5496 C   0  0  0  0  0  0  0  0  0  0  0  0
  -13.4160    1.7031    9.5809 C   0  0  0  0  0  0  0  0  0  0  0  0
  -11.9210    1.9656    9.7445 C   0  0  0  0  0  0  0  0  0  0  0  0
  -11.0847    1.3722    8.6896 N   0  0  0  0  0  0  0  0  0  0  0  0
   -9.6855    1.8066    8.8894 C   0  0  0  0  0  0  0  0  0  0  0  0
   -8.7087    1.2134    7.8560 C   0  0  0  0  0  0  0  0  0  0  0  0
   -8.7640   -0.2627    7.8856 N   0  0  0  0  0  0  0  0  0  0  0  0
   -7.7086   -0.9750    7.3129 C   0  0  0  0  0  0  0  0  0  0  0  0
   -7.8860   -2.1659    6.5889 C   0  0  0  0  0  0  0  0  0  0  0  0
   -6.8100   -2.8795    6.0523 C   0  0  0  0  0  0  0  0  0  0  0  0
   -5.5157   -2.4119    6.2196 C   0  0  0  0  0  0  0  0  0  0  0  0
   -5.2899   -1.2427    6.9473 C   0  0  0  0  0  0  0  0  0  0  0  0
   -3.8940   -0.7329    7.1393 C   0  0  0  0  0  0  0  0  0  0  0  0
   -3.8274    0.5903    7.4604 F   0  0  0  0  0  0  0  0  0  0  0  0
   -3.2112   -1.3915    8.1116 F   0  0  0  0  0  0  0  0  0  0  0  0
   -3.1544   -0.8667    6.0036 F   0  0  0  0  0  0  0  0  0  0  0  0
   -6.3819   -0.5596    7.5031 C   0  0  0  0  0  0  0  0  0  0  0  0
  -10.1462   -0.7582    7.6923 C   0  0  0  0  0  0  0  0  0  0  0  0
  -11.1209   -0.1097    8.7030 C   0  0  0  0  0  0  0  0  0  0  0  0
  -15.8203   -0.0195    9.1269 C   0  0  0  0  0  0  0  0  0  0  0  0
  -16.2756    1.1105    8.2771 C   0  0  0  0  0  0  0  0  0  0  0  0
  -17.1503    2.1740    8.6183 C   0  0  0  0  0  0  0  0  0  0  0  0
  -17.3625    3.0309    7.6124 N   0  0  0  0  0  0  0  0  0  0  0  0
  -16.5955    2.5281    6.6197 N   0  0  0  0  0  0  0  0  0  0  0  0
  -16.4901    3.2273    5.3660 C   0  0  0  0  0  0  0  0  0  0  0  0
  -15.9658    1.3731    6.9643 C   0  0  0  0  0  0  0  0  0  0  0  0
  -15.1623    0.6406    6.1820 F   0  0  0  0  0  0  0  0  0  0  0  0
  1  2  1  0
  2  3  1  0
  3  4  1  0
  4  5  1  0
  5  6  1  0
  6  7  1  0
  7  8  1  0
  8  9  1  0
  9 10  1  0
 10 11  2  0
 11 12  1  0
 12 13  2  0
 13 14  1  0
 14 15  1  0
 15 16  1  0
 15 17  1  0
 15 18  1  0
 14 19  2  0
  9 20  1  0
 20 21  1  0
  2 22  1  0
 22 23  1  0
 23 24  1  0
 24 25  2  0
 25 26  1  0
 26 27  1  0
 26 28  1  0
 28 29  1  0
 21  6  1  0
 28 23  2  0
 19 10  1  0
M  END
>  <ref_mols>  (1786) 
B0426a

>  <gnina_score>  (1786) 
5.548

>  <smina_score_min>  (1786) 
-5.595

>  <ref_pdb>  (1786) 
B0426a

>  <inspiration_score>  (1786) 
None

>  <inchikey>  (1786) 
USFAZBASENDCGU-UHFFFAOYSA-N

>  <tags>  (1786) 
BulkDock Fragalysis export,openbind_d68ev3c_c2_elabs_scored,openbind_d68ev3c_c2_elabs_scored_4.5plus,openbind_d68ev3c_c2_elabs,openbind_d68ev3c_c2_elabs_scored_5plus,syndirella_product,openbind_d68ev3c_c2_elabs_scored_top80percent,syndirella_placed

>  <smiles>  (1786) 
CN(CCCN1CCN(c2cccc(C(F)(F)F)c2)CC1)Cc1cnn(C)c1F

>  <subsites>  (1786) 
None

>  <rmsd(smina/fragmenstein)>  (1786) 
1.107

>  <alias>  (1786) 
None

>  <energy_score>  (1786) 
-73.106656

>  <HIPPO Pose ID>  (1786) 
131927

>  <distance_score>  (1786) 
0.617615

>  <HIPPO Compound ID>  (1786) 
157915

>  <gnina_score_min>  (1786) 
5.453

>  <name>  (1786) 
P131927

>  <exports>  (1786) 
['/opt/xchem-fragalysis-2/maxwin/BulkDock/OUTPUTS/openbind_d68ev3c_c2_elabs_1LOTQJ3.sdf', '/opt/xchem-fragalysis-2/maxwin/BulkDock/OUTPUTS/openbind_d68ev3c_c2_elabs_1LSYI5W.sdf']

$$$$
P131928
     RDKit          3D

 29 31  0  0  0  0  0  0  0  0999 V2000
  -14.2263    5.5084   13.2005 C   0  0  0  0  0  0  0  0  0  0  0  0
  -14.4222    4.0815   13.1725 N   0  0  0  0  0  0  0  0  0  0  0  0
  -15.3689    3.4979   13.9434 N   0  0  0  0  0  0  0  0  0  0  0  0
  -15.2588    2.2024   13.6305 C   0  0  0  0  0  0  0  0  0  0  0  0
  -14.2762    1.9446   12.6406 C   0  0  0  0  0  0  0  0  0  0  0  0
  -13.8516    0.6331   12.0966 C   0  0  0  0  0  0  0  0  0  0  0  0
  -14.9233   -0.0560   11.3830 N   0  0  0  0  0  0  0  0  0  0  0  0
  -15.3392    0.4937   10.0963 C   0  0  0  0  0  0  0  0  0  0  0  0
  -14.2774    0.5264    8.9944 C   0  0  0  0  0  0  0  0  0  0  0  0
  -13.3468    1.7374    9.0909 C   0  0  0  0  0  0  0  0  0  0  0  0
  -12.5027    2.0131    7.8495 C   0  0  0  0  0  0  0  0  0  0  0  0
  -11.2763    1.2536    7.6355 N   0  0  0  0  0  0  0  0  0  0  0  0
  -10.1883    1.5634    8.5770 C   0  0  0  0  0  0  0  0  0  0  0  0
   -8.8542    0.9307    8.1123 C   0  0  0  0  0  0  0  0  0  0  0  0
   -8.9535   -0.5221    7.8190 N   0  0  0  0  0  0  0  0  0  0  0  0
   -7.7828   -1.1757    7.3764 C   0  0  0  0  0  0  0  0  0  0  0  0
   -7.8228   -2.4710    6.8249 C   0  0  0  0  0  0  0  0  0  0  0  0
   -6.6828   -3.1184    6.3453 C   0  0  0  0  0  0  0  0  0  0  0  0
   -5.4477   -2.4989    6.4385 C   0  0  0  0  0  0  0  0  0  0  0  0
   -5.3447   -1.2387    7.0302 C   0  0  0  0  0  0  0  0  0  0  0  0
   -3.9943   -0.5997    7.1673 C   0  0  0  0  0  0  0  0  0  0  0  0
   -4.0344    0.7365    7.4301 F   0  0  0  0  0  0  0  0  0  0  0  0
   -3.2612   -0.7267    6.0260 F   0  0  0  0  0  0  0  0  0  0  0  0
   -3.2434   -1.1549    8.1553 F   0  0  0  0  0  0  0  0  0  0  0  0
   -6.5065   -0.5994    7.4983 C   0  0  0  0  0  0  0  0  0  0  0  0
  -10.1901   -0.9054    7.0875 C   0  0  0  0  0  0  0  0  0  0  0  0
  -11.4469   -0.2030    7.6244 C   0  0  0  0  0  0  0  0  0  0  0  0
  -13.7516    3.1906   12.3935 C   0  0  0  0  0  0  0  0  0  0  0  0
  -12.7485    3.4787   11.5539 F   0  0  0  0  0  0  0  0  0  0  0  0
  1  2  1  0
  2  3  1  0
  3  4  2  0
  4  5  1  0
  5  6  1  0
  6  7  1  0
  7  8  1  0
  8  9  1  0
  9 10  1  0
 10 11  1  0
 11 12  1  0
 12 13  1  0
 13 14  1  0
 14 15  1  0
 15 16  1  0
 16 17  2  0
 17 18  1  0
 18 19  2  0
 19 20  1  0
 20 21  1  0
 21 22  1  0
 21 23  1  0
 21 24  1  0
 20 25  2  0
 15 26  1  0
 26 27  1  0
  5 28  2  0
 28 29  1  0
 28  2  1  0
 27 12  1  0
 25 16  1  0
M  END
>  <ref_mols>  (1787) 
B0426a

>  <gnina_score>  (1787) 
5.544

>  <smina_score_min>  (1787) 
-5.804

>  <ref_pdb>  (1787) 
B0426a

>  <inspiration_score>  (1787) 
None

>  <inchikey>  (1787) 
UDYWSLRUMHXKJY-UHFFFAOYSA-N

>  <tags>  (1787) 
BulkDock Fragalysis export,openbind_d68ev3c_c2_elabs_scored,openbind_d68ev3c_c2_elabs_scored_4.5plus,openbind_d68ev3c_c2_elabs,openbind_d68ev3c_c2_elabs_scored_5plus,syndirella_product,openbind_d68ev3c_c2_elabs_scored_top80percent,syndirella_placed

>  <smiles>  (1787) 
Cn1ncc(CNCCCCN2CCN(c3cccc(C(F)(F)F)c3)CC2)c1F

>  <subsites>  (1787) 
None

>  <rmsd(smina/fragmenstein)>  (1787) 
0.469

>  <alias>  (1787) 
None

>  <energy_score>  (1787) 
-41.21507

>  <HIPPO Pose ID>  (1787) 
131928

>  <distance_score>  (1787) 
0.566289

>  <HIPPO Compound ID>  (1787) 
157916

>  <gnina_score_min>  (1787) 
5.557

>  <name>  (1787) 
P131928

>  <exports>  (1787) 
['/opt/xchem-fragalysis-2/maxwin/BulkDock/OUTPUTS/openbind_d68ev3c_c2_elabs_1LOTQJ3.sdf', '/opt/xchem-fragalysis-2/maxwin/BulkDock/OUTPUTS/openbind_d68ev3c_c2_elabs_1LSYI5W.sdf']

$$$$
P131929
     RDKit          3D

 29 31  0  0  0  0  0  0  0  0999 V2000
  -17.0967    3.2878   10.2802 C   0  0  0  0  0  0  0  0  0  0  0  0
  -16.9637    2.2878    9.1907 C   0  0  0  0  0  0  0  0  0  0  0  0
  -17.2620    2.6324    7.9305 N   0  0  0  0  0  0  0  0  0  0  0  0
  -17.0125    1.5098    7.2268 N   0  0  0  0  0  0  0  0  0  0  0  0
  -17.1485    1.5119    5.7941 C   0  0  0  0  0  0  0  0  0  0  0  0
  -16.6427    0.4615    8.0068 C   0  0  0  0  0  0  0  0  0  0  0  0
  -16.4017   -0.7891    7.5927 F   0  0  0  0  0  0  0  0  0  0  0  0
  -16.5384    0.9272    9.2957 C   0  0  0  0  0  0  0  0  0  0  0  0
  -16.1515    0.1968   10.5253 C   0  0  0  0  0  0  0  0  0  0  0  0
  -14.8316   -0.3987   10.4444 N   0  0  0  0  0  0  0  0  0  0  0  0
  -13.7076    0.5168   10.6057 C   0  0  0  0  0  0  0  0  0  0  0  0
  -13.4636    1.4514    9.4180 C   0  0  0  0  0  0  0  0  0  0  0  0
  -12.0356    2.0059    9.4008 C   0  0  0  0  0  0  0  0  0  0  0  0
  -11.1256    1.3190    8.4732 N   0  0  0  0  0  0  0  0  0  0  0  0
   -9.7600    1.8710    8.6167 C   0  0  0  0  0  0  0  0  0  0  0  0
   -8.7286    1.2075    7.6769 C   0  0  0  0  0  0  0  0  0  0  0  0
   -8.7183   -0.2596    7.8593 N   0  0  0  0  0  0  0  0  0  0  0  0
   -7.6560   -0.9742    7.2989 C   0  0  0  0  0  0  0  0  0  0  0  0
   -7.8219   -2.1801    6.5948 C   0  0  0  0  0  0  0  0  0  0  0  0
   -6.7387   -2.8945    6.0788 C   0  0  0  0  0  0  0  0  0  0  0  0
   -5.4512   -2.4123    6.2510 C   0  0  0  0  0  0  0  0  0  0  0  0
   -5.2409   -1.2259    6.9577 C   0  0  0  0  0  0  0  0  0  0  0  0
   -3.8502   -0.7078    7.1502 C   0  0  0  0  0  0  0  0  0  0  0  0
   -3.7898    0.6201    7.4508 F   0  0  0  0  0  0  0  0  0  0  0  0
   -3.1087   -0.8580    6.0189 F   0  0  0  0  0  0  0  0  0  0  0  0
   -3.1698   -1.3502    8.1344 F   0  0  0  0  0  0  0  0  0  0  0  0
   -6.3393   -0.5362    7.4881 C   0  0  0  0  0  0  0  0  0  0  0  0
  -10.0699   -0.8416    7.7367 C   0  0  0  0  0  0  0  0  0  0  0  0
  -11.0597   -0.1442    8.6881 C   0  0  0  0  0  0  0  0  0  0  0  0
  1  2  1  0
  2  3  2  0
  3  4  1  0
  4  5  1  0
  4  6  1  0
  6  7  1  0
  6  8  2  0
  8  9  1  0
  9 10  1  0
 10 11  1  0
 11 12  1  0
 12 13  1  0
 13 14  1  0
 14 15  1  0
 15 16  1  0
 16 17  1  0
 17 18  1  0
 18 19  2  0
 19 20  1  0
 20 21  2  0
 21 22  1  0
 22 23  1  0
 23 24  1  0
 23 25  1  0
 23 26  1  0
 22 27  2  0
 17 28  1  0
 28 29  1  0
  8  2  1  0
 29 14  1  0
 27 18  1  0
M  END
>  <ref_mols>  (1788) 
B0426a

>  <gnina_score>  (1788) 
5.561

>  <smina_score_min>  (1788) 
-5.97

>  <ref_pdb>  (1788) 
B0426a

>  <inspiration_score>  (1788) 
None

>  <inchikey>  (1788) 
OYPDADKGWIGLRM-UHFFFAOYSA-N

>  <tags>  (1788) 
BulkDock Fragalysis export,openbind_d68ev3c_c2_elabs_scored,openbind_d68ev3c_c2_elabs_scored_4.5plus,openbind_d68ev3c_c2_elabs,openbind_d68ev3c_c2_elabs_scored_5plus,syndirella_product,openbind_d68ev3c_c2_elabs_scored_top80percent,syndirella_placed

>  <smiles>  (1788) 
Cc1nn(C)c(F)c1CNCCCN1CCN(c2cccc(C(F)(F)F)c2)CC1

>  <subsites>  (1788) 
None

>  <rmsd(smina/fragmenstein)>  (1788) 
0.842

>  <alias>  (1788) 
None

>  <energy_score>  (1788) 
-47.709038

>  <HIPPO Pose ID>  (1788) 
131929

>  <distance_score>  (1788) 
0.62843

>  <HIPPO Compound ID>  (1788) 
157917

>  <gnina_score_min>  (1788) 
5.381

>  <name>  (1788) 
P131929

>  <exports>  (1788) 
['/opt/xchem-fragalysis-2/maxwin/BulkDock/OUTPUTS/openbind_d68ev3c_c2_elabs_1LOTQJ3.sdf', '/opt/xchem-fragalysis-2/maxwin/BulkDock/OUTPUTS/openbind_d68ev3c_c2_elabs_1LSYI5W.sdf']

$$$$
P131930
     RDKit          3D

 29 31  0  0  0  0  0  0  0  0999 V2000
  -18.4693    2.6332    5.4486 F   0  0  0  0  0  0  0  0  0  0  0  0
  -17.1507    2.6804    5.7852 C   0  0  0  0  0  0  0  0  0  0  0  0
  -16.9302    3.9496    6.2445 F   0  0  0  0  0  0  0  0  0  0  0  0
  -16.8314    1.6923    6.8111 N   0  0  0  0  0  0  0  0  0  0  0  0
  -16.8265    1.9046    8.1656 C   0  0  0  0  0  0  0  0  0  0  0  0
  -16.3761    0.7375    8.7518 C   0  0  0  0  0  0  0  0  0  0  0  0
  -16.1949    0.4686   10.1998 C   0  0  0  0  0  0  0  0  0  0  0  0
  -14.9517   -0.2264   10.4822 N   0  0  0  0  0  0  0  0  0  0  0  0
  -13.7705    0.6248   10.6250 C   0  0  0  0  0  0  0  0  0  0  0  0
  -13.4590    1.5212    9.4237 C   0  0  0  0  0  0  0  0  0  0  0  0
  -12.0196    2.0437    9.4506 C   0  0  0  0  0  0  0  0  0  0  0  0
  -11.1119    1.3593    8.5191 N   0  0  0  0  0  0  0  0  0  0  0  0
  -11.0681   -0.1086    8.7169 C   0  0  0  0  0  0  0  0  0  0  0  0
  -10.0819   -0.8077    7.7611 C   0  0  0  0  0  0  0  0  0  0  0  0
   -8.7221   -0.2420    7.8908 N   0  0  0  0  0  0  0  0  0  0  0  0
   -7.6667   -0.9601    7.3202 C   0  0  0  0  0  0  0  0  0  0  0  0
   -7.8430   -2.1626    6.6132 C   0  0  0  0  0  0  0  0  0  0  0  0
   -6.7666   -2.8804    6.0863 C   0  0  0  0  0  0  0  0  0  0  0  0
   -5.4751   -2.4053    6.2500 C   0  0  0  0  0  0  0  0  0  0  0  0
   -5.2538   -1.2227    6.9595 C   0  0  0  0  0  0  0  0  0  0  0  0
   -3.8592   -0.7109    7.1447 C   0  0  0  0  0  0  0  0  0  0  0  0
   -3.1234   -0.8606    6.0093 F   0  0  0  0  0  0  0  0  0  0  0  0
   -3.7917    0.6159    7.4488 F   0  0  0  0  0  0  0  0  0  0  0  0
   -3.1760   -1.3585    8.1238 F   0  0  0  0  0  0  0  0  0  0  0  0
   -6.3456   -0.5304    7.5011 C   0  0  0  0  0  0  0  0  0  0  0  0
   -8.7184    1.2271    7.7247 C   0  0  0  0  0  0  0  0  0  0  0  0
   -9.7408    1.8898    8.6743 C   0  0  0  0  0  0  0  0  0  0  0  0
  -16.1725   -0.1311    7.6551 C   0  0  0  0  0  0  0  0  0  0  0  0
  -16.4850    0.4263    6.4832 N   0  0  0  0  0  0  0  0  0  0  0  0
  1  2  1  0
  2  3  1  0
  2  4  1  0
  4  5  1  0
  5  6  2  0
  6  7  1  0
  7  8  1  0
  8  9  1  0
  9 10  1  0
 10 11  1  0
 11 12  1  0
 12 13  1  0
 13 14  1  0
 14 15  1  0
 15 16  1  0
 16 17  2  0
 17 18  1  0
 18 19  2  0
 19 20  1  0
 20 21  1  0
 21 22  1  0
 21 23  1  0
 21 24  1  0
 20 25  2  0
 15 26  1  0
 26 27  1  0
  6 28  1  0
 28 29  2  0
 29  4  1  0
 27 12  1  0
 25 16  1  0
M  END
>  <ref_mols>  (1789) 
B0426a

>  <gnina_score>  (1789) 
5.444

>  <smina_score_min>  (1789) 
-5.821

>  <ref_pdb>  (1789) 
B0426a

>  <inspiration_score>  (1789) 
None

>  <inchikey>  (1789) 
BWTJHEXXPFGUKC-UHFFFAOYSA-N

>  <tags>  (1789) 
BulkDock Fragalysis export,openbind_d68ev3c_c2_elabs_scored,openbind_d68ev3c_c2_elabs_scored_4.5plus,openbind_d68ev3c_c2_elabs,openbind_d68ev3c_c2_elabs_scored_5plus,syndirella_product,openbind_d68ev3c_c2_elabs_scored_top80percent,syndirella_placed

>  <smiles>  (1789) 
FC(F)n1cc(CNCCCN2CCN(c3cccc(C(F)(F)F)c3)CC2)cn1

>  <subsites>  (1789) 
None

>  <rmsd(smina/fragmenstein)>  (1789) 
1.488

>  <alias>  (1789) 
None

>  <energy_score>  (1789) 
-41.091047

>  <HIPPO Pose ID>  (1789) 
131930

>  <distance_score>  (1789) 
0.590141

>  <HIPPO Compound ID>  (1789) 
157918

>  <gnina_score_min>  (1789) 
5.27

>  <name>  (1789) 
P131930

>  <exports>  (1789) 
['/opt/xchem-fragalysis-2/maxwin/BulkDock/OUTPUTS/openbind_d68ev3c_c2_elabs_1LOTQJ3.sdf', '/opt/xchem-fragalysis-2/maxwin/BulkDock/OUTPUTS/openbind_d68ev3c_c2_elabs_1LSYI5W.sdf']

$$$$
P131931
     RDKit          3D

 29 31  0  0  0  0  0  0  0  0999 V2000
  -19.0297    2.7866   10.1809 C   0  0  0  0  0  0  0  0  0  0  0  0
  -17.4198    3.3967    9.6270 S   0  0  0  0  0  0  0  0  0  0  0  0
  -16.9555    2.0974    8.5669 C   0  0  0  0  0  0  0  0  0  0  0  0
  -16.4569    0.8348    8.8340 C   0  0  0  0  0  0  0  0  0  0  0  0
  -16.1828    0.2227   10.1651 C   0  0  0  0  0  0  0  0  0  0  0  0
  -14.8720   -0.3885   10.2801 N   0  0  0  0  0  0  0  0  0  0  0  0
  -13.7647    0.5290   10.5240 C   0  0  0  0  0  0  0  0  0  0  0  0
  -13.4633    1.4928    9.3750 C   0  0  0  0  0  0  0  0  0  0  0  0
  -12.0267    2.0196    9.4205 C   0  0  0  0  0  0  0  0  0  0  0  0
  -11.1113    1.3401    8.4922 N   0  0  0  0  0  0  0  0  0  0  0  0
  -11.0655   -0.1282    8.6801 C   0  0  0  0  0  0  0  0  0  0  0  0
  -10.0727   -0.8204    7.7276 C   0  0  0  0  0  0  0  0  0  0  0  0
   -8.7155   -0.2567    7.8756 N   0  0  0  0  0  0  0  0  0  0  0  0
   -7.6558   -0.9717    7.3092 C   0  0  0  0  0  0  0  0  0  0  0  0
   -7.8265   -2.1719    6.5967 C   0  0  0  0  0  0  0  0  0  0  0  0
   -6.7466   -2.8861    6.0727 C   0  0  0  0  0  0  0  0  0  0  0  0
   -5.4571   -2.4091    6.2444 C   0  0  0  0  0  0  0  0  0  0  0  0
   -5.2416   -1.2287    6.9592 C   0  0  0  0  0  0  0  0  0  0  0  0
   -3.8495   -0.7134    7.1502 C   0  0  0  0  0  0  0  0  0  0  0  0
   -3.7869    0.6138    7.4539 F   0  0  0  0  0  0  0  0  0  0  0  0
   -3.1690   -1.3588    8.1325 F   0  0  0  0  0  0  0  0  0  0  0  0
   -3.1094   -0.8620    6.0179 F   0  0  0  0  0  0  0  0  0  0  0  0
   -6.3366   -0.5408    7.4991 C   0  0  0  0  0  0  0  0  0  0  0  0
   -8.7086    1.2141    7.7211 C   0  0  0  0  0  0  0  0  0  0  0  0
   -9.7414    1.8711    8.6640 C   0  0  0  0  0  0  0  0  0  0  0  0
  -16.3554    0.2463    7.5450 C   0  0  0  0  0  0  0  0  0  0  0  0
  -16.7422    1.0661    6.5586 N   0  0  0  0  0  0  0  0  0  0  0  0
  -17.0427    2.2122    7.2053 N   0  0  0  0  0  0  0  0  0  0  0  0
  -17.4404    3.3694    6.4375 C   0  0  0  0  0  0  0  0  0  0  0  0
  1  2  1  0
  2  3  1  0
  3  4  2  0
  4  5  1  0
  5  6  1  0
  6  7  1  0
  7  8  1  0
  8  9  1  0
  9 10  1  0
 10 11  1  0
 11 12  1  0
 12 13  1  0
 13 14  1  0
 14 15  2  0
 15 16  1  0
 16 17  2  0
 17 18  1  0
 18 19  1  0
 19 20  1  0
 19 21  1  0
 19 22  1  0
 18 23  2  0
 13 24  1  0
 24 25  1  0
  4 26  1  0
 26 27  2  0
 27 28  1  0
 28 29  1  0
 28  3  1  0
 25 10  1  0
 23 14  1  0
M  END
>  <ref_mols>  (1790) 
B0426a

>  <gnina_score>  (1790) 
5.522

>  <smina_score_min>  (1790) 
-5.636

>  <ref_pdb>  (1790) 
B0426a

>  <inspiration_score>  (1790) 
None

>  <inchikey>  (1790) 
IOLLRGCDTOJDOG-UHFFFAOYSA-N

>  <tags>  (1790) 
BulkDock Fragalysis export,openbind_d68ev3c_c2_elabs_scored,openbind_d68ev3c_c2_elabs_scored_4.5plus,openbind_d68ev3c_c2_elabs,openbind_d68ev3c_c2_elabs_scored_5plus,syndirella_product,openbind_d68ev3c_c2_elabs_scored_top80percent,syndirella_placed

>  <smiles>  (1790) 
CSc1c(CNCCCN2CCN(c3cccc(C(F)(F)F)c3)CC2)cnn1C

>  <subsites>  (1790) 
None

>  <rmsd(smina/fragmenstein)>  (1790) 
1.477

>  <alias>  (1790) 
None

>  <energy_score>  (1790) 
-64.685357

>  <HIPPO Pose ID>  (1790) 
131931

>  <distance_score>  (1790) 
0.594916

>  <HIPPO Compound ID>  (1790) 
157919

>  <gnina_score_min>  (1790) 
5.258

>  <name>  (1790) 
P131931

>  <exports>  (1790) 
['/opt/xchem-fragalysis-2/maxwin/BulkDock/OUTPUTS/openbind_d68ev3c_c2_elabs_1LOTQJ3.sdf', '/opt/xchem-fragalysis-2/maxwin/BulkDock/OUTPUTS/openbind_d68ev3c_c2_elabs_1LSYI5W.sdf']

$$$$
P131932
     RDKit          3D

 29 31  0  0  0  0  0  0  0  0999 V2000
  -15.7922   -0.5626   10.5973 C   0  0  0  0  0  0  0  0  0  0  0  0
  -15.5464    0.8171   10.9446 N   0  0  0  0  0  0  0  0  0  0  0  0
  -14.1589    1.2586   10.8679 C   0  0  0  0  0  0  0  0  0  0  0  0
  -13.3616    0.7892    9.6586 C   0  0  0  0  0  0  0  0  0  0  0  0
  -12.0115    1.5089    9.6044 C   0  0  0  0  0  0  0  0  0  0  0  0
  -11.1522    1.0854    8.4854 N   0  0  0  0  0  0  0  0  0  0  0  0
  -11.0843   -0.3939    8.4164 C   0  0  0  0  0  0  0  0  0  0  0  0
  -10.0646   -0.9511    7.4186 C   0  0  0  0  0  0  0  0  0  0  0  0
   -8.7276   -0.3881    7.6781 N   0  0  0  0  0  0  0  0  0  0  0  0
   -7.6227   -1.0577    7.1615 C   0  0  0  0  0  0  0  0  0  0  0  0
   -7.7262   -2.2464    6.4163 C   0  0  0  0  0  0  0  0  0  0  0  0
   -6.6066   -2.9298    5.9417 C   0  0  0  0  0  0  0  0  0  0  0  0
   -5.3412   -2.4296    6.1930 C   0  0  0  0  0  0  0  0  0  0  0  0
   -5.1918   -1.2580    6.9380 C   0  0  0  0  0  0  0  0  0  0  0  0
   -3.8246   -0.7141    7.2021 C   0  0  0  0  0  0  0  0  0  0  0  0
   -3.0271   -0.8561    6.1099 F   0  0  0  0  0  0  0  0  0  0  0  0
   -3.8037    0.6156    7.4981 F   0  0  0  0  0  0  0  0  0  0  0  0
   -3.1833   -1.3412    8.2207 F   0  0  0  0  0  0  0  0  0  0  0  0
   -6.3270   -0.6042    7.4327 C   0  0  0  0  0  0  0  0  0  0  0  0
   -8.7464    1.0902    7.6837 C   0  0  0  0  0  0  0  0  0  0  0  0
   -9.7835    1.6108    8.7034 C   0  0  0  0  0  0  0  0  0  0  0  0
  -16.5161    1.7167   10.3319 C   0  0  0  0  0  0  0  0  0  0  0  0
  -16.5593    1.7214    8.8459 C   0  0  0  0  0  0  0  0  0  0  0  0
  -15.8093    2.4810    7.9661 C   0  0  0  0  0  0  0  0  0  0  0  0
  -16.2336    2.1490    6.7130 N   0  0  0  0  0  0  0  0  0  0  0  0
  -15.6820    2.6130    5.4637 C   0  0  0  0  0  0  0  0  0  0  0  0
  -17.2904    1.3204    6.7107 N   0  0  0  0  0  0  0  0  0  0  0  0
  -17.4710    1.0415    8.0004 C   0  0  0  0  0  0  0  0  0  0  0  0
  -18.7304    0.0051    8.4724 Cl  0  0  0  0  0  0  0  0  0  0  0  0
  1  2  1  0
  2  3  1  0
  3  4  1  0
  4  5  1  0
  5  6  1  0
  6  7  1  0
  7  8  1  0
  8  9  1  0
  9 10  1  0
 10 11  2  0
 11 12  1  0
 12 13  2  0
 13 14  1  0
 14 15  1  0
 15 16  1  0
 15 17  1  0
 15 18  1  0
 14 19  2  0
  9 20  1  0
 20 21  1  0
  2 22  1  0
 22 23  1  0
 23 24  2  0
 24 25  1  0
 25 26  1  0
 25 27  1  0
 27 28  2  0
 28 29  1  0
 21  6  1  0
 28 23  1  0
 19 10  1  0
M  END
>  <ref_mols>  (1791) 
B0426a

>  <gnina_score>  (1791) 
5.445

>  <smina_score_min>  (1791) 
-5.638

>  <ref_pdb>  (1791) 
B0426a

>  <inspiration_score>  (1791) 
None

>  <inchikey>  (1791) 
ZJPMMHMUZHCTLZ-UHFFFAOYSA-N

>  <tags>  (1791) 
BulkDock Fragalysis export,openbind_d68ev3c_c2_elabs_scored,openbind_d68ev3c_c2_elabs_scored_4.5plus,openbind_d68ev3c_c2_elabs,openbind_d68ev3c_c2_elabs_scored_5plus,syndirella_product,openbind_d68ev3c_c2_elabs_scored_top80percent,syndirella_placed

>  <smiles>  (1791) 
CN(CCCN1CCN(c2cccc(C(F)(F)F)c2)CC1)Cc1cn(C)nc1Cl

>  <subsites>  (1791) 
None

>  <rmsd(smina/fragmenstein)>  (1791) 
1.4

>  <alias>  (1791) 
None

>  <energy_score>  (1791) 
-68.250543

>  <HIPPO Pose ID>  (1791) 
131932

>  <distance_score>  (1791) 
0.885515

>  <HIPPO Compound ID>  (1791) 
157920

>  <gnina_score_min>  (1791) 
5.669

>  <name>  (1791) 
P131932

>  <exports>  (1791) 
['/opt/xchem-fragalysis-2/maxwin/BulkDock/OUTPUTS/openbind_d68ev3c_c2_elabs_1LOTQJ3.sdf', '/opt/xchem-fragalysis-2/maxwin/BulkDock/OUTPUTS/openbind_d68ev3c_c2_elabs_1LSYI5W.sdf']

$$$$
P131933
     RDKit          3D

 29 31  0  0  0  0  0  0  0  0999 V2000
  -15.3010   -1.4861    4.6120 C   0  0  0  0  0  0  0  0  0  0  0  0
  -15.9999   -1.0220    5.7837 N   0  0  0  0  0  0  0  0  0  0  0  0
  -15.4620   -0.2439    6.7571 C   0  0  0  0  0  0  0  0  0  0  0  0
  -16.4009   -0.1834    7.7669 C   0  0  0  0  0  0  0  0  0  0  0  0
  -16.2275    0.4159    9.1053 C   0  0  0  0  0  0  0  0  0  0  0  0
  -14.9315   -0.0040    9.6016 N   0  0  0  0  0  0  0  0  0  0  0  0
  -14.6892    0.4163   10.9601 C   0  0  0  0  0  0  0  0  0  0  0  0
  -13.1908    0.6151   11.1661 C   0  0  0  0  0  0  0  0  0  0  0  0
  -12.6395    1.8786   10.4947 C   0  0  0  0  0  0  0  0  0  0  0  0
  -12.4667    1.9302    8.9685 C   0  0  0  0  0  0  0  0  0  0  0  0
  -11.3195    1.2814    8.3313 N   0  0  0  0  0  0  0  0  0  0  0  0
  -10.0149    1.6711    8.8842 C   0  0  0  0  0  0  0  0  0  0  0  0
   -8.8358    1.1116    8.0519 C   0  0  0  0  0  0  0  0  0  0  0  0
   -8.9201   -0.3592    7.8741 N   0  0  0  0  0  0  0  0  0  0  0  0
   -7.8097   -1.0347    7.3423 C   0  0  0  0  0  0  0  0  0  0  0  0
   -7.9191   -2.2759    6.6875 C   0  0  0  0  0  0  0  0  0  0  0  0
   -6.8103   -2.9641    6.1828 C   0  0  0  0  0  0  0  0  0  0  0  0
   -5.5401   -2.4310    6.3250 C   0  0  0  0  0  0  0  0  0  0  0  0
   -5.3714   -1.2162    6.9897 C   0  0  0  0  0  0  0  0  0  0  0  0
   -3.9909   -0.6564    7.1733 C   0  0  0  0  0  0  0  0  0  0  0  0
   -3.2384   -0.7913    6.0451 F   0  0  0  0  0  0  0  0  0  0  0  0
   -3.2928   -1.2763    8.1615 F   0  0  0  0  0  0  0  0  0  0  0  0
   -3.9656    0.6732    7.4709 F   0  0  0  0  0  0  0  0  0  0  0  0
   -6.5001   -0.5465    7.4982 C   0  0  0  0  0  0  0  0  0  0  0  0
  -10.2734   -0.7981    7.4349 C   0  0  0  0  0  0  0  0  0  0  0  0
  -11.3935   -0.1856    8.3053 C   0  0  0  0  0  0  0  0  0  0  0  0
  -17.5172   -0.8596    7.2322 C   0  0  0  0  0  0  0  0  0  0  0  0
  -19.0396   -1.0605    7.9535 Cl  0  0  0  0  0  0  0  0  0  0  0  0
  -17.2724   -1.4055    6.0419 N   0  0  0  0  0  0  0  0  0  0  0  0
  1  2  1  0
  2  3  1  0
  3  4  2  0
  4  5  1  0
  5  6  1  0
  6  7  1  0
  7  8  1  0
  8  9  1  0
  9 10  1  0
 10 11  1  0
 11 12  1  0
 12 13  1  0
 13 14  1  0
 14 15  1  0
 15 16  2  0
 16 17  1  0
 17 18  2  0
 18 19  1  0
 19 20  1  0
 20 21  1  0
 20 22  1  0
 20 23  1  0
 19 24  2  0
 14 25  1  0
 25 26  1  0
  4 27  1  0
 27 28  1  0
 27 29  2  0
 29  2  1  0
 26 11  1  0
 24 15  1  0
M  END
>  <ref_mols>  (1792) 
B0426a

>  <gnina_score>  (1792) 
5.723

>  <smina_score_min>  (1792) 
-6.33

>  <ref_pdb>  (1792) 
B0426a

>  <inspiration_score>  (1792) 
None

>  <inchikey>  (1792) 
LXSFYUMVRNBDAN-UHFFFAOYSA-N

>  <tags>  (1792) 
BulkDock Fragalysis export,openbind_d68ev3c_c2_elabs_scored,openbind_d68ev3c_c2_elabs_scored_4.5plus,openbind_d68ev3c_c2_elabs,openbind_d68ev3c_c2_elabs_scored_5plus,syndirella_product,openbind_d68ev3c_c2_elabs_scored_top80percent,syndirella_placed

>  <smiles>  (1792) 
Cn1cc(CNCCCCN2CCN(c3cccc(C(F)(F)F)c3)CC2)c(Cl)n1

>  <subsites>  (1792) 
None

>  <rmsd(smina/fragmenstein)>  (1792) 
0.841

>  <alias>  (1792) 
None

>  <energy_score>  (1792) 
-64.680479

>  <HIPPO Pose ID>  (1792) 
131933

>  <distance_score>  (1792) 
0.563481

>  <HIPPO Compound ID>  (1792) 
157921

>  <gnina_score_min>  (1792) 
5.542

>  <name>  (1792) 
P131933

>  <exports>  (1792) 
['/opt/xchem-fragalysis-2/maxwin/BulkDock/OUTPUTS/openbind_d68ev3c_c2_elabs_1LOTQJ3.sdf', '/opt/xchem-fragalysis-2/maxwin/BulkDock/OUTPUTS/openbind_d68ev3c_c2_elabs_1LSYI5W.sdf']

$$$$
P131934
     RDKit          3D

 29 31  0  0  0  0  0  0  0  0999 V2000
  -16.6678   -1.0943    7.1466 C   0  0  0  0  0  0  0  0  0  0  0  0
  -16.5565    0.3451    7.4845 C   0  0  0  0  0  0  0  0  0  0  0  0
  -16.5064    1.2317    6.4836 N   0  0  0  0  0  0  0  0  0  0  0  0
  -16.3897    2.4222    7.0915 N   0  0  0  0  0  0  0  0  0  0  0  0
  -16.2682    3.6108    6.2836 C   0  0  0  0  0  0  0  0  0  0  0  0
  -16.4178    2.3149    8.4473 C   0  0  0  0  0  0  0  0  0  0  0  0
  -16.3484    3.7025    9.4329 Cl  0  0  0  0  0  0  0  0  0  0  0  0
  -16.4932    0.9756    8.7641 C   0  0  0  0  0  0  0  0  0  0  0  0
  -16.5715    0.3646   10.1162 C   0  0  0  0  0  0  0  0  0  0  0  0
  -15.3513   -0.3121   10.5342 N   0  0  0  0  0  0  0  0  0  0  0  0
  -14.2112    0.5876   10.7239 C   0  0  0  0  0  0  0  0  0  0  0  0
  -13.3747    0.6657    9.4538 C   0  0  0  0  0  0  0  0  0  0  0  0
  -12.0243    1.3278    9.7058 C   0  0  0  0  0  0  0  0  0  0  0  0
  -11.0949    1.2639    8.5593 N   0  0  0  0  0  0  0  0  0  0  0  0
   -9.7263    1.5470    9.0603 C   0  0  0  0  0  0  0  0  0  0  0  0
   -8.5855    1.2644    8.0586 C   0  0  0  0  0  0  0  0  0  0  0  0
   -8.7089   -0.1015    7.5237 N   0  0  0  0  0  0  0  0  0  0  0  0
   -7.6300   -0.8898    7.1805 C   0  0  0  0  0  0  0  0  0  0  0  0
   -7.7869   -2.2352    6.8003 C   0  0  0  0  0  0  0  0  0  0  0  0
   -6.7076   -3.0419    6.4374 C   0  0  0  0  0  0  0  0  0  0  0  0
   -5.4230   -2.5276    6.4929 C   0  0  0  0  0  0  0  0  0  0  0  0
   -5.2161   -1.2148    6.9171 C   0  0  0  0  0  0  0  0  0  0  0  0
   -3.8236   -0.6770    7.0046 C   0  0  0  0  0  0  0  0  0  0  0  0
   -3.1636   -0.8397    5.8260 F   0  0  0  0  0  0  0  0  0  0  0  0
   -3.0704   -1.3013    7.9486 F   0  0  0  0  0  0  0  0  0  0  0  0
   -3.7512    0.6538    7.2874 F   0  0  0  0  0  0  0  0  0  0  0  0
   -6.3168   -0.4130    7.2424 C   0  0  0  0  0  0  0  0  0  0  0  0
  -10.0169   -0.3161    6.8879 C   0  0  0  0  0  0  0  0  0  0  0  0
  -11.1172   -0.0806    7.9266 C   0  0  0  0  0  0  0  0  0  0  0  0
  1  2  1  0
  2  3  2  0
  3  4  1  0
  4  5  1  0
  4  6  1  0
  6  7  1  0
  6  8  2  0
  8  9  1  0
  9 10  1  0
 10 11  1  0
 11 12  1  0
 12 13  1  0
 13 14  1  0
 14 15  1  0
 15 16  1  0
 16 17  1  0
 17 18  1  0
 18 19  2  0
 19 20  1  0
 20 21  2  0
 21 22  1  0
 22 23  1  0
 23 24  1  0
 23 25  1  0
 23 26  1  0
 22 27  2  0
 17 28  1  0
 28 29  1  0
  8  2  1  0
 29 14  1  0
 27 18  1  0
M  END
>  <ref_mols>  (1793) 
B0426a

>  <gnina_score>  (1793) 
5.422

>  <smina_score_min>  (1793) 
-5.752

>  <ref_pdb>  (1793) 
B0426a

>  <inspiration_score>  (1793) 
None

>  <inchikey>  (1793) 
ZRLVQLJXCMQUEL-UHFFFAOYSA-N

>  <tags>  (1793) 
BulkDock Fragalysis export,openbind_d68ev3c_c2_elabs_scored,openbind_d68ev3c_c2_elabs_scored_4.5plus,openbind_d68ev3c_c2_elabs,openbind_d68ev3c_c2_elabs_scored_5plus,syndirella_product,openbind_d68ev3c_c2_elabs_scored_top80percent,syndirella_placed

>  <smiles>  (1793) 
Cc1nn(C)c(Cl)c1CNCCCN1CCN(c2cccc(C(F)(F)F)c2)CC1

>  <subsites>  (1793) 
None

>  <rmsd(smina/fragmenstein)>  (1793) 
0.64

>  <alias>  (1793) 
None

>  <energy_score>  (1793) 
-46.4076

>  <HIPPO Pose ID>  (1793) 
131934

>  <distance_score>  (1793) 
0.688415

>  <HIPPO Compound ID>  (1793) 
157922

>  <gnina_score_min>  (1793) 
5.53

>  <name>  (1793) 
P131934

>  <exports>  (1793) 
['/opt/xchem-fragalysis-2/maxwin/BulkDock/OUTPUTS/openbind_d68ev3c_c2_elabs_1LOTQJ3.sdf', '/opt/xchem-fragalysis-2/maxwin/BulkDock/OUTPUTS/openbind_d68ev3c_c2_elabs_1LSYI5W.sdf']

$$$$
P131935
     RDKit          3D

 29 31  0  0  0  0  0  0  0  0999 V2000
  -16.1747   -0.5485    7.1175 C   0  0  0  0  0  0  0  0  0  0  0  0
  -16.4530    0.7202    7.8401 C   0  0  0  0  0  0  0  0  0  0  0  0
  -16.4238    1.0140    9.1990 C   0  0  0  0  0  0  0  0  0  0  0  0
  -16.1184    0.1307   10.3614 C   0  0  2  0  0  0  0  0  0  0  0  0
  -16.4130    0.7424   11.6073 O   0  0  0  0  0  0  0  0  0  0  0  0
  -14.7691   -0.3761   10.3638 N   0  0  0  0  0  0  0  0  0  0  0  0
  -13.6987    0.5768   10.6264 C   0  0  0  0  0  0  0  0  0  0  0  0
  -13.4046    1.5337    9.4679 C   0  0  0  0  0  0  0  0  0  0  0  0
  -11.9630    2.0425    9.4754 C   0  0  0  0  0  0  0  0  0  0  0  0
  -11.0808    1.3507    8.5231 N   0  0  0  0  0  0  0  0  0  0  0  0
  -11.0295   -0.1144    8.7343 C   0  0  0  0  0  0  0  0  0  0  0  0
  -10.0569   -0.8221    7.7716 C   0  0  0  0  0  0  0  0  0  0  0  0
   -8.7000   -0.2495    7.8738 N   0  0  0  0  0  0  0  0  0  0  0  0
   -7.6469   -0.9711    7.3075 C   0  0  0  0  0  0  0  0  0  0  0  0
   -7.8242   -2.1751    6.6041 C   0  0  0  0  0  0  0  0  0  0  0  0
   -6.7475   -2.8937    6.0798 C   0  0  0  0  0  0  0  0  0  0  0  0
   -5.4564   -2.4172    6.2433 C   0  0  0  0  0  0  0  0  0  0  0  0
   -5.2356   -1.2333    6.9507 C   0  0  0  0  0  0  0  0  0  0  0  0
   -3.8424   -0.7191    7.1350 C   0  0  0  0  0  0  0  0  0  0  0  0
   -3.1098   -0.8667    5.9976 F   0  0  0  0  0  0  0  0  0  0  0  0
   -3.7768    0.6077    7.4396 F   0  0  0  0  0  0  0  0  0  0  0  0
   -3.1564   -1.3663    8.1121 F   0  0  0  0  0  0  0  0  0  0  0  0
   -6.3269   -0.5404    7.4896 C   0  0  0  0  0  0  0  0  0  0  0  0
   -8.7015    1.2170    7.6897 C   0  0  0  0  0  0  0  0  0  0  0  0
   -9.7081    1.8868    8.6492 C   0  0  0  0  0  0  0  0  0  0  0  0
  -16.8059    2.3771    9.2568 C   0  0  0  0  0  0  0  0  0  0  0  0
  -17.0420    2.9052    8.0578 N   0  0  0  0  0  0  0  0  0  0  0  0
  -16.7576    1.9017    7.2084 N   0  0  0  0  0  0  0  0  0  0  0  0
  -16.8067    2.1514    5.7866 C   0  0  0  0  0  0  0  0  0  0  0  0
  1  2  1  0
  2  3  2  0
  3  4  1  0
  4  5  1  1
  4  6  1  0
  6  7  1  0
  7  8  1  0
  8  9  1  0
  9 10  1  0
 10 11  1  0
 11 12  1  0
 12 13  1  0
 13 14  1  0
 14 15  2  0
 15 16  1  0
 16 17  2  0
 17 18  1  0
 18 19  1  0
 19 20  1  0
 19 21  1  0
 19 22  1  0
 18 23  2  0
 13 24  1  0
 24 25  1  0
  3 26  1  0
 26 27  2  0
 27 28  1  0
 28 29  1  0
 28  2  1  0
 25 10  1  0
 23 14  1  0
M  END
>  <ref_mols>  (1794) 
B0426a

>  <gnina_score>  (1794) 
5.474

>  <smina_score_min>  (1794) 
-5.571

>  <ref_pdb>  (1794) 
B0426a

>  <inspiration_score>  (1794) 
None

>  <inchikey>  (1794) 
QNIXFEHNPMYSAB-IBGZPJMESA-N

>  <tags>  (1794) 
BulkDock Fragalysis export,openbind_d68ev3c_c2_elabs_scored,openbind_d68ev3c_c2_elabs_scored_4.5plus,openbind_d68ev3c_c2_elabs,openbind_d68ev3c_c2_elabs_scored_5plus,syndirella_product,openbind_d68ev3c_c2_elabs_scored_top80percent,syndirella_placed

>  <smiles>  (1794) 
Cc1c([C@H](O)NCCCN2CCN(c3cccc(C(F)(F)F)c3)CC2)cnn1C

>  <subsites>  (1794) 
None

>  <rmsd(smina/fragmenstein)>  (1794) 
1.054

>  <alias>  (1794) 
None

>  <energy_score>  (1794) 
-34.752472

>  <HIPPO Pose ID>  (1794) 
131935

>  <distance_score>  (1794) 
0.614175

>  <HIPPO Compound ID>  (1794) 
157923

>  <gnina_score_min>  (1794) 
5.4

>  <name>  (1794) 
P131935

>  <exports>  (1794) 
['/opt/xchem-fragalysis-2/maxwin/BulkDock/OUTPUTS/openbind_d68ev3c_c2_elabs_1LOTQJ3.sdf', '/opt/xchem-fragalysis-2/maxwin/BulkDock/OUTPUTS/openbind_d68ev3c_c2_elabs_1LSYI5W.sdf']

$$$$
P131937
     RDKit          3D

 29 31  0  0  0  0  0  0  0  0999 V2000
  -16.2071    1.2636   11.6970 C   0  0  0  0  0  0  0  0  0  0  0  0
  -15.2343    1.0663   10.6222 N   0  0  0  0  0  0  0  0  0  0  0  0
  -13.9000    0.8432   11.1892 C   0  0  0  0  0  0  0  0  0  0  0  0
  -12.7683    0.5149   10.2176 C   0  0  0  0  0  0  0  0  0  0  0  0
  -12.3465    1.6582    9.2850 C   0  0  0  0  0  0  0  0  0  0  0  0
  -11.1495    1.3860    8.4626 N   0  0  0  0  0  0  0  0  0  0  0  0
  -11.2875    0.1352    7.6761 C   0  0  0  0  0  0  0  0  0  0  0  0
  -10.0384   -0.2311    6.8496 C   0  0  0  0  0  0  0  0  0  0  0  0
   -8.8406   -0.2656    7.7175 N   0  0  0  0  0  0  0  0  0  0  0  0
   -7.7394   -0.9817    7.2635 C   0  0  0  0  0  0  0  0  0  0  0  0
   -7.8914   -2.2894    6.7734 C   0  0  0  0  0  0  0  0  0  0  0  0
   -6.8055   -3.0429    6.3256 C   0  0  0  0  0  0  0  0  0  0  0  0
   -5.5268   -2.5065    6.3813 C   0  0  0  0  0  0  0  0  0  0  0  0
   -5.3265   -1.2235    6.8967 C   0  0  0  0  0  0  0  0  0  0  0  0
   -3.9369   -0.6692    6.9884 C   0  0  0  0  0  0  0  0  0  0  0  0
   -3.8817    0.6622    7.2747 F   0  0  0  0  0  0  0  0  0  0  0  0
   -3.2597   -0.8186    5.8155 F   0  0  0  0  0  0  0  0  0  0  0  0
   -3.1805   -1.2855    7.9365 F   0  0  0  0  0  0  0  0  0  0  0  0
   -6.4330   -0.4779    7.3282 C   0  0  0  0  0  0  0  0  0  0  0  0
   -8.6586    0.9875    8.4657 C   0  0  0  0  0  0  0  0  0  0  0  0
   -9.9238    1.3194    9.2817 C   0  0  0  0  0  0  0  0  0  0  0  0
  -15.6768    0.0098    9.7015 C   0  0  0  0  0  0  0  0  0  0  0  0
  -15.5767    0.5128    8.3070 C   0  0  0  0  0  0  0  0  0  0  0  0
  -16.0848    1.6861    7.7749 C   0  0  0  0  0  0  0  0  0  0  0  0
  -15.7104    1.7090    6.4629 N   0  0  0  0  0  0  0  0  0  0  0  0
  -15.9556    2.7752    5.5232 C   0  0  0  0  0  0  0  0  0  0  0  0
  -15.0414    0.6113    6.0787 N   0  0  0  0  0  0  0  0  0  0  0  0
  -14.9576   -0.1034    7.1997 C   0  0  0  0  0  0  0  0  0  0  0  0
  -14.3137   -1.2742    7.2527 F   0  0  0  0  0  0  0  0  0  0  0  0
  1  2  1  0
  2  3  1  0
  3  4  1  0
  4  5  1  0
  5  6  1  0
  6  7  1  0
  7  8  1  0
  8  9  1  0
  9 10  1  0
 10 11  2  0
 11 12  1  0
 12 13  2  0
 13 14  1  0
 14 15  1  0
 15 16  1  0
 15 17  1  0
 15 18  1  0
 14 19  2  0
  9 20  1  0
 20 21  1  0
  2 22  1  0
 22 23  1  0
 23 24  2  0
 24 25  1  0
 25 26  1  0
 25 27  1  0
 27 28  2  0
 28 29  1  0
 21  6  1  0
 28 23  1  0
 19 10  1  0
M  END
>  <ref_mols>  (1795) 
B0426a

>  <gnina_score>  (1795) 
5.717

>  <smina_score_min>  (1795) 
-5.826

>  <ref_pdb>  (1795) 
B0426a

>  <inspiration_score>  (1795) 
None

>  <inchikey>  (1795) 
NGJDJGFRPGOHTO-UHFFFAOYSA-N

>  <tags>  (1795) 
BulkDock Fragalysis export,openbind_d68ev3c_c2_elabs_scored,openbind_d68ev3c_c2_elabs_scored_4.5plus,openbind_d68ev3c_c2_elabs,openbind_d68ev3c_c2_elabs_scored_5plus,syndirella_product,openbind_d68ev3c_c2_elabs_scored_top80percent,syndirella_placed

>  <smiles>  (1795) 
CN(CCCN1CCN(c2cccc(C(F)(F)F)c2)CC1)Cc1cn(C)nc1F

>  <subsites>  (1795) 
None

>  <rmsd(smina/fragmenstein)>  (1795) 
0.862

>  <alias>  (1795) 
None

>  <energy_score>  (1795) 
-49.044859

>  <HIPPO Pose ID>  (1795) 
131937

>  <distance_score>  (1795) 
0.577456

>  <HIPPO Compound ID>  (1795) 
157924

>  <gnina_score_min>  (1795) 
5.463

>  <name>  (1795) 
P131937

>  <exports>  (1795) 
['/opt/xchem-fragalysis-2/maxwin/BulkDock/OUTPUTS/openbind_d68ev3c_c2_elabs_1LOTQJ3.sdf', '/opt/xchem-fragalysis-2/maxwin/BulkDock/OUTPUTS/openbind_d68ev3c_c2_elabs_1LSYI5W.sdf']

$$$$
P131938
     RDKit          3D

 29 31  0  0  0  0  0  0  0  0999 V2000
  -13.6606   -0.5690    4.2854 C   0  0  0  0  0  0  0  0  0  0  0  0
  -14.4136   -0.0094    5.3812 N   0  0  0  0  0  0  0  0  0  0  0  0
  -14.9947   -0.7008    6.4048 C   0  0  0  0  0  0  0  0  0  0  0  0
  -15.6593    0.2304    7.1800 C   0  0  0  0  0  0  0  0  0  0  0  0
  -16.4963   -0.0082    8.3803 C   0  0  0  0  0  0  0  0  0  0  0  0
  -15.9363    0.5582    9.6036 N   0  0  0  0  0  0  0  0  0  0  0  0
  -14.7830   -0.1858   10.0951 C   0  0  0  0  0  0  0  0  0  0  0  0
  -13.7042    0.7273   10.6717 C   0  0  0  0  0  0  0  0  0  0  0  0
  -13.2704    1.7903    9.6553 C   0  0  0  0  0  0  0  0  0  0  0  0
  -11.7875    2.1275    9.7111 C   0  0  0  0  0  0  0  0  0  0  0  0
  -10.9949    1.4491    8.6760 N   0  0  0  0  0  0  0  0  0  0  0  0
   -9.5958    1.9106    8.7699 C   0  0  0  0  0  0  0  0  0  0  0  0
   -8.6661    1.2496    7.7365 C   0  0  0  0  0  0  0  0  0  0  0  0
   -8.7082   -0.2200    7.8818 N   0  0  0  0  0  0  0  0  0  0  0  0
   -7.6710   -0.9574    7.3126 C   0  0  0  0  0  0  0  0  0  0  0  0
   -7.8689   -2.1542    6.6059 C   0  0  0  0  0  0  0  0  0  0  0  0
   -6.8031   -2.8828    6.0705 C   0  0  0  0  0  0  0  0  0  0  0  0
   -5.5033   -2.4233    6.2244 C   0  0  0  0  0  0  0  0  0  0  0  0
   -5.2614   -1.2483    6.9382 C   0  0  0  0  0  0  0  0  0  0  0  0
   -3.8621   -0.7451    7.1152 C   0  0  0  0  0  0  0  0  0  0  0  0
   -3.1726   -1.4078    8.0797 F   0  0  0  0  0  0  0  0  0  0  0  0
   -3.1380   -0.8826    5.9707 F   0  0  0  0  0  0  0  0  0  0  0  0
   -3.7856    0.5775    7.4359 F   0  0  0  0  0  0  0  0  0  0  0  0
   -6.3418   -0.5498    7.4918 C   0  0  0  0  0  0  0  0  0  0  0  0
  -10.0893   -0.7362    7.7815 C   0  0  0  0  0  0  0  0  0  0  0  0
  -11.0181   -0.0274    8.7934 C   0  0  0  0  0  0  0  0  0  0  0  0
  -15.3986    1.4490    6.5189 C   0  0  0  0  0  0  0  0  0  0  0  0
  -15.8682    2.6321    6.9391 F   0  0  0  0  0  0  0  0  0  0  0  0
  -14.6104    1.3225    5.4513 N   0  0  0  0  0  0  0  0  0  0  0  0
  1  2  1  0
  2  3  1  0
  3  4  2  0
  4  5  1  0
  5  6  1  0
  6  7  1  0
  7  8  1  0
  8  9  1  0
  9 10  1  0
 10 11  1  0
 11 12  1  0
 12 13  1  0
 13 14  1  0
 14 15  1  0
 15 16  2  0
 16 17  1  0
 17 18  2  0
 18 19  1  0
 19 20  1  0
 20 21  1  0
 20 22  1  0
 20 23  1  0
 19 24  2  0
 14 25  1  0
 25 26  1  0
  4 27  1  0
 27 28  1  0
 27 29  2  0
 29  2  1  0
 26 11  1  0
 24 15  1  0
M  END
>  <ref_mols>  (1796) 
B0426a

>  <gnina_score>  (1796) 
5.571

>  <smina_score_min>  (1796) 
-5.314

>  <ref_pdb>  (1796) 
B0426a

>  <inspiration_score>  (1796) 
None

>  <inchikey>  (1796) 
VQUROPVTNIBJFH-UHFFFAOYSA-N

>  <tags>  (1796) 
BulkDock Fragalysis export,openbind_d68ev3c_c2_elabs_scored,openbind_d68ev3c_c2_elabs_scored_4.5plus,openbind_d68ev3c_c2_elabs,openbind_d68ev3c_c2_elabs_scored_5plus,syndirella_product,openbind_d68ev3c_c2_elabs_scored_top80percent,syndirella_placed

>  <smiles>  (1796) 
Cn1cc(CNCCCCN2CCN(c3cccc(C(F)(F)F)c3)CC2)c(F)n1

>  <subsites>  (1796) 
None

>  <rmsd(smina/fragmenstein)>  (1796) 
0.419

>  <alias>  (1796) 
None

>  <energy_score>  (1796) 
-39.265186

>  <HIPPO Pose ID>  (1796) 
131938

>  <distance_score>  (1796) 
0.661269

>  <HIPPO Compound ID>  (1796) 
157925

>  <gnina_score_min>  (1796) 
5.468

>  <name>  (1796) 
P131938

>  <exports>  (1796) 
['/opt/xchem-fragalysis-2/maxwin/BulkDock/OUTPUTS/openbind_d68ev3c_c2_elabs_1LOTQJ3.sdf', '/opt/xchem-fragalysis-2/maxwin/BulkDock/OUTPUTS/openbind_d68ev3c_c2_elabs_1LSYI5W.sdf']

$$$$
P131939
     RDKit          3D

 29 31  0  0  0  0  0  0  0  0999 V2000
   -3.2487   -0.8354    6.0472 F   0  0  0  0  0  0  0  0  0  0  0  0
   -4.0155   -0.6945    7.1656 C   0  0  0  0  0  0  0  0  0  0  0  0
   -3.3574   -1.3571    8.1530 F   0  0  0  0  0  0  0  0  0  0  0  0
   -3.9438    0.6285    7.4877 F   0  0  0  0  0  0  0  0  0  0  0  0
   -5.4153   -1.1925    6.9491 C   0  0  0  0  0  0  0  0  0  0  0  0
   -5.6338   -2.3802    6.2492 C   0  0  0  0  0  0  0  0  0  0  0  0
   -6.9288   -2.8409    6.0619 C   0  0  0  0  0  0  0  0  0  0  0  0
   -8.0141   -2.1066    6.5529 C   0  0  0  0  0  0  0  0  0  0  0  0
   -7.8474   -0.9011    7.2522 C   0  0  0  0  0  0  0  0  0  0  0  0
   -8.9095   -0.1790    7.7853 N   0  0  0  0  0  0  0  0  0  0  0  0
   -8.8773    1.2925    7.7645 C   0  0  0  0  0  0  0  0  0  0  0  0
   -9.7502    1.8444    8.9079 C   0  0  0  0  0  0  0  0  0  0  0  0
  -11.1711    1.3997    8.8857 N   0  0  0  0  0  0  0  0  0  0  0  0
  -11.7968    1.8741   10.1347 C   0  0  0  0  0  0  0  0  0  0  0  0
  -13.3226    1.9107   10.2489 C   0  0  0  0  0  0  0  0  0  0  0  0
  -14.0149    0.7097   10.8943 C   0  0  0  0  0  0  0  0  0  0  0  0
  -14.6369   -0.3083   10.0652 N   0  0  0  0  0  0  0  0  0  0  0  0
  -15.6059    0.1569    9.0742 C   0  0  0  0  0  0  0  0  0  0  0  0
  -14.9428    0.3584    7.7532 C   0  0  0  0  0  0  0  0  0  0  0  0
  -14.4701   -0.6263    6.8469 C   0  0  0  0  0  0  0  0  0  0  0  0
  -13.8182   -0.0989    5.8063 N   0  0  0  0  0  0  0  0  0  0  0  0
  -13.8622    1.2207    6.0449 N   0  0  0  0  0  0  0  0  0  0  0  0
  -13.0288    2.1155    5.2690 C   0  0  0  0  0  0  0  0  0  0  0  0
  -13.7847    2.7970    4.1469 C   0  0  0  0  0  0  0  0  0  0  0  0
  -14.6764    4.2338    4.7228 Cl  0  0  0  0  0  0  0  0  0  0  0  0
  -14.6347    1.5468    7.1183 C   0  0  0  0  0  0  0  0  0  0  0  0
  -11.1800   -0.0846    8.8030 C   0  0  0  0  0  0  0  0  0  0  0  0
  -10.2993   -0.6786    7.6715 C   0  0  0  0  0  0  0  0  0  0  0  0
   -6.5198   -0.4867    7.4578 C   0  0  0  0  0  0  0  0  0  0  0  0
  1  2  1  0
  2  3  1  0
  2  4  1  0
  2  5  1  0
  5  6  2  0
  6  7  1  0
  7  8  2  0
  8  9  1  0
  9 10  1  0
 10 11  1  0
 11 12  1  0
 12 13  1  0
 13 14  1  0
 14 15  1  0
 15 16  1  0
 16 17  1  0
 17 18  1  0
 18 19  1  0
 19 20  1  0
 20 21  2  0
 21 22  1  0
 22 23  1  0
 23 24  1  0
 24 25  1  0
 22 26  1  0
 13 27  1  0
 27 28  1  0
  9 29  2  0
 29  5  1  0
 28 10  1  0
 26 19  2  0
M  END
>  <ref_mols>  (1797) 
B0426a

>  <gnina_score>  (1797) 
5.581

>  <smina_score_min>  (1797) 
-5.221

>  <ref_pdb>  (1797) 
B0426a

>  <inspiration_score>  (1797) 
None

>  <inchikey>  (1797) 
SPPFUDCASZVMIR-UHFFFAOYSA-N

>  <tags>  (1797) 
BulkDock Fragalysis export,openbind_d68ev3c_c2_elabs_scored,openbind_d68ev3c_c2_elabs_scored_4.5plus,openbind_d68ev3c_c2_elabs,openbind_d68ev3c_c2_elabs_scored_5plus,syndirella_product,openbind_d68ev3c_c2_elabs_scored_top80percent,syndirella_placed

>  <smiles>  (1797) 
FC(F)(F)c1cccc(N2CCN(CCCNCc3cnn(CCCl)c3)CC2)c1

>  <subsites>  (1797) 
None

>  <rmsd(smina/fragmenstein)>  (1797) 
1.465

>  <alias>  (1797) 
None

>  <energy_score>  (1797) 
-47.64966

>  <HIPPO Pose ID>  (1797) 
131939

>  <distance_score>  (1797) 
0.588251

>  <HIPPO Compound ID>  (1797) 
157926

>  <gnina_score_min>  (1797) 
5.734

>  <name>  (1797) 
P131939

>  <exports>  (1797) 
['/opt/xchem-fragalysis-2/maxwin/BulkDock/OUTPUTS/openbind_d68ev3c_c2_elabs_1LOTQJ3.sdf', '/opt/xchem-fragalysis-2/maxwin/BulkDock/OUTPUTS/openbind_d68ev3c_c2_elabs_1LSYI5W.sdf']

$$$$
P131940
     RDKit          3D

 29 31  0  0  0  0  0  0  0  0999 V2000
  -15.3545    0.9847   12.2031 C   0  0  0  0  0  0  0  0  0  0  0  0
  -14.9436    0.8644   10.8074 N   0  0  0  0  0  0  0  0  0  0  0  0
  -13.5640    0.3777   10.6881 C   0  0  0  0  0  0  0  0  0  0  0  0
  -12.5926    1.5430   10.4976 C   0  0  0  0  0  0  0  0  0  0  0  0
  -12.3620    1.9809    9.0428 C   0  0  0  0  0  0  0  0  0  0  0  0
  -11.2538    1.3562    8.2996 N   0  0  0  0  0  0  0  0  0  0  0  0
   -9.9293    1.7361    8.8213 C   0  0  0  0  0  0  0  0  0  0  0  0
   -8.7695    1.1599    7.9752 C   0  0  0  0  0  0  0  0  0  0  0  0
   -8.8639   -0.3137    7.8319 N   0  0  0  0  0  0  0  0  0  0  0  0
   -7.7602   -1.0109    7.3172 C   0  0  0  0  0  0  0  0  0  0  0  0
   -7.8817   -2.2564    6.6720 C   0  0  0  0  0  0  0  0  0  0  0  0
   -6.7791   -2.9621    6.1795 C   0  0  0  0  0  0  0  0  0  0  0  0
   -5.5041   -2.4421    6.3247 C   0  0  0  0  0  0  0  0  0  0  0  0
   -5.3249   -1.2254    6.9829 C   0  0  0  0  0  0  0  0  0  0  0  0
   -3.9404   -0.6774    7.1640 C   0  0  0  0  0  0  0  0  0  0  0  0
   -3.9027    0.6507    7.4667 F   0  0  0  0  0  0  0  0  0  0  0  0
   -3.2415   -1.3075    8.1447 F   0  0  0  0  0  0  0  0  0  0  0  0
   -3.1977   -0.8131    6.0300 F   0  0  0  0  0  0  0  0  0  0  0  0
   -6.4466   -0.5391    7.4811 C   0  0  0  0  0  0  0  0  0  0  0  0
  -10.2161   -0.7470    7.3959 C   0  0  0  0  0  0  0  0  0  0  0  0
  -11.3296   -0.1134    8.2542 C   0  0  0  0  0  0  0  0  0  0  0  0
  -15.8956    0.0670   10.0353 C   0  0  0  0  0  0  0  0  0  0  0  0
  -15.8531    0.5110    8.6155 C   0  0  0  0  0  0  0  0  0  0  0  0
  -15.2640   -0.1335    7.5438 C   0  0  0  0  0  0  0  0  0  0  0  0
  -15.4334    0.6761    6.4608 N   0  0  0  0  0  0  0  0  0  0  0  0
  -14.9081    0.4513    5.1369 C   0  0  0  0  0  0  0  0  0  0  0  0
  -16.1634    1.7721    6.7239 N   0  0  0  0  0  0  0  0  0  0  0  0
  -16.3995    1.6827    8.0337 C   0  0  0  0  0  0  0  0  0  0  0  0
  -17.4702    3.1662    9.0276 I   0  0  0  0  0  0  0  0  0  0  0  0
  1  2  1  0
  2  3  1  0
  3  4  1  0
  4  5  1  0
  5  6  1  0
  6  7  1  0
  7  8  1  0
  8  9  1  0
  9 10  1  0
 10 11  2  0
 11 12  1  0
 12 13  2  0
 13 14  1  0
 14 15  1  0
 15 16  1  0
 15 17  1  0
 15 18  1  0
 14 19  2  0
  9 20  1  0
 20 21  1  0
  2 22  1  0
 22 23  1  0
 23 24  2  0
 24 25  1  0
 25 26  1  0
 25 27  1  0
 27 28  2  0
 28 29  1  0
 21  6  1  0
 28 23  1  0
 19 10  1  0
M  END
>  <ref_mols>  (1798) 
B0426a

>  <gnina_score>  (1798) 
5.732

>  <smina_score_min>  (1798) 
-5.696

>  <ref_pdb>  (1798) 
B0426a

>  <inspiration_score>  (1798) 
None

>  <inchikey>  (1798) 
WITLOKHLWMXHCL-UHFFFAOYSA-N

>  <tags>  (1798) 
BulkDock Fragalysis export,openbind_d68ev3c_c2_elabs_scored,openbind_d68ev3c_c2_elabs_scored_4.5plus,openbind_d68ev3c_c2_elabs,openbind_d68ev3c_c2_elabs_scored_5plus,syndirella_product,openbind_d68ev3c_c2_elabs_scored_top80percent,syndirella_placed

>  <smiles>  (1798) 
CN(CCCN1CCN(c2cccc(C(F)(F)F)c2)CC1)Cc1cn(C)nc1I

>  <subsites>  (1798) 
None

>  <rmsd(smina/fragmenstein)>  (1798) 
0.618

>  <alias>  (1798) 
None

>  <energy_score>  (1798) 
-67.802361

>  <HIPPO Pose ID>  (1798) 
131940

>  <distance_score>  (1798) 
0.541158

>  <HIPPO Compound ID>  (1798) 
157927

>  <gnina_score_min>  (1798) 
5.667

>  <name>  (1798) 
P131940

>  <exports>  (1798) 
['/opt/xchem-fragalysis-2/maxwin/BulkDock/OUTPUTS/openbind_d68ev3c_c2_elabs_1LOTQJ3.sdf', '/opt/xchem-fragalysis-2/maxwin/BulkDock/OUTPUTS/openbind_d68ev3c_c2_elabs_1LSYI5W.sdf']

$$$$
P131941
     RDKit          3D

 29 31  0  0  0  0  0  0  0  0999 V2000
  -13.0475    5.0834   12.6541 C   0  0  0  0  0  0  0  0  0  0  0  0
  -14.0402    4.1129   12.2598 N   0  0  0  0  0  0  0  0  0  0  0  0
  -14.0639    2.7853   12.5721 C   0  0  0  0  0  0  0  0  0  0  0  0
  -15.1895    2.2511   11.9644 C   0  0  0  0  0  0  0  0  0  0  0  0
  -15.6456    0.8333   12.0332 C   0  0  0  0  0  0  0  0  0  0  0  0
  -14.8992   -0.0343   11.1370 N   0  0  0  0  0  0  0  0  0  0  0  0
  -15.3132    0.0930    9.7436 C   0  0  0  0  0  0  0  0  0  0  0  0
  -14.1227    0.2719    8.8072 C   0  0  0  0  0  0  0  0  0  0  0  0
  -13.2846    1.5042    9.1727 C   0  0  0  0  0  0  0  0  0  0  0  0
  -12.3613    2.0261    8.0764 C   0  0  0  0  0  0  0  0  0  0  0  0
  -11.1268    1.3137    7.7808 N   0  0  0  0  0  0  0  0  0  0  0  0
  -11.3067   -0.0995    7.4300 C   0  0  0  0  0  0  0  0  0  0  0  0
  -10.0175   -0.7037    6.8595 C   0  0  0  0  0  0  0  0  0  0  0  0
   -8.8791   -0.5476    7.8003 N   0  0  0  0  0  0  0  0  0  0  0  0
   -7.7089   -1.2010    7.3757 C   0  0  0  0  0  0  0  0  0  0  0  0
   -7.7679   -2.5070    6.8565 C   0  0  0  0  0  0  0  0  0  0  0  0
   -6.6405   -3.1622    6.3651 C   0  0  0  0  0  0  0  0  0  0  0  0
   -5.4036   -2.5400    6.4269 C   0  0  0  0  0  0  0  0  0  0  0  0
   -5.2860   -1.2713    6.9990 C   0  0  0  0  0  0  0  0  0  0  0  0
   -3.9331   -0.6341    7.1028 C   0  0  0  0  0  0  0  0  0  0  0  0
   -3.9633    0.6983    7.3858 F   0  0  0  0  0  0  0  0  0  0  0  0
   -3.2392   -0.7467    5.9366 F   0  0  0  0  0  0  0  0  0  0  0  0
   -3.1517   -1.2029    8.0592 F   0  0  0  0  0  0  0  0  0  0  0  0
   -6.4359   -0.6195    7.4704 C   0  0  0  0  0  0  0  0  0  0  0  0
   -8.7551    0.8248    8.3463 C   0  0  0  0  0  0  0  0  0  0  0  0
  -10.1060    1.3962    8.8378 C   0  0  0  0  0  0  0  0  0  0  0  0
  -15.7779    3.3756   11.3245 C   0  0  0  0  0  0  0  0  0  0  0  0
  -17.5407    3.4232   10.2015 I   0  0  0  0  0  0  0  0  0  0  0  0
  -15.0795    4.4988   11.5031 N   0  0  0  0  0  0  0  0  0  0  0  0
  1  2  1  0
  2  3  1  0
  3  4  2  0
  4  5  1  0
  5  6  1  0
  6  7  1  0
  7  8  1  0
  8  9  1  0
  9 10  1  0
 10 11  1  0
 11 12  1  0
 12 13  1  0
 13 14  1  0
 14 15  1  0
 15 16  2  0
 16 17  1  0
 17 18  2  0
 18 19  1  0
 19 20  1  0
 20 21  1  0
 20 22  1  0
 20 23  1  0
 19 24  2  0
 14 25  1  0
 25 26  1  0
  4 27  1  0
 27 28  1  0
 27 29  2  0
 29  2  1  0
 26 11  1  0
 24 15  1  0
M  END
>  <ref_mols>  (1799) 
B0426a

>  <gnina_score>  (1799) 
5.664

>  <smina_score_min>  (1799) 
-5.889

>  <ref_pdb>  (1799) 
B0426a

>  <inspiration_score>  (1799) 
None

>  <inchikey>  (1799) 
IWKNJESUZLFACE-UHFFFAOYSA-N

>  <tags>  (1799) 
BulkDock Fragalysis export,openbind_d68ev3c_c2_elabs_scored,openbind_d68ev3c_c2_elabs_scored_4.5plus,openbind_d68ev3c_c2_elabs,openbind_d68ev3c_c2_elabs_scored_5plus,syndirella_product,openbind_d68ev3c_c2_elabs_scored_top80percent,syndirella_placed

>  <smiles>  (1799) 
Cn1cc(CNCCCCN2CCN(c3cccc(C(F)(F)F)c3)CC2)c(I)n1

>  <subsites>  (1799) 
None

>  <rmsd(smina/fragmenstein)>  (1799) 
0.842

>  <alias>  (1799) 
None

>  <energy_score>  (1799) 
-45.483974

>  <HIPPO Pose ID>  (1799) 
131941

>  <distance_score>  (1799) 
0.663756

>  <HIPPO Compound ID>  (1799) 
157928

>  <gnina_score_min>  (1799) 
5.579

>  <name>  (1799) 
P131941

>  <exports>  (1799) 
['/opt/xchem-fragalysis-2/maxwin/BulkDock/OUTPUTS/openbind_d68ev3c_c2_elabs_1LOTQJ3.sdf', '/opt/xchem-fragalysis-2/maxwin/BulkDock/OUTPUTS/openbind_d68ev3c_c2_elabs_1LSYI5W.sdf']

$$$$
P131942
     RDKit          3D

 29 31  0  0  0  0  0  0  0  0999 V2000
  -18.8749    2.4615    5.5545 C   0  0  0  0  0  0  0  0  0  0  0  0
  -17.4442    2.5847    6.0476 C   0  0  0  0  0  0  0  0  0  0  0  0
  -17.0994    1.5742    7.0233 N   0  0  0  0  0  0  0  0  0  0  0  0
  -16.9980    0.2805    6.6610 N   0  0  0  0  0  0  0  0  0  0  0  0
  -16.6001   -0.3230    7.7843 C   0  0  0  0  0  0  0  0  0  0  0  0
  -16.4845    0.5608    8.8852 C   0  0  0  0  0  0  0  0  0  0  0  0
  -16.1502    0.2548   10.2966 C   0  0  0  0  0  0  0  0  0  0  0  0
  -14.8544   -0.3854   10.4382 N   0  0  0  0  0  0  0  0  0  0  0  0
  -13.7247    0.5267   10.5838 C   0  0  0  0  0  0  0  0  0  0  0  0
  -13.4827    1.4512    9.3887 C   0  0  0  0  0  0  0  0  0  0  0  0
  -12.0584    2.0168    9.3786 C   0  0  0  0  0  0  0  0  0  0  0  0
  -11.1375    1.3286    8.4617 N   0  0  0  0  0  0  0  0  0  0  0  0
  -11.0698   -0.1342    8.6815 C   0  0  0  0  0  0  0  0  0  0  0  0
  -10.0753   -0.8319    7.7355 C   0  0  0  0  0  0  0  0  0  0  0  0
   -8.7241   -0.2507    7.8642 N   0  0  0  0  0  0  0  0  0  0  0  0
   -7.6614   -0.9655    7.3032 C   0  0  0  0  0  0  0  0  0  0  0  0
   -7.8278   -2.1715    6.5990 C   0  0  0  0  0  0  0  0  0  0  0  0
   -6.7453   -2.8872    6.0829 C   0  0  0  0  0  0  0  0  0  0  0  0
   -5.4574   -2.4063    6.2552 C   0  0  0  0  0  0  0  0  0  0  0  0
   -5.2462   -1.2197    6.9614 C   0  0  0  0  0  0  0  0  0  0  0  0
   -3.8545   -0.7035    7.1539 C   0  0  0  0  0  0  0  0  0  0  0  0
   -3.1122   -0.8559    6.0234 F   0  0  0  0  0  0  0  0  0  0  0  0
   -3.1758   -1.3459    8.1393 F   0  0  0  0  0  0  0  0  0  0  0  0
   -3.7926    0.6245    7.4533 F   0  0  0  0  0  0  0  0  0  0  0  0
   -6.3441   -0.5286    7.4917 C   0  0  0  0  0  0  0  0  0  0  0  0
   -8.7325    1.2170    7.6850 C   0  0  0  0  0  0  0  0  0  0  0  0
   -9.7728    1.8811    8.6161 C   0  0  0  0  0  0  0  0  0  0  0  0
  -16.8375    1.7749    8.3433 C   0  0  0  0  0  0  0  0  0  0  0  0
  -16.9032    2.9429    8.9971 F   0  0  0  0  0  0  0  0  0  0  0  0
  1  2  1  0
  2  3  1  0
  3  4  1  0
  4  5  2  0
  5  6  1  0
  6  7  1  0
  7  8  1  0
  8  9  1  0
  9 10  1  0
 10 11  1  0
 11 12  1  0
 12 13  1  0
 13 14  1  0
 14 15  1  0
 15 16  1  0
 16 17  2  0
 17 18  1  0
 18 19  2  0
 19 20  1  0
 20 21  1  0
 21 22  1  0
 21 23  1  0
 21 24  1  0
 20 25  2  0
 15 26  1  0
 26 27  1  0
  6 28  2  0
 28 29  1  0
 28  3  1  0
 27 12  1  0
 25 16  1  0
M  END
>  <ref_mols>  (1800) 
B0426a

>  <gnina_score>  (1800) 
5.451

>  <smina_score_min>  (1800) 
-5.736

>  <ref_pdb>  (1800) 
B0426a

>  <inspiration_score>  (1800) 
None

>  <inchikey>  (1800) 
VRMWDGTYGRXMMR-UHFFFAOYSA-N

>  <tags>  (1800) 
BulkDock Fragalysis export,openbind_d68ev3c_c2_elabs_scored,openbind_d68ev3c_c2_elabs_scored_4.5plus,openbind_d68ev3c_c2_elabs,openbind_d68ev3c_c2_elabs_scored_5plus,syndirella_product,openbind_d68ev3c_c2_elabs_scored_top80percent,syndirella_placed

>  <smiles>  (1800) 
CCn1ncc(CNCCCN2CCN(c3cccc(C(F)(F)F)c3)CC2)c1F

>  <subsites>  (1800) 
None

>  <rmsd(smina/fragmenstein)>  (1800) 
1.332

>  <alias>  (1800) 
None

>  <energy_score>  (1800) 
-71.286516

>  <HIPPO Pose ID>  (1800) 
131942

>  <distance_score>  (1800) 
0.588189

>  <HIPPO Compound ID>  (1800) 
157929

>  <gnina_score_min>  (1800) 
5.294

>  <name>  (1800) 
P131942

>  <exports>  (1800) 
['/opt/xchem-fragalysis-2/maxwin/BulkDock/OUTPUTS/openbind_d68ev3c_c2_elabs_1LOTQJ3.sdf', '/opt/xchem-fragalysis-2/maxwin/BulkDock/OUTPUTS/openbind_d68ev3c_c2_elabs_1LSYI5W.sdf']

$$$$
P131943
     RDKit          3D

 29 31  0  0  0  0  0  0  0  0999 V2000
  -16.5056    3.3010    6.2774 C   0  0  0  0  0  0  0  0  0  0  0  0
  -16.4017    2.6979    7.5827 N   0  0  0  0  0  0  0  0  0  0  0  0
  -16.6061    3.4557    8.6754 N   0  0  0  0  0  0  0  0  0  0  0  0
  -16.4061    2.6031    9.6833 C   0  0  0  0  0  0  0  0  0  0  0  0
  -16.0583    1.2969    9.2522 C   0  0  0  0  0  0  0  0  0  0  0  0
  -15.7872    0.1238   10.1162 C   0  0  2  0  0  0  0  0  0  0  0  0
  -16.2149    0.3186   11.4486 O   0  0  0  0  0  0  0  0  0  0  0  0
  -14.4071   -0.2871   10.1113 N   0  0  0  0  0  0  0  0  0  0  0  0
  -13.4034    0.5133   10.7950 C   0  0  0  0  0  0  0  0  0  0  0  0
  -12.9733    1.8467   10.1908 C   0  0  0  0  0  0  0  0  0  0  0  0
  -12.5543    1.9143    8.7186 C   0  0  0  0  0  0  0  0  0  0  0  0
  -11.3467    1.2511    8.2388 N   0  0  0  0  0  0  0  0  0  0  0  0
  -11.4987   -0.1912    8.0084 C   0  0  0  0  0  0  0  0  0  0  0  0
  -10.2847   -0.7860    7.2632 C   0  0  0  0  0  0  0  0  0  0  0  0
   -8.9989   -0.4885    7.9493 N   0  0  0  0  0  0  0  0  0  0  0  0
   -7.8604   -1.1343    7.4316 C   0  0  0  0  0  0  0  0  0  0  0  0
   -7.9307   -2.4344    6.8979 C   0  0  0  0  0  0  0  0  0  0  0  0
   -6.8138   -3.0942    6.3769 C   0  0  0  0  0  0  0  0  0  0  0  0
   -5.5710   -2.4810    6.4060 C   0  0  0  0  0  0  0  0  0  0  0  0
   -5.4367   -1.2107    6.9689 C   0  0  0  0  0  0  0  0  0  0  0  0
   -4.0769   -0.5780    7.0508 C   0  0  0  0  0  0  0  0  0  0  0  0
   -3.3805   -0.7116    5.8861 F   0  0  0  0  0  0  0  0  0  0  0  0
   -4.0996    0.7595    7.3112 F   0  0  0  0  0  0  0  0  0  0  0  0
   -3.2937   -1.1321    8.0156 F   0  0  0  0  0  0  0  0  0  0  0  0
   -6.5773   -0.5581    7.4738 C   0  0  0  0  0  0  0  0  0  0  0  0
   -8.8733    0.9288    8.3632 C   0  0  0  0  0  0  0  0  0  0  0  0
  -10.1462    1.4718    9.0549 C   0  0  0  0  0  0  0  0  0  0  0  0
  -16.1232    1.3933    7.8758 C   0  0  0  0  0  0  0  0  0  0  0  0
  -15.8575   -0.0230    6.6313 Br  0  0  0  0  0  0  0  0  0  0  0  0
  1  2  1  0
  2  3  1  0
  3  4  2  0
  4  5  1  0
  5  6  1  0
  6  7  1  1
  6  8  1  0
  8  9  1  0
  9 10  1  0
 10 11  1  0
 11 12  1  0
 12 13  1  0
 13 14  1  0
 14 15  1  0
 15 16  1  0
 16 17  2  0
 17 18  1  0
 18 19  2  0
 19 20  1  0
 20 21  1  0
 21 22  1  0
 21 23  1  0
 21 24  1  0
 20 25  2  0
 15 26  1  0
 26 27  1  0
  5 28  2  0
 28 29  1  0
 28  2  1  0
 27 12  1  0
 25 16  1  0
M  END
>  <ref_mols>  (1801) 
B0426a

>  <gnina_score>  (1801) 
5.476

>  <smina_score_min>  (1801) 
-5.804

>  <ref_pdb>  (1801) 
B0426a

>  <inspiration_score>  (1801) 
None

>  <inchikey>  (1801) 
LANCYHAZSCHWAR-SFHVURJKSA-N

>  <tags>  (1801) 
BulkDock Fragalysis export,openbind_d68ev3c_c2_elabs_scored,openbind_d68ev3c_c2_elabs_scored_4.5plus,openbind_d68ev3c_c2_elabs,openbind_d68ev3c_c2_elabs_scored_5plus,syndirella_product,openbind_d68ev3c_c2_elabs_scored_top80percent,syndirella_placed

>  <smiles>  (1801) 
Cn1ncc([C@H](O)NCCCN2CCN(c3cccc(C(F)(F)F)c3)CC2)c1Br

>  <subsites>  (1801) 
None

>  <rmsd(smina/fragmenstein)>  (1801) 
0.866

>  <alias>  (1801) 
None

>  <energy_score>  (1801) 
-50.715146

>  <HIPPO Pose ID>  (1801) 
131943

>  <distance_score>  (1801) 
0.559144

>  <HIPPO Compound ID>  (1801) 
157930

>  <gnina_score_min>  (1801) 
5.413

>  <name>  (1801) 
P131943

>  <exports>  (1801) 
['/opt/xchem-fragalysis-2/maxwin/BulkDock/OUTPUTS/openbind_d68ev3c_c2_elabs_1LOTQJ3.sdf', '/opt/xchem-fragalysis-2/maxwin/BulkDock/OUTPUTS/openbind_d68ev3c_c2_elabs_1LSYI5W.sdf']

$$$$
P131945
     RDKit          3D

 29 31  0  0  0  0  0  0  0  0999 V2000
  -13.7306    0.9875   12.8321 C   0  0  0  0  0  0  0  0  0  0  0  0
  -14.4406    1.3220   11.6515 O   0  0  0  0  0  0  0  0  0  0  0  0
  -15.2800    0.2889   11.1636 C   0  0  2  0  0  0  0  0  0  0  0  0
  -15.4769    0.3960    9.7201 N   0  0  0  0  0  0  0  0  0  0  0  0
  -14.2308    0.3816    8.9482 C   0  0  0  0  0  0  0  0  0  0  0  0
  -13.3289    1.5953    9.2051 C   0  0  0  0  0  0  0  0  0  0  0  0
  -12.4344    2.0039    8.0377 C   0  0  0  0  0  0  0  0  0  0  0  0
  -11.2135    1.2547    7.7658 N   0  0  0  0  0  0  0  0  0  0  0  0
  -11.4050   -0.1877    7.5874 C   0  0  0  0  0  0  0  0  0  0  0  0
  -10.1396   -0.8580    7.0301 C   0  0  0  0  0  0  0  0  0  0  0  0
   -8.9319   -0.5737    7.8482 N   0  0  0  0  0  0  0  0  0  0  0  0
   -7.7607   -1.2142    7.3936 C   0  0  0  0  0  0  0  0  0  0  0  0
   -7.8040   -2.5069    6.8392 C   0  0  0  0  0  0  0  0  0  0  0  0
   -6.6678   -3.1442    6.3394 C   0  0  0  0  0  0  0  0  0  0  0  0
   -5.4346   -2.5175    6.4190 C   0  0  0  0  0  0  0  0  0  0  0  0
   -5.3292   -1.2607    7.0175 C   0  0  0  0  0  0  0  0  0  0  0  0
   -3.9810   -0.6155    7.1445 C   0  0  0  0  0  0  0  0  0  0  0  0
   -4.0249    0.7191    7.4152 F   0  0  0  0  0  0  0  0  0  0  0  0
   -3.2588   -0.7329    5.9954 F   0  0  0  0  0  0  0  0  0  0  0  0
   -3.2174   -1.1719    8.1224 F   0  0  0  0  0  0  0  0  0  0  0  0
   -6.4875   -0.6298    7.5023 C   0  0  0  0  0  0  0  0  0  0  0  0
   -8.8168    0.8430    8.2751 C   0  0  0  0  0  0  0  0  0  0  0  0
  -10.1523    1.4457    8.7676 C   0  0  0  0  0  0  0  0  0  0  0  0
  -16.6323    0.3939   11.7978 C   0  0  0  0  0  0  0  0  0  0  0  0
  -17.6029    1.4068   11.5968 C   0  0  0  0  0  0  0  0  0  0  0  0
  -18.7170    1.2101   12.3086 N   0  0  0  0  0  0  0  0  0  0  0  0
  -18.4583    0.0821   12.9885 N   0  0  0  0  0  0  0  0  0  0  0  0
  -19.4637   -0.4667   13.8653 C   0  0  0  0  0  0  0  0  0  0  0  0
  -17.2199   -0.4294   12.7384 C   0  0  0  0  0  0  0  0  0  0  0  0
  1  2  1  0
  2  3  1  0
  3  4  1  6
  4  5  1  0
  5  6  1  0
  6  7  1  0
  7  8  1  0
  8  9  1  0
  9 10  1  0
 10 11  1  0
 11 12  1  0
 12 13  2  0
 13 14  1  0
 14 15  2  0
 15 16  1  0
 16 17  1  0
 17 18  1  0
 17 19  1  0
 17 20  1  0
 16 21  2  0
 11 22  1  0
 22 23  1  0
  3 24  1  0
 24 25  1  0
 25 26  2  0
 26 27  1  0
 27 28  1  0
 27 29  1  0
 23  8  1  0
 29 24  2  0
 21 12  1  0
M  END
>  <ref_mols>  (1802) 
B0426a

>  <gnina_score>  (1802) 
5.362

>  <smina_score_min>  (1802) 
-5.934

>  <ref_pdb>  (1802) 
B0426a

>  <inspiration_score>  (1802) 
None

>  <inchikey>  (1802) 
PQILYKWBTINUPW-IBGZPJMESA-N

>  <tags>  (1802) 
BulkDock Fragalysis export,openbind_d68ev3c_c2_elabs_scored,openbind_d68ev3c_c2_elabs_scored_4.5plus,openbind_d68ev3c_c2_elabs,openbind_d68ev3c_c2_elabs_scored_5plus,syndirella_product,openbind_d68ev3c_c2_elabs_scored_top80percent,syndirella_placed

>  <smiles>  (1802) 
CO[C@H](NCCCN1CCN(c2cccc(C(F)(F)F)c2)CC1)c1cnn(C)c1

>  <subsites>  (1802) 
None

>  <rmsd(smina/fragmenstein)>  (1802) 
0.868

>  <alias>  (1802) 
None

>  <energy_score>  (1802) 
-34.905866

>  <HIPPO Pose ID>  (1802) 
131945

>  <distance_score>  (1802) 
0.546728

>  <HIPPO Compound ID>  (1802) 
157931

>  <gnina_score_min>  (1802) 
5.446

>  <name>  (1802) 
P131945

>  <exports>  (1802) 
['/opt/xchem-fragalysis-2/maxwin/BulkDock/OUTPUTS/openbind_d68ev3c_c2_elabs_1LOTQJ3.sdf', '/opt/xchem-fragalysis-2/maxwin/BulkDock/OUTPUTS/openbind_d68ev3c_c2_elabs_1LSYI5W.sdf']

$$$$
P131947
     RDKit          3D

 29 31  0  0  0  0  0  0  0  0999 V2000
  -13.5784    2.0348   15.0411 C   0  0  0  0  0  0  0  0  0  0  0  0
  -13.7774    1.1934   13.9138 N   0  0  0  0  0  0  0  0  0  0  0  0
  -14.8495    1.2944   13.0962 C   0  0  0  0  0  0  0  0  0  0  0  0
  -14.3587    0.9450   11.8621 C   0  0  0  0  0  0  0  0  0  0  0  0
  -15.0501    1.1678   10.5999 C   0  0  0  0  0  0  0  0  0  0  0  0
  -15.3533   -0.1161   10.0290 N   0  0  0  0  0  0  0  0  0  0  0  0
  -15.6655    0.0054    8.6156 C   0  0  0  0  0  0  0  0  0  0  0  0
  -14.3924    0.1248    7.7721 C   0  0  0  0  0  0  0  0  0  0  0  0
  -13.8734    1.5540    7.5246 C   0  0  0  0  0  0  0  0  0  0  0  0
  -12.5015    1.9575    8.1033 C   0  0  0  0  0  0  0  0  0  0  0  0
  -11.2926    1.4441    7.4359 N   0  0  0  0  0  0  0  0  0  0  0  0
  -11.3217   -0.0092    7.2083 C   0  0  0  0  0  0  0  0  0  0  0  0
  -10.0301   -0.5805    6.6155 C   0  0  0  0  0  0  0  0  0  0  0  0
   -8.8711   -0.2733    7.4800 N   0  0  0  0  0  0  0  0  0  0  0  0
   -7.7126   -1.0112    7.1980 C   0  0  0  0  0  0  0  0  0  0  0  0
   -7.7860   -2.3730    6.8467 C   0  0  0  0  0  0  0  0  0  0  0  0
   -6.6620   -3.1156    6.4885 C   0  0  0  0  0  0  0  0  0  0  0  0
   -5.4099   -2.5268    6.5398 C   0  0  0  0  0  0  0  0  0  0  0  0
   -5.2777   -1.2033    6.9651 C   0  0  0  0  0  0  0  0  0  0  0  0
   -3.9094   -0.6006    7.0558 C   0  0  0  0  0  0  0  0  0  0  0  0
   -3.2234   -0.7630    5.8907 F   0  0  0  0  0  0  0  0  0  0  0  0
   -3.9002    0.7386    7.3050 F   0  0  0  0  0  0  0  0  0  0  0  0
   -3.1412   -1.1678    8.0238 F   0  0  0  0  0  0  0  0  0  0  0  0
   -6.4258   -0.4624    7.2870 C   0  0  0  0  0  0  0  0  0  0  0  0
   -8.7588    1.1786    7.7409 C   0  0  0  0  0  0  0  0  0  0  0  0
  -10.0912    1.7861    8.2417 C   0  0  0  0  0  0  0  0  0  0  0  0
  -13.0598    0.4575   12.1209 C   0  0  0  0  0  0  0  0  0  0  0  0
  -11.8402   -0.2221   10.8936 Br  0  0  0  0  0  0  0  0  0  0  0  0
  -12.7275    0.5644   13.3999 N   0  0  0  0  0  0  0  0  0  0  0  0
  1  2  1  0
  2  3  1  0
  3  4  2  0
  4  5  1  0
  5  6  1  0
  6  7  1  0
  7  8  1  0
  8  9  1  0
  9 10  1  0
 10 11  1  0
 11 12  1  0
 12 13  1  0
 13 14  1  0
 14 15  1  0
 15 16  2  0
 16 17  1  0
 17 18  2  0
 18 19  1  0
 19 20  1  0
 20 21  1  0
 20 22  1  0
 20 23  1  0
 19 24  2  0
 14 25  1  0
 25 26  1  0
  4 27  1  0
 27 28  1  0
 27 29  2  0
 29  2  1  0
 26 11  1  0
 24 15  1  0
M  END
>  <ref_mols>  (1803) 
B0426a

>  <gnina_score>  (1803) 
5.983

>  <smina_score_min>  (1803) 
-5.857

>  <ref_pdb>  (1803) 
B0426a

>  <inspiration_score>  (1803) 
None

>  <inchikey>  (1803) 
RNPONKMAWUYPEO-UHFFFAOYSA-N

>  <tags>  (1803) 
BulkDock Fragalysis export,openbind_d68ev3c_c2_elabs_scored,openbind_d68ev3c_c2_elabs_scored_4.5plus,openbind_d68ev3c_c2_elabs,openbind_d68ev3c_c2_elabs_scored_5plus,syndirella_product,openbind_d68ev3c_c2_elabs_scored_top80percent,syndirella_placed

>  <smiles>  (1803) 
Cn1cc(CNCCCCN2CCN(c3cccc(C(F)(F)F)c3)CC2)c(Br)n1

>  <subsites>  (1803) 
None

>  <rmsd(smina/fragmenstein)>  (1803) 
1.041

>  <alias>  (1803) 
None

>  <energy_score>  (1803) 
-30.407444

>  <HIPPO Pose ID>  (1803) 
131947

>  <distance_score>  (1803) 
0.84591

>  <HIPPO Compound ID>  (1803) 
157932

>  <gnina_score_min>  (1803) 
5.721

>  <name>  (1803) 
P131947

>  <exports>  (1803) 
['/opt/xchem-fragalysis-2/maxwin/BulkDock/OUTPUTS/openbind_d68ev3c_c2_elabs_1LOTQJ3.sdf', '/opt/xchem-fragalysis-2/maxwin/BulkDock/OUTPUTS/openbind_d68ev3c_c2_elabs_1LSYI5W.sdf']

$$$$
P131948
     RDKit          3D

 29 31  0  0  0  0  0  0  0  0999 V2000
  -19.4026    0.8065    7.5812 C   0  0  0  0  0  0  0  0  0  0  0  0
  -18.8028   -0.5485    7.9244 C   0  0  0  0  0  0  0  0  0  0  0  0
  -17.3867   -0.6699    7.4673 C   0  0  0  0  0  0  0  0  0  0  0  0
  -17.1291   -1.2299    6.2723 N   0  0  0  0  0  0  0  0  0  0  0  0
  -15.7895   -1.0978    6.1506 N   0  0  0  0  0  0  0  0  0  0  0  0
  -15.1169   -1.5070    4.9412 C   0  0  0  0  0  0  0  0  0  0  0  0
  -15.1991   -0.5406    7.2394 C   0  0  0  0  0  0  0  0  0  0  0  0
  -16.1975   -0.2520    8.1483 C   0  0  0  0  0  0  0  0  0  0  0  0
  -16.0763    0.3660    9.5049 C   0  0  0  0  0  0  0  0  0  0  0  0
  -14.9467   -0.2063   10.2182 N   0  0  0  0  0  0  0  0  0  0  0  0
  -13.8720    0.6973   10.5993 C   0  0  0  0  0  0  0  0  0  0  0  0
  -13.4460    1.6962    9.5159 C   0  0  0  0  0  0  0  0  0  0  0  0
  -11.9739    2.1003    9.6136 C   0  0  0  0  0  0  0  0  0  0  0  0
  -11.1058    1.4235    8.6363 N   0  0  0  0  0  0  0  0  0  0  0  0
  -11.0815   -0.0491    8.8056 C   0  0  0  0  0  0  0  0  0  0  0  0
  -10.1173   -0.7479    7.8223 C   0  0  0  0  0  0  0  0  0  0  0  0
   -8.7474   -0.2010    7.9317 N   0  0  0  0  0  0  0  0  0  0  0  0
   -7.7032   -0.9250    7.3486 C   0  0  0  0  0  0  0  0  0  0  0  0
   -7.8953   -2.1276    6.6463 C   0  0  0  0  0  0  0  0  0  0  0  0
   -6.8293   -2.8544    6.1084 C   0  0  0  0  0  0  0  0  0  0  0  0
   -5.5314   -2.3899    6.2561 C   0  0  0  0  0  0  0  0  0  0  0  0
   -5.2926   -1.2077    6.9602 C   0  0  0  0  0  0  0  0  0  0  0  0
   -3.8905   -0.7089    7.1347 C   0  0  0  0  0  0  0  0  0  0  0  0
   -3.8088    0.6162    7.4431 F   0  0  0  0  0  0  0  0  0  0  0  0
   -3.2058   -1.3655    8.1073 F   0  0  0  0  0  0  0  0  0  0  0  0
   -3.1622   -0.8609    5.9941 F   0  0  0  0  0  0  0  0  0  0  0  0
   -6.3751   -0.5057    7.5115 C   0  0  0  0  0  0  0  0  0  0  0  0
   -8.7290    1.2700    7.7914 C   0  0  0  0  0  0  0  0  0  0  0  0
   -9.7216    1.9256    8.7762 C   0  0  0  0  0  0  0  0  0  0  0  0
  1  2  1  0
  2  3  1  0
  3  4  2  0
  4  5  1  0
  5  6  1  0
  5  7  1  0
  7  8  2  0
  8  9  1  0
  9 10  1  0
 10 11  1  0
 11 12  1  0
 12 13  1  0
 13 14  1  0
 14 15  1  0
 15 16  1  0
 16 17  1  0
 17 18  1  0
 18 19  2  0
 19 20  1  0
 20 21  2  0
 21 22  1  0
 22 23  1  0
 23 24  1  0
 23 25  1  0
 23 26  1  0
 22 27  2  0
 17 28  1  0
 28 29  1  0
  8  3  1  0
 29 14  1  0
 27 18  1  0
M  END
>  <ref_mols>  (1804) 
B0426a

>  <gnina_score>  (1804) 
5.618

>  <smina_score_min>  (1804) 
-5.994

>  <ref_pdb>  (1804) 
B0426a

>  <inspiration_score>  (1804) 
None

>  <inchikey>  (1804) 
IJBKXVYRGUMQFS-UHFFFAOYSA-N

>  <tags>  (1804) 
BulkDock Fragalysis export,openbind_d68ev3c_c2_elabs_scored,openbind_d68ev3c_c2_elabs_scored_4.5plus,openbind_d68ev3c_c2_elabs,openbind_d68ev3c_c2_elabs_scored_5plus,syndirella_product,openbind_d68ev3c_c2_elabs_scored_top80percent,syndirella_placed

>  <smiles>  (1804) 
CCc1nn(C)cc1CNCCCN1CCN(c2cccc(C(F)(F)F)c2)CC1

>  <subsites>  (1804) 
None

>  <rmsd(smina/fragmenstein)>  (1804) 
1.061

>  <alias>  (1804) 
None

>  <energy_score>  (1804) 
-62.2275

>  <HIPPO Pose ID>  (1804) 
131948

>  <distance_score>  (1804) 
0.600253

>  <HIPPO Compound ID>  (1804) 
157933

>  <gnina_score_min>  (1804) 
5.48

>  <name>  (1804) 
P131948

>  <exports>  (1804) 
['/opt/xchem-fragalysis-2/maxwin/BulkDock/OUTPUTS/openbind_d68ev3c_c2_elabs_1LOTQJ3.sdf', '/opt/xchem-fragalysis-2/maxwin/BulkDock/OUTPUTS/openbind_d68ev3c_c2_elabs_1LSYI5W.sdf']

$$$$
P131949
     RDKit          3D

 29 31  0  0  0  0  0  0  0  0999 V2000
  -15.0495    5.4369   12.3647 C   0  0  0  0  0  0  0  0  0  0  0  0
  -14.4075    4.4611   13.0224 C   0  0  0  0  0  0  0  0  0  0  0  0
  -14.4953    3.0795   12.8284 N   0  0  0  0  0  0  0  0  0  0  0  0
  -15.3239    2.4212   11.9331 C   0  0  0  0  0  0  0  0  0  0  0  0
  -14.9099    1.1050   11.8439 C   0  0  0  0  0  0  0  0  0  0  0  0
  -15.3808    0.0439   10.9062 C   0  0  0  0  0  0  0  0  0  0  0  0
  -15.6276    0.6293    9.5816 N   0  0  0  0  0  0  0  0  0  0  0  0
  -16.7314   -0.0293    8.8946 C   0  0  0  0  0  0  0  0  0  0  0  0
  -14.4239    0.6554    8.7278 C   0  0  0  0  0  0  0  0  0  0  0  0
  -13.3432    1.6087    9.2582 C   0  0  0  0  0  0  0  0  0  0  0  0
  -12.3628    2.1043    8.1961 C   0  0  0  0  0  0  0  0  0  0  0  0
  -11.1761    1.3166    7.8944 N   0  0  0  0  0  0  0  0  0  0  0  0
  -11.4194   -0.1041    7.6233 C   0  0  0  0  0  0  0  0  0  0  0  0
  -10.1615   -0.7966    7.0635 C   0  0  0  0  0  0  0  0  0  0  0  0
   -8.9548   -0.5830    7.9052 N   0  0  0  0  0  0  0  0  0  0  0  0
   -7.7919   -1.2208    7.4240 C   0  0  0  0  0  0  0  0  0  0  0  0
   -7.8509   -2.5050    6.8538 C   0  0  0  0  0  0  0  0  0  0  0  0
   -6.7224   -3.1421    6.3342 C   0  0  0  0  0  0  0  0  0  0  0  0
   -5.4840   -2.5220    6.4036 C   0  0  0  0  0  0  0  0  0  0  0  0
   -5.3637   -1.2722    7.0134 C   0  0  0  0  0  0  0  0  0  0  0  0
   -4.0109   -0.6327    7.1339 C   0  0  0  0  0  0  0  0  0  0  0  0
   -4.0492    0.7007    7.4127 F   0  0  0  0  0  0  0  0  0  0  0  0
   -3.2435   -1.1964    8.1049 F   0  0  0  0  0  0  0  0  0  0  0  0
   -3.2936   -0.7441    5.9805 F   0  0  0  0  0  0  0  0  0  0  0  0
   -6.5135   -0.6433    7.5214 C   0  0  0  0  0  0  0  0  0  0  0  0
   -8.8082    0.8030    8.4094 C   0  0  0  0  0  0  0  0  0  0  0  0
  -10.1303    1.4057    8.9267 C   0  0  0  0  0  0  0  0  0  0  0  0
  -13.9263    1.0179   12.8431 C   0  0  0  0  0  0  0  0  0  0  0  0
  -13.7537    2.1597   13.5034 N   0  0  0  0  0  0  0  0  0  0  0  0
  1  2  2  0
  2  3  1  0
  3  4  1  0
  4  5  2  0
  5  6  1  0
  6  7  1  0
  7  8  1  0
  7  9  1  0
  9 10  1  0
 10 11  1  0
 11 12  1  0
 12 13  1  0
 13 14  1  0
 14 15  1  0
 15 16  1  0
 16 17  2  0
 17 18  1  0
 18 19  2  0
 19 20  1  0
 20 21  1  0
 21 22  1  0
 21 23  1  0
 21 24  1  0
 20 25  2  0
 15 26  1  0
 26 27  1  0
  5 28  1  0
 28 29  2  0
 29  3  1  0
 27 12  1  0
 25 16  1  0
M  END
>  <ref_mols>  (1805) 
B0426a

>  <gnina_score>  (1805) 
5.719

>  <smina_score_min>  (1805) 
-5.994

>  <ref_pdb>  (1805) 
B0426a

>  <inspiration_score>  (1805) 
None

>  <inchikey>  (1805) 
LWLNPNQJAJYRHR-UHFFFAOYSA-N

>  <tags>  (1805) 
BulkDock Fragalysis export,openbind_d68ev3c_c2_elabs_scored,openbind_d68ev3c_c2_elabs_scored_4.5plus,openbind_d68ev3c_c2_elabs,openbind_d68ev3c_c2_elabs_scored_5plus,syndirella_product,openbind_d68ev3c_c2_elabs_scored_top80percent,syndirella_placed

>  <smiles>  (1805) 
C=Cn1cc(CN(C)CCCN2CCN(c3cccc(C(F)(F)F)c3)CC2)cn1

>  <subsites>  (1805) 
None

>  <rmsd(smina/fragmenstein)>  (1805) 
0.719

>  <alias>  (1805) 
None

>  <energy_score>  (1805) 
-45.66568

>  <HIPPO Pose ID>  (1805) 
131949

>  <distance_score>  (1805) 
0.572904

>  <HIPPO Compound ID>  (1805) 
157934

>  <gnina_score_min>  (1805) 
5.652

>  <name>  (1805) 
P131949

>  <exports>  (1805) 
['/opt/xchem-fragalysis-2/maxwin/BulkDock/OUTPUTS/openbind_d68ev3c_c2_elabs_1LOTQJ3.sdf', '/opt/xchem-fragalysis-2/maxwin/BulkDock/OUTPUTS/openbind_d68ev3c_c2_elabs_1LSYI5W.sdf']

$$$$
P131950
     RDKit          3D

 29 31  0  0  0  0  0  0  0  0999 V2000
  -11.4736    4.2068   12.5132 C   0  0  0  0  0  0  0  0  0  0  0  0
  -12.7369    4.5571   12.2359 C   0  0  0  0  0  0  0  0  0  0  0  0
  -13.8611    3.7305   12.1566 N   0  0  0  0  0  0  0  0  0  0  0  0
  -13.9151    2.3638   12.4054 C   0  0  0  0  0  0  0  0  0  0  0  0
  -15.1286    1.8895   11.9500 C   0  0  0  0  0  0  0  0  0  0  0  0
  -15.6108    0.4888   11.8418 C   0  0  0  0  0  0  0  0  0  0  0  0
  -15.0160   -0.2176   10.7127 N   0  0  0  0  0  0  0  0  0  0  0  0
  -15.4728    0.2566    9.4020 C   0  0  0  0  0  0  0  0  0  0  0  0
  -14.2822    0.6201    8.5073 C   0  0  0  0  0  0  0  0  0  0  0  0
  -13.3850    1.6435    9.2004 C   0  0  0  0  0  0  0  0  0  0  0  0
  -12.1889    2.1783    8.4319 C   0  0  0  0  0  0  0  0  0  0  0  0
  -11.2304    1.1976    7.9271 N   0  0  0  0  0  0  0  0  0  0  0  0
  -10.8878    0.1250    8.8884 C   0  0  0  0  0  0  0  0  0  0  0  0
   -9.9044   -0.8792    8.2583 C   0  0  0  0  0  0  0  0  0  0  0  0
   -8.6589   -0.1952    7.8624 N   0  0  0  0  0  0  0  0  0  0  0  0
   -7.6228   -1.0107    7.3875 C   0  0  0  0  0  0  0  0  0  0  0  0
   -7.8131   -2.2856    6.8382 C   0  0  0  0  0  0  0  0  0  0  0  0
   -6.7382   -3.0251    6.3455 C   0  0  0  0  0  0  0  0  0  0  0  0
   -5.4523   -2.5011    6.4094 C   0  0  0  0  0  0  0  0  0  0  0  0
   -5.2291   -1.2435    6.9788 C   0  0  0  0  0  0  0  0  0  0  0  0
   -3.8394   -0.6955    7.0633 C   0  0  0  0  0  0  0  0  0  0  0  0
   -3.0796   -1.3168    8.0023 F   0  0  0  0  0  0  0  0  0  0  0  0
   -3.7806    0.6356    7.3477 F   0  0  0  0  0  0  0  0  0  0  0  0
   -3.1788   -0.8458    5.8822 F   0  0  0  0  0  0  0  0  0  0  0  0
   -6.3163   -0.5141    7.4635 C   0  0  0  0  0  0  0  0  0  0  0  0
   -8.9158    0.9492    6.9629 C   0  0  0  0  0  0  0  0  0  0  0  0
   -9.9737    1.8947    7.5623 C   0  0  0  0  0  0  0  0  0  0  0  0
  -15.8160    3.0619   11.5939 C   0  0  0  0  0  0  0  0  0  0  0  0
  -15.0915    4.1666   11.7550 N   0  0  0  0  0  0  0  0  0  0  0  0
  1  2  2  0
  2  3  1  0
  3  4  1  0
  4  5  2  0
  5  6  1  0
  6  7  1  0
  7  8  1  0
  8  9  1  0
  9 10  1  0
 10 11  1  0
 11 12  1  0
 12 13  1  0
 13 14  1  0
 14 15  1  0
 15 16  1  0
 16 17  2  0
 17 18  1  0
 18 19  2  0
 19 20  1  0
 20 21  1  0
 21 22  1  0
 21 23  1  0
 21 24  1  0
 20 25  2  0
 15 26  1  0
 26 27  1  0
  5 28  1  0
 28 29  2  0
 29  3  1  0
 27 12  1  0
 25 16  1  0
M  END
>  <ref_mols>  (1806) 
B0426a

>  <gnina_score>  (1806) 
5.809

>  <smina_score_min>  (1806) 
-5.418

>  <ref_pdb>  (1806) 
B0426a

>  <inspiration_score>  (1806) 
None

>  <inchikey>  (1806) 
HFZXTTQDZSKRBS-UHFFFAOYSA-N

>  <tags>  (1806) 
BulkDock Fragalysis export,openbind_d68ev3c_c2_elabs_scored,openbind_d68ev3c_c2_elabs_scored_4.5plus,openbind_d68ev3c_c2_elabs,openbind_d68ev3c_c2_elabs_scored_5plus,syndirella_product,openbind_d68ev3c_c2_elabs_scored_top80percent,syndirella_placed

>  <smiles>  (1806) 
C=Cn1cc(CNCCCCN2CCN(c3cccc(C(F)(F)F)c3)CC2)cn1

>  <subsites>  (1806) 
None

>  <rmsd(smina/fragmenstein)>  (1806) 
1.111

>  <alias>  (1806) 
None

>  <energy_score>  (1806) 
-38.02942

>  <HIPPO Pose ID>  (1806) 
131950

>  <distance_score>  (1806) 
0.753567

>  <HIPPO Compound ID>  (1806) 
157935

>  <gnina_score_min>  (1806) 
5.681

>  <name>  (1806) 
P131950

>  <exports>  (1806) 
['/opt/xchem-fragalysis-2/maxwin/BulkDock/OUTPUTS/openbind_d68ev3c_c2_elabs_1LOTQJ3.sdf', '/opt/xchem-fragalysis-2/maxwin/BulkDock/OUTPUTS/openbind_d68ev3c_c2_elabs_1LSYI5W.sdf']

$$$$
P131951
     RDKit          3D

 29 31  0  0  0  0  0  0  0  0999 V2000
  -17.0200    3.4009   10.0196 C   0  0  0  0  0  0  0  0  0  0  0  0
  -16.8736    3.0922    8.6443 O   0  0  0  0  0  0  0  0  0  0  0  0
  -16.8336    1.8011    8.2943 C   0  0  0  0  0  0  0  0  0  0  0  0
  -16.5461    0.5931    8.9261 C   0  0  0  0  0  0  0  0  0  0  0  0
  -16.1688    0.2754   10.3307 C   0  0  0  0  0  0  0  0  0  0  0  0
  -14.8734   -0.3781   10.4326 N   0  0  0  0  0  0  0  0  0  0  0  0
  -13.7343    0.5258   10.5616 C   0  0  0  0  0  0  0  0  0  0  0  0
  -13.4891    1.4314    9.3533 C   0  0  0  0  0  0  0  0  0  0  0  0
  -12.0677    2.0045    9.3449 C   0  0  0  0  0  0  0  0  0  0  0  0
  -11.1364    1.3124    8.4437 N   0  0  0  0  0  0  0  0  0  0  0  0
  -11.0680   -0.1484    8.6699 C   0  0  0  0  0  0  0  0  0  0  0  0
  -10.0685   -0.8466    7.7302 C   0  0  0  0  0  0  0  0  0  0  0  0
   -8.7186   -0.2624    7.8631 N   0  0  0  0  0  0  0  0  0  0  0  0
   -7.6544   -0.9755    7.3024 C   0  0  0  0  0  0  0  0  0  0  0  0
   -7.8184   -2.1814    6.5974 C   0  0  0  0  0  0  0  0  0  0  0  0
   -6.7344   -2.8943    6.0812 C   0  0  0  0  0  0  0  0  0  0  0  0
   -5.4477   -2.4107    6.2542 C   0  0  0  0  0  0  0  0  0  0  0  0
   -5.2392   -1.2242    6.9616 C   0  0  0  0  0  0  0  0  0  0  0  0
   -3.8490   -0.7049    7.1542 C   0  0  0  0  0  0  0  0  0  0  0  0
   -3.1066   -0.8562    6.0237 F   0  0  0  0  0  0  0  0  0  0  0  0
   -3.1689   -1.3456    8.1398 F   0  0  0  0  0  0  0  0  0  0  0  0
   -3.7897    0.6234    7.4531 F   0  0  0  0  0  0  0  0  0  0  0  0
   -6.3384   -0.5359    7.4922 C   0  0  0  0  0  0  0  0  0  0  0  0
   -8.7297    1.2049    7.6780 C   0  0  0  0  0  0  0  0  0  0  0  0
   -9.7752    1.8702    8.6020 C   0  0  0  0  0  0  0  0  0  0  0  0
  -16.7733   -0.3770    7.9158 C   0  0  0  0  0  0  0  0  0  0  0  0
  -17.1574    0.1438    6.7562 N   0  0  0  0  0  0  0  0  0  0  0  0
  -17.1045    1.4677    6.9830 N   0  0  0  0  0  0  0  0  0  0  0  0
  -17.3638    2.3757    5.8906 C   0  0  0  0  0  0  0  0  0  0  0  0
  1  2  1  0
  2  3  1  0
  3  4  2  0
  4  5  1  0
  5  6  1  0
  6  7  1  0
  7  8  1  0
  8  9  1  0
  9 10  1  0
 10 11  1  0
 11 12  1  0
 12 13  1  0
 13 14  1  0
 14 15  2  0
 15 16  1  0
 16 17  2  0
 17 18  1  0
 18 19  1  0
 19 20  1  0
 19 21  1  0
 19 22  1  0
 18 23  2  0
 13 24  1  0
 24 25  1  0
  4 26  1  0
 26 27  2  0
 27 28  1  0
 28 29  1  0
 28  3  1  0
 25 10  1  0
 23 14  1  0
M  END
>  <ref_mols>  (1807) 
B0426a

>  <gnina_score>  (1807) 
5.455

>  <smina_score_min>  (1807) 
-5.392

>  <ref_pdb>  (1807) 
B0426a

>  <inspiration_score>  (1807) 
None

>  <inchikey>  (1807) 
QCHQYIZDKRSMJI-UHFFFAOYSA-N

>  <tags>  (1807) 
BulkDock Fragalysis export,openbind_d68ev3c_c2_elabs_scored,openbind_d68ev3c_c2_elabs_scored_4.5plus,openbind_d68ev3c_c2_elabs,openbind_d68ev3c_c2_elabs_scored_5plus,syndirella_product,openbind_d68ev3c_c2_elabs_scored_top80percent,syndirella_placed

>  <smiles>  (1807) 
COc1c(CNCCCN2CCN(c3cccc(C(F)(F)F)c3)CC2)cnn1C

>  <subsites>  (1807) 
None

>  <rmsd(smina/fragmenstein)>  (1807) 
1.238

>  <alias>  (1807) 
None

>  <energy_score>  (1807) 
-56.078352

>  <HIPPO Pose ID>  (1807) 
131951

>  <distance_score>  (1807) 
0.601397

>  <HIPPO Compound ID>  (1807) 
157936

>  <gnina_score_min>  (1807) 
5.321

>  <name>  (1807) 
P131951

>  <exports>  (1807) 
['/opt/xchem-fragalysis-2/maxwin/BulkDock/OUTPUTS/openbind_d68ev3c_c2_elabs_1LOTQJ3.sdf', '/opt/xchem-fragalysis-2/maxwin/BulkDock/OUTPUTS/openbind_d68ev3c_c2_elabs_1LSYI5W.sdf']

$$$$
P131953
     RDKit          3D

 29 31  0  0  0  0  0  0  0  0999 V2000
  -14.4799    1.7295    5.1209 C   0  0  0  0  0  0  0  0  0  0  0  0
  -15.0116    1.7357    6.4611 N   0  0  0  0  0  0  0  0  0  0  0  0
  -15.2039    0.6524    7.2715 C   0  0  0  0  0  0  0  0  0  0  0  0
  -15.7258    1.1329    8.4626 C   0  0  0  0  0  0  0  0  0  0  0  0
  -16.1830    0.3765    9.6569 C   0  0  1  0  0  0  0  0  0  0  0  0
  -16.8346   -0.8012    9.2512 O   0  0  0  0  0  0  0  0  0  0  0  0
  -15.1552   -0.0360   10.5900 N   0  0  0  0  0  0  0  0  0  0  0  0
  -14.0917    0.9272   10.8428 C   0  0  0  0  0  0  0  0  0  0  0  0
  -12.8897    0.5326    9.9931 C   0  0  0  0  0  0  0  0  0  0  0  0
  -12.2430    1.7090    9.2546 C   0  0  0  0  0  0  0  0  0  0  0  0
  -11.0376    1.3748    8.4789 N   0  0  0  0  0  0  0  0  0  0  0  0
  -11.2056    0.1488    7.6616 C   0  0  0  0  0  0  0  0  0  0  0  0
   -9.9466   -0.2282    6.8581 C   0  0  0  0  0  0  0  0  0  0  0  0
   -8.7830   -0.3403    7.7618 N   0  0  0  0  0  0  0  0  0  0  0  0
   -7.6809   -1.0376    7.2813 C   0  0  0  0  0  0  0  0  0  0  0  0
   -7.8353   -2.3258    6.7445 C   0  0  0  0  0  0  0  0  0  0  0  0
   -6.7499   -3.0586    6.2657 C   0  0  0  0  0  0  0  0  0  0  0  0
   -5.4730   -2.5188    6.3341 C   0  0  0  0  0  0  0  0  0  0  0  0
   -5.2740   -1.2550    6.8953 C   0  0  0  0  0  0  0  0  0  0  0  0
   -3.8886   -0.6958    6.9996 C   0  0  0  0  0  0  0  0  0  0  0  0
   -3.2079   -0.8358    5.8286 F   0  0  0  0  0  0  0  0  0  0  0  0
   -3.8415    0.6342    7.2932 F   0  0  0  0  0  0  0  0  0  0  0  0
   -3.1357   -1.3144    7.9479 F   0  0  0  0  0  0  0  0  0  0  0  0
   -6.3781   -0.5306    7.3602 C   0  0  0  0  0  0  0  0  0  0  0  0
   -8.5857    0.8661    8.5812 C   0  0  0  0  0  0  0  0  0  0  0  0
   -9.8677    1.2103    9.3603 C   0  0  0  0  0  0  0  0  0  0  0  0
  -15.8065    2.5234    8.2255 C   0  0  0  0  0  0  0  0  0  0  0  0
  -16.2539    3.5078    9.0129 O   0  0  0  0  0  0  0  0  0  0  0  0
  -15.3493    2.9024    7.0410 N   0  0  0  0  0  0  0  0  0  0  0  0
  1  2  1  0
  2  3  1  0
  3  4  2  0
  4  5  1  0
  5  6  1  6
  5  7  1  0
  7  8  1  0
  8  9  1  0
  9 10  1  0
 10 11  1  0
 11 12  1  0
 12 13  1  0
 13 14  1  0
 14 15  1  0
 15 16  2  0
 16 17  1  0
 17 18  2  0
 18 19  1  0
 19 20  1  0
 20 21  1  0
 20 22  1  0
 20 23  1  0
 19 24  2  0
 14 25  1  0
 25 26  1  0
  4 27  1  0
 27 28  1  0
 27 29  2  0
 29  2  1  0
 26 11  1  0
 24 15  1  0
M  END
>  <ref_mols>  (1808) 
B0426a

>  <gnina_score>  (1808) 
5.424

>  <smina_score_min>  (1808) 
-6.203

>  <ref_pdb>  (1808) 
B0426a

>  <inspiration_score>  (1808) 
None

>  <inchikey>  (1808) 
YQNNKCHUFSGHSB-QGZVFWFLSA-N

>  <tags>  (1808) 
BulkDock Fragalysis export,openbind_d68ev3c_c2_elabs_scored,openbind_d68ev3c_c2_elabs_scored_4.5plus,openbind_d68ev3c_c2_elabs,openbind_d68ev3c_c2_elabs_scored_5plus,syndirella_product,openbind_d68ev3c_c2_elabs_scored_top80percent,syndirella_placed

>  <smiles>  (1808) 
Cn1cc([C@@H](O)NCCCN2CCN(c3cccc(C(F)(F)F)c3)CC2)c(O)n1

>  <subsites>  (1808) 
None

>  <rmsd(smina/fragmenstein)>  (1808) 
1.703

>  <alias>  (1808) 
None

>  <energy_score>  (1808) 
-68.986395

>  <HIPPO Pose ID>  (1808) 
131953

>  <distance_score>  (1808) 
0.571946

>  <HIPPO Compound ID>  (1808) 
157937

>  <gnina_score_min>  (1808) 
5.412

>  <name>  (1808) 
P131953

>  <exports>  (1808) 
['/opt/xchem-fragalysis-2/maxwin/BulkDock/OUTPUTS/openbind_d68ev3c_c2_elabs_1LOTQJ3.sdf', '/opt/xchem-fragalysis-2/maxwin/BulkDock/OUTPUTS/openbind_d68ev3c_c2_elabs_1LSYI5W.sdf']

$$$$
P131954
     RDKit          3D

 29 31  0  0  0  0  0  0  0  0999 V2000
  -15.4576   -1.7199    6.2889 C   0  0  0  0  0  0  0  0  0  0  0  0
  -16.4576   -1.3647    7.2484 O   0  0  0  0  0  0  0  0  0  0  0  0
  -16.5354   -0.0303    7.3873 C   0  0  0  0  0  0  0  0  0  0  0  0
  -16.8119    0.6919    6.3050 N   0  0  0  0  0  0  0  0  0  0  0  0
  -16.8143    1.9487    6.7685 N   0  0  0  0  0  0  0  0  0  0  0  0
  -16.9996    3.0401    5.8443 C   0  0  0  0  0  0  0  0  0  0  0  0
  -16.6502    2.0249    8.1226 C   0  0  0  0  0  0  0  0  0  0  0  0
  -16.4436    0.7296    8.5743 C   0  0  0  0  0  0  0  0  0  0  0  0
  -16.2534    0.2768    9.9796 C   0  0  0  0  0  0  0  0  0  0  0  0
  -14.9766   -0.3754   10.2232 N   0  0  0  0  0  0  0  0  0  0  0  0
  -13.8402    0.5035   10.4690 C   0  0  0  0  0  0  0  0  0  0  0  0
  -13.4956    1.4669    9.3328 C   0  0  0  0  0  0  0  0  0  0  0  0
  -12.0554    1.9805    9.4221 C   0  0  0  0  0  0  0  0  0  0  0  0
  -11.1271    1.3187    8.4946 N   0  0  0  0  0  0  0  0  0  0  0  0
   -9.7587    1.8418    8.6974 C   0  0  0  0  0  0  0  0  0  0  0  0
   -8.7160    1.2014    7.7540 C   0  0  0  0  0  0  0  0  0  0  0  0
   -8.7272   -0.2725    7.8765 N   0  0  0  0  0  0  0  0  0  0  0  0
   -7.6629   -0.9810    7.3102 C   0  0  0  0  0  0  0  0  0  0  0  0
   -7.8279   -2.1814    6.5961 C   0  0  0  0  0  0  0  0  0  0  0  0
   -6.7452   -2.8913    6.0719 C   0  0  0  0  0  0  0  0  0  0  0  0
   -5.4575   -2.4101    6.2444 C   0  0  0  0  0  0  0  0  0  0  0  0
   -5.2466   -1.2299    6.9606 C   0  0  0  0  0  0  0  0  0  0  0  0
   -3.8559   -0.7111    7.1535 C   0  0  0  0  0  0  0  0  0  0  0  0
   -3.7969    0.6163    7.4570 F   0  0  0  0  0  0  0  0  0  0  0  0
   -3.1746   -1.3548    8.1362 F   0  0  0  0  0  0  0  0  0  0  0  0
   -3.1139   -0.8577    6.0218 F   0  0  0  0  0  0  0  0  0  0  0  0
   -6.3447   -0.5464    7.5009 C   0  0  0  0  0  0  0  0  0  0  0  0
  -10.0851   -0.8311    7.7079 C   0  0  0  0  0  0  0  0  0  0  0  0
  -11.0881   -0.1525    8.6598 C   0  0  0  0  0  0  0  0  0  0  0  0
  1  2  1  0
  2  3  1  0
  3  4  2  0
  4  5  1  0
  5  6  1  0
  5  7  1  0
  7  8  2  0
  8  9  1  0
  9 10  1  0
 10 11  1  0
 11 12  1  0
 12 13  1  0
 13 14  1  0
 14 15  1  0
 15 16  1  0
 16 17  1  0
 17 18  1  0
 18 19  2  0
 19 20  1  0
 20 21  2  0
 21 22  1  0
 22 23  1  0
 23 24  1  0
 23 25  1  0
 23 26  1  0
 22 27  2  0
 17 28  1  0
 28 29  1  0
  8  3  1  0
 29 14  1  0
 27 18  1  0
M  END
>  <ref_mols>  (1809) 
B0426a

>  <gnina_score>  (1809) 
5.473

>  <smina_score_min>  (1809) 
-5.531

>  <ref_pdb>  (1809) 
B0426a

>  <inspiration_score>  (1809) 
None

>  <inchikey>  (1809) 
WUAGJXMPCVQWOY-UHFFFAOYSA-N

>  <tags>  (1809) 
BulkDock Fragalysis export,openbind_d68ev3c_c2_elabs_scored,openbind_d68ev3c_c2_elabs_scored_4.5plus,openbind_d68ev3c_c2_elabs,openbind_d68ev3c_c2_elabs_scored_5plus,syndirella_product,openbind_d68ev3c_c2_elabs_scored_top80percent,syndirella_placed

>  <smiles>  (1809) 
COc1nn(C)cc1CNCCCN1CCN(c2cccc(C(F)(F)F)c2)CC1

>  <subsites>  (1809) 
None

>  <rmsd(smina/fragmenstein)>  (1809) 
1.012

>  <alias>  (1809) 
None

>  <energy_score>  (1809) 
-51.097888

>  <HIPPO Pose ID>  (1809) 
131954

>  <distance_score>  (1809) 
0.589848

>  <HIPPO Compound ID>  (1809) 
157938

>  <gnina_score_min>  (1809) 
5.339

>  <name>  (1809) 
P131954

>  <exports>  (1809) 
['/opt/xchem-fragalysis-2/maxwin/BulkDock/OUTPUTS/openbind_d68ev3c_c2_elabs_1LOTQJ3.sdf', '/opt/xchem-fragalysis-2/maxwin/BulkDock/OUTPUTS/openbind_d68ev3c_c2_elabs_1LSYI5W.sdf']

$$$$
P131955
     RDKit          3D

 29 31  0  0  0  0  0  0  0  0999 V2000
  -14.9128   -0.0470    6.0048 C   0  0  0  0  0  0  0  0  0  0  0  0
  -16.1626    0.3713    6.6923 C   0  0  0  0  0  0  0  0  0  0  0  0
  -17.1859    0.8522    5.9644 N   0  0  0  0  0  0  0  0  0  0  0  0
  -18.1441    1.0840    6.8835 N   0  0  0  0  0  0  0  0  0  0  0  0
  -19.4262    1.5916    6.4585 C   0  0  0  0  0  0  0  0  0  0  0  0
  -17.7617    0.7798    8.1568 C   0  0  0  0  0  0  0  0  0  0  0  0
  -18.8296    0.9297    9.7282 Br  0  0  0  0  0  0  0  0  0  0  0  0
  -16.4526    0.3425    8.0957 C   0  0  0  0  0  0  0  0  0  0  0  0
  -15.5579   -0.0970    9.2101 C   0  0  0  0  0  0  0  0  0  0  0  0
  -15.2435    1.0768   10.0171 N   0  0  0  0  0  0  0  0  0  0  0  0
  -14.1385    0.9023   10.9450 C   0  0  0  0  0  0  0  0  0  0  0  0
  -12.7982    0.6093   10.2784 C   0  0  0  0  0  0  0  0  0  0  0  0
  -12.4049    1.6091    9.1776 C   0  0  0  0  0  0  0  0  0  0  0  0
  -11.1802    1.2849    8.4256 N   0  0  0  0  0  0  0  0  0  0  0  0
  -11.3031   -0.0005    7.7015 C   0  0  0  0  0  0  0  0  0  0  0  0
  -10.0440   -0.3768    6.8983 C   0  0  0  0  0  0  0  0  0  0  0  0
   -8.8546   -0.3771    7.7777 N   0  0  0  0  0  0  0  0  0  0  0  0
   -7.7346   -1.0592    7.3084 C   0  0  0  0  0  0  0  0  0  0  0  0
   -7.8570   -2.3651    6.8036 C   0  0  0  0  0  0  0  0  0  0  0  0
   -6.7588   -3.0812    6.3274 C   0  0  0  0  0  0  0  0  0  0  0  0
   -5.4949   -2.5113    6.3734 C   0  0  0  0  0  0  0  0  0  0  0  0
   -5.3217   -1.2318    6.9074 C   0  0  0  0  0  0  0  0  0  0  0  0
   -3.9445   -0.6455    6.9905 C   0  0  0  0  0  0  0  0  0  0  0  0
   -3.1742   -1.2350    7.9441 F   0  0  0  0  0  0  0  0  0  0  0  0
   -3.2661   -0.7925    5.8184 F   0  0  0  0  0  0  0  0  0  0  0  0
   -3.9202    0.6895    7.2629 F   0  0  0  0  0  0  0  0  0  0  0  0
   -6.4413   -0.5221    7.3666 C   0  0  0  0  0  0  0  0  0  0  0  0
   -8.6951    0.8946    8.5052 C   0  0  0  0  0  0  0  0  0  0  0  0
   -9.9812    1.2446    9.2843 C   0  0  0  0  0  0  0  0  0  0  0  0
  1  2  1  0
  2  3  2  0
  3  4  1  0
  4  5  1  0
  4  6  1  0
  6  7  1  0
  6  8  2  0
  8  9  1  0
  9 10  1  0
 10 11  1  0
 11 12  1  0
 12 13  1  0
 13 14  1  0
 14 15  1  0
 15 16  1  0
 16 17  1  0
 17 18  1  0
 18 19  2  0
 19 20  1  0
 20 21  2  0
 21 22  1  0
 22 23  1  0
 23 24  1  0
 23 25  1  0
 23 26  1  0
 22 27  2  0
 17 28  1  0
 28 29  1  0
  8  2  1  0
 29 14  1  0
 27 18  1  0
M  END
>  <ref_mols>  (1810) 
B0426a

>  <gnina_score>  (1810) 
5.478

>  <smina_score_min>  (1810) 
-5.7

>  <ref_pdb>  (1810) 
B0426a

>  <inspiration_score>  (1810) 
None

>  <inchikey>  (1810) 
XSLKFRQHTCTJIB-UHFFFAOYSA-N

>  <tags>  (1810) 
BulkDock Fragalysis export,openbind_d68ev3c_c2_elabs_scored,openbind_d68ev3c_c2_elabs_scored_4.5plus,openbind_d68ev3c_c2_elabs,openbind_d68ev3c_c2_elabs_scored_5plus,syndirella_product,openbind_d68ev3c_c2_elabs_scored_top80percent,syndirella_placed

>  <smiles>  (1810) 
Cc1nn(C)c(Br)c1CNCCCN1CCN(c2cccc(C(F)(F)F)c2)CC1

>  <subsites>  (1810) 
None

>  <rmsd(smina/fragmenstein)>  (1810) 
0.725

>  <alias>  (1810) 
None

>  <energy_score>  (1810) 
-56.420542

>  <HIPPO Pose ID>  (1810) 
131955

>  <distance_score>  (1810) 
0.692029

>  <HIPPO Compound ID>  (1810) 
157939

>  <gnina_score_min>  (1810) 
5.465

>  <name>  (1810) 
P131955

>  <exports>  (1810) 
['/opt/xchem-fragalysis-2/maxwin/BulkDock/OUTPUTS/openbind_d68ev3c_c2_elabs_1LOTQJ3.sdf', '/opt/xchem-fragalysis-2/maxwin/BulkDock/OUTPUTS/openbind_d68ev3c_c2_elabs_1LSYI5W.sdf']

$$$$
P131956
     RDKit          3D

 29 31  0  0  0  0  0  0  0  0999 V2000
  -15.7692   -0.0722   11.6100 C   0  0  0  0  0  0  0  0  0  0  0  0
  -15.0921    0.2407   10.3428 N   0  0  0  0  0  0  0  0  0  0  0  0
  -14.5677    1.6189   10.4262 C   0  0  0  0  0  0  0  0  0  0  0  0
  -13.3743    1.9263    9.5164 C   0  0  0  0  0  0  0  0  0  0  0  0
  -12.1281    1.1845    9.9572 C   0  0  0  0  0  0  0  0  0  0  0  0
  -11.0672    1.2271    8.9342 N   0  0  0  0  0  0  0  0  0  0  0  0
  -11.2742    0.1047    7.9706 C   0  0  0  0  0  0  0  0  0  0  0  0
  -10.0844   -0.2074    7.0320 C   0  0  0  0  0  0  0  0  0  0  0  0
   -8.8198   -0.3028    7.7927 N   0  0  0  0  0  0  0  0  0  0  0  0
   -7.7492   -0.9965    7.2521 C   0  0  0  0  0  0  0  0  0  0  0  0
   -7.9264   -2.2695    6.6909 C   0  0  0  0  0  0  0  0  0  0  0  0
   -6.8533   -3.0110    6.1921 C   0  0  0  0  0  0  0  0  0  0  0  0
   -5.5658   -2.4947    6.2558 C   0  0  0  0  0  0  0  0  0  0  0  0
   -5.3430   -1.2407    6.8277 C   0  0  0  0  0  0  0  0  0  0  0  0
   -3.9490   -0.7015    6.9386 C   0  0  0  0  0  0  0  0  0  0  0  0
   -3.2586   -0.8466    5.7732 F   0  0  0  0  0  0  0  0  0  0  0  0
   -3.8846    0.6274    7.2367 F   0  0  0  0  0  0  0  0  0  0  0  0
   -3.2097   -1.3312    7.8916 F   0  0  0  0  0  0  0  0  0  0  0  0
   -6.4356   -0.5080    7.3102 C   0  0  0  0  0  0  0  0  0  0  0  0
   -8.5934    0.8599    8.6544 C   0  0  0  0  0  0  0  0  0  0  0  0
   -9.7757    1.0295    9.6139 C   0  0  0  0  0  0  0  0  0  0  0  0
  -16.0907    0.0648    9.2612 C   0  0  0  0  0  0  0  0  0  0  0  0
  -15.6086    0.3993    7.8975 C   0  0  0  0  0  0  0  0  0  0  0  0
  -15.9020    1.5485    7.1760 C   0  0  0  0  0  0  0  0  0  0  0  0
  -15.1920    1.4684    6.0109 N   0  0  0  0  0  0  0  0  0  0  0  0
  -15.0288    2.5161    5.0350 C   0  0  0  0  0  0  0  0  0  0  0  0
  -14.5217    0.3169    5.8757 N   0  0  0  0  0  0  0  0  0  0  0  0
  -14.7955   -0.3280    7.0039 C   0  0  0  0  0  0  0  0  0  0  0  0
  -14.2201   -1.5230    7.1338 O   0  0  0  0  0  0  0  0  0  0  0  0
  1  2  1  0
  2  3  1  0
  3  4  1  0
  4  5  1  0
  5  6  1  0
  6  7  1  0
  7  8  1  0
  8  9  1  0
  9 10  1  0
 10 11  2  0
 11 12  1  0
 12 13  2  0
 13 14  1  0
 14 15  1  0
 15 16  1  0
 15 17  1  0
 15 18  1  0
 14 19  2  0
  9 20  1  0
 20 21  1  0
  2 22  1  0
 22 23  1  0
 23 24  2  0
 24 25  1  0
 25 26  1  0
 25 27  1  0
 27 28  2  0
 28 29  1  0
 21  6  1  0
 28 23  1  0
 19 10  1  0
M  END
>  <ref_mols>  (1811) 
B0426a

>  <gnina_score>  (1811) 
5.435

>  <smina_score_min>  (1811) 
-5.868

>  <ref_pdb>  (1811) 
B0426a

>  <inspiration_score>  (1811) 
None

>  <inchikey>  (1811) 
CVIHXTQRDKHMBT-UHFFFAOYSA-N

>  <tags>  (1811) 
BulkDock Fragalysis export,openbind_d68ev3c_c2_elabs_scored,openbind_d68ev3c_c2_elabs_scored_4.5plus,openbind_d68ev3c_c2_elabs,openbind_d68ev3c_c2_elabs_scored_5plus,syndirella_product,openbind_d68ev3c_c2_elabs_scored_top80percent,syndirella_placed

>  <smiles>  (1811) 
CN(CCCN1CCN(c2cccc(C(F)(F)F)c2)CC1)Cc1cn(C)nc1O

>  <subsites>  (1811) 
None

>  <rmsd(smina/fragmenstein)>  (1811) 
1.292

>  <alias>  (1811) 
None

>  <energy_score>  (1811) 
-60.288213

>  <HIPPO Pose ID>  (1811) 
131956

>  <distance_score>  (1811) 
0.704057

>  <HIPPO Compound ID>  (1811) 
157940

>  <gnina_score_min>  (1811) 
5.431

>  <name>  (1811) 
P131956

>  <exports>  (1811) 
['/opt/xchem-fragalysis-2/maxwin/BulkDock/OUTPUTS/openbind_d68ev3c_c2_elabs_1LOTQJ3.sdf', '/opt/xchem-fragalysis-2/maxwin/BulkDock/OUTPUTS/openbind_d68ev3c_c2_elabs_1LSYI5W.sdf']

$$$$
P131957
     RDKit          3D

 29 31  0  0  0  0  0  0  0  0999 V2000
  -17.6959    3.5090    5.3691 C   0  0  0  0  0  0  0  0  0  0  0  0
  -17.3943    2.5444    6.3977 N   0  0  0  0  0  0  0  0  0  0  0  0
  -16.2393    1.8235    6.5331 C   0  0  0  0  0  0  0  0  0  0  0  0
  -16.4191    0.9908    7.6218 C   0  0  0  0  0  0  0  0  0  0  0  0
  -15.5073   -0.0642    8.1232 C   0  0  0  0  0  0  0  0  0  0  0  0
  -15.7978   -0.4247    9.5150 N   0  0  0  0  0  0  0  0  0  0  0  0
  -15.2797    0.4773   10.5445 C   0  0  0  0  0  0  0  0  0  0  0  0
  -13.7656    0.6776   10.5604 C   0  0  0  0  0  0  0  0  0  0  0  0
  -13.3340    1.8764    9.7151 C   0  0  0  0  0  0  0  0  0  0  0  0
  -11.8256    2.1102    9.7073 C   0  0  0  0  0  0  0  0  0  0  0  0
  -11.0730    1.4616    8.6189 N   0  0  0  0  0  0  0  0  0  0  0  0
   -9.6634    1.9163    8.7179 C   0  0  0  0  0  0  0  0  0  0  0  0
   -8.7175    1.2623    7.6942 C   0  0  0  0  0  0  0  0  0  0  0  0
   -8.7598   -0.2060    7.8348 N   0  0  0  0  0  0  0  0  0  0  0  0
   -7.7086   -0.9447    7.2904 C   0  0  0  0  0  0  0  0  0  0  0  0
   -7.8908   -2.1532    6.5985 C   0  0  0  0  0  0  0  0  0  0  0  0
   -6.8153   -2.8854    6.0869 C   0  0  0  0  0  0  0  0  0  0  0  0
   -5.5193   -2.4195    6.2505 C   0  0  0  0  0  0  0  0  0  0  0  0
   -5.2905   -1.2337    6.9505 C   0  0  0  0  0  0  0  0  0  0  0  0
   -3.8922   -0.7283    7.1385 C   0  0  0  0  0  0  0  0  0  0  0  0
   -3.1563   -0.8671    6.0014 F   0  0  0  0  0  0  0  0  0  0  0  0
   -3.8217    0.5955    7.4563 F   0  0  0  0  0  0  0  0  0  0  0  0
   -3.2105   -1.3867    8.1113 F   0  0  0  0  0  0  0  0  0  0  0  0
   -6.3818   -0.5300    7.4797 C   0  0  0  0  0  0  0  0  0  0  0  0
  -10.1364   -0.7216    7.7069 C   0  0  0  0  0  0  0  0  0  0  0  0
  -11.0903   -0.0178    8.7017 C   0  0  0  0  0  0  0  0  0  0  0  0
  -17.7139    1.3232    8.0575 C   0  0  0  0  0  0  0  0  0  0  0  0
  -18.3881    0.7969    9.0845 O   0  0  0  0  0  0  0  0  0  0  0  0
  -18.3173    2.2584    7.3372 N   0  0  0  0  0  0  0  0  0  0  0  0
  1  2  1  0
  2  3  1  0
  3  4  2  0
  4  5  1  0
  5  6  1  0
  6  7  1  0
  7  8  1  0
  8  9  1  0
  9 10  1  0
 10 11  1  0
 11 12  1  0
 12 13  1  0
 13 14  1  0
 14 15  1  0
 15 16  2  0
 16 17  1  0
 17 18  2  0
 18 19  1  0
 19 20  1  0
 20 21  1  0
 20 22  1  0
 20 23  1  0
 19 24  2  0
 14 25  1  0
 25 26  1  0
  4 27  1  0
 27 28  1  0
 27 29  2  0
 29  2  1  0
 26 11  1  0
 24 15  1  0
M  END
>  <ref_mols>  (1812) 
B0426a

>  <gnina_score>  (1812) 
5.423

>  <smina_score_min>  (1812) 
-5.39

>  <ref_pdb>  (1812) 
B0426a

>  <inspiration_score>  (1812) 
None

>  <inchikey>  (1812) 
JQPQNTXYEPCDOI-UHFFFAOYSA-N

>  <tags>  (1812) 
BulkDock Fragalysis export,openbind_d68ev3c_c2_elabs_scored,openbind_d68ev3c_c2_elabs_scored_4.5plus,openbind_d68ev3c_c2_elabs,openbind_d68ev3c_c2_elabs_scored_5plus,syndirella_product,openbind_d68ev3c_c2_elabs_scored_top80percent,syndirella_placed

>  <smiles>  (1812) 
Cn1cc(CNCCCCN2CCN(c3cccc(C(F)(F)F)c3)CC2)c(O)n1

>  <subsites>  (1812) 
None

>  <rmsd(smina/fragmenstein)>  (1812) 
1.178

>  <alias>  (1812) 
None

>  <energy_score>  (1812) 
-72.424898

>  <HIPPO Pose ID>  (1812) 
131957

>  <distance_score>  (1812) 
0.540899

>  <HIPPO Compound ID>  (1812) 
157941

>  <gnina_score_min>  (1812) 
5.347

>  <name>  (1812) 
P131957

>  <exports>  (1812) 
['/opt/xchem-fragalysis-2/maxwin/BulkDock/OUTPUTS/openbind_d68ev3c_c2_elabs_1LOTQJ3.sdf', '/opt/xchem-fragalysis-2/maxwin/BulkDock/OUTPUTS/openbind_d68ev3c_c2_elabs_1LSYI5W.sdf']

$$$$
P131958
     RDKit          3D

 29 31  0  0  0  0  0  0  0  0999 V2000
  -12.0839    3.8771   12.5558 C   0  0  0  0  0  0  0  0  0  0  0  0
  -12.8174    2.6523   12.3278 N   0  0  0  0  0  0  0  0  0  0  0  0
  -12.1447    1.4956   12.3570 N   0  0  0  0  0  0  0  0  0  0  0  0
  -13.0491    0.5757   12.0486 C   0  0  0  0  0  0  0  0  0  0  0  0
  -14.3174    1.1247   11.7742 C   0  0  0  0  0  0  0  0  0  0  0  0
  -15.5542    0.4034   11.3485 C   0  0  0  0  0  0  0  0  0  0  0  0
  -15.5417   -0.0740    9.9676 N   0  0  0  0  0  0  0  0  0  0  0  0
  -14.9561    0.8576    9.0045 C   0  0  0  0  0  0  0  0  0  0  0  0
  -13.5182    0.4564    8.6915 C   0  0  0  0  0  0  0  0  0  0  0  0
  -12.6534    1.6421    8.2517 C   0  0  0  0  0  0  0  0  0  0  0  0
  -11.2791    1.3071    7.8477 N   0  0  0  0  0  0  0  0  0  0  0  0
  -11.2307    0.1044    6.9893 C   0  0  0  0  0  0  0  0  0  0  0  0
   -9.8146   -0.2203    6.5043 C   0  0  0  0  0  0  0  0  0  0  0  0
   -8.9243   -0.4156    7.6654 N   0  0  0  0  0  0  0  0  0  0  0  0
   -7.7438   -1.0775    7.3372 C   0  0  0  0  0  0  0  0  0  0  0  0
   -7.8208   -2.3830    6.8177 C   0  0  0  0  0  0  0  0  0  0  0  0
   -6.6901   -3.0780    6.4001 C   0  0  0  0  0  0  0  0  0  0  0  0
   -5.4437   -2.4814    6.5193 C   0  0  0  0  0  0  0  0  0  0  0  0
   -5.3230   -1.1994    7.0719 C   0  0  0  0  0  0  0  0  0  0  0  0
   -3.9599   -0.5887    7.2019 C   0  0  0  0  0  0  0  0  0  0  0  0
   -3.2116   -1.1651    8.1794 F   0  0  0  0  0  0  0  0  0  0  0  0
   -3.2411   -0.7275    6.0527 F   0  0  0  0  0  0  0  0  0  0  0  0
   -3.9684    0.7465    7.4700 F   0  0  0  0  0  0  0  0  0  0  0  0
   -6.4751   -0.5120    7.4857 C   0  0  0  0  0  0  0  0  0  0  0  0
   -8.9201    0.7566    8.5640 C   0  0  0  0  0  0  0  0  0  0  0  0
  -10.3703    1.1055    9.0036 C   0  0  0  0  0  0  0  0  0  0  0  0
  -14.1431    2.4902   12.0045 C   0  0  0  0  0  0  0  0  0  0  0  0
  -15.0973    3.6251   11.9430 C   0  0  0  0  0  0  0  0  0  0  0  0
  -14.8324    4.6120   10.4916 Cl  0  0  0  0  0  0  0  0  0  0  0  0
  1  2  1  0
  2  3  1  0
  3  4  2  0
  4  5  1  0
  5  6  1  0
  6  7  1  0
  7  8  1  0
  8  9  1  0
  9 10  1  0
 10 11  1  0
 11 12  1  0
 12 13  1  0
 13 14  1  0
 14 15  1  0
 15 16  2  0
 16 17  1  0
 17 18  2  0
 18 19  1  0
 19 20  1  0
 20 21  1  0
 20 22  1  0
 20 23  1  0
 19 24  2  0
 14 25  1  0
 25 26  1  0
  5 27  2  0
 27 28  1  0
 28 29  1  0
 27  2  1  0
 26 11  1  0
 24 15  1  0
M  END
>  <ref_mols>  (1813) 
B0426a

>  <gnina_score>  (1813) 
5.817

>  <smina_score_min>  (1813) 
-6.035

>  <ref_pdb>  (1813) 
B0426a

>  <inspiration_score>  (1813) 
None

>  <inchikey>  (1813) 
KVESGYTWYNZCEH-UHFFFAOYSA-N

>  <tags>  (1813) 
BulkDock Fragalysis export,openbind_d68ev3c_c2_elabs_scored,openbind_d68ev3c_c2_elabs_scored_4.5plus,openbind_d68ev3c_c2_elabs,openbind_d68ev3c_c2_elabs_scored_5plus,syndirella_product,openbind_d68ev3c_c2_elabs_scored_top80percent,syndirella_placed

>  <smiles>  (1813) 
Cn1ncc(CNCCCN2CCN(c3cccc(C(F)(F)F)c3)CC2)c1CCl

>  <subsites>  (1813) 
None

>  <rmsd(smina/fragmenstein)>  (1813) 
0.659

>  <alias>  (1813) 
None

>  <energy_score>  (1813) 
-47.694026

>  <HIPPO Pose ID>  (1813) 
131958

>  <distance_score>  (1813) 
0.672323

>  <HIPPO Compound ID>  (1813) 
157942

>  <gnina_score_min>  (1813) 
5.809

>  <name>  (1813) 
P131958

>  <exports>  (1813) 
['/opt/xchem-fragalysis-2/maxwin/BulkDock/OUTPUTS/openbind_d68ev3c_c2_elabs_1LOTQJ3.sdf', '/opt/xchem-fragalysis-2/maxwin/BulkDock/OUTPUTS/openbind_d68ev3c_c2_elabs_1LSYI5W.sdf']

$$$$
P131959
     RDKit          3D

 29 31  0  0  0  0  0  0  0  0999 V2000
  -15.9556   -0.2822   11.5436 C   0  0  0  0  0  0  0  0  0  0  0  0
  -15.4282    0.5205   10.4484 N   0  0  0  0  0  0  0  0  0  0  0  0
  -13.9634    0.6410   10.5135 C   0  0  0  0  0  0  0  0  0  0  0  0
  -13.4358    1.6911    9.5309 C   0  0  0  0  0  0  0  0  0  0  0  0
  -11.9434    1.9717    9.6939 C   0  0  0  0  0  0  0  0  0  0  0  0
  -11.0965    1.3659    8.6536 N   0  0  0  0  0  0  0  0  0  0  0  0
   -9.7009    1.8141    8.8560 C   0  0  0  0  0  0  0  0  0  0  0  0
   -8.7123    1.2115    7.8388 C   0  0  0  0  0  0  0  0  0  0  0  0
   -8.7606   -0.2645    7.8845 N   0  0  0  0  0  0  0  0  0  0  0  0
   -7.7032   -0.9764    7.3139 C   0  0  0  0  0  0  0  0  0  0  0  0
   -7.8781   -2.1704    6.5938 C   0  0  0  0  0  0  0  0  0  0  0  0
   -6.8007   -2.8834    6.0597 C   0  0  0  0  0  0  0  0  0  0  0  0
   -5.5077   -2.4124    6.2262 C   0  0  0  0  0  0  0  0  0  0  0  0
   -5.2847   -1.2401    6.9502 C   0  0  0  0  0  0  0  0  0  0  0  0
   -3.8895   -0.7283    7.1414 C   0  0  0  0  0  0  0  0  0  0  0  0
   -3.1504   -0.8639    6.0057 F   0  0  0  0  0  0  0  0  0  0  0  0
   -3.8245    0.5956    7.4595 F   0  0  0  0  0  0  0  0  0  0  0  0
   -3.2061   -1.3843    8.1148 F   0  0  0  0  0  0  0  0  0  0  0  0
   -6.3780   -0.5567    7.5027 C   0  0  0  0  0  0  0  0  0  0  0  0
  -10.1384   -0.7719    7.6980 C   0  0  0  0  0  0  0  0  0  0  0  0
  -11.1195   -0.1156    8.6966 C   0  0  0  0  0  0  0  0  0  0  0  0
  -15.8963   -0.0041    9.1577 C   0  0  0  0  0  0  0  0  0  0  0  0
  -16.3555    1.1140    8.2830 C   0  0  0  0  0  0  0  0  0  0  0  0
  -15.8875    1.4349    7.0195 C   0  0  0  0  0  0  0  0  0  0  0  0
  -16.5948    2.5220    6.6005 N   0  0  0  0  0  0  0  0  0  0  0  0
  -16.4124    3.2569    5.3730 C   0  0  0  0  0  0  0  0  0  0  0  0
  -17.5418    2.9112    7.4709 N   0  0  0  0  0  0  0  0  0  0  0  0
  -17.3932    2.0576    8.4868 C   0  0  0  0  0  0  0  0  0  0  0  0
  -18.5198    2.1326    9.9952 Br  0  0  0  0  0  0  0  0  0  0  0  0
  1  2  1  0
  2  3  1  0
  3  4  1  0
  4  5  1  0
  5  6  1  0
  6  7  1  0
  7  8  1  0
  8  9  1  0
  9 10  1  0
 10 11  2  0
 11 12  1  0
 12 13  2  0
 13 14  1  0
 14 15  1  0
 15 16  1  0
 15 17  1  0
 15 18  1  0
 14 19  2  0
  9 20  1  0
 20 21  1  0
  2 22  1  0
 22 23  1  0
 23 24  2  0
 24 25  1  0
 25 26  1  0
 25 27  1  0
 27 28  2  0
 28 29  1  0
 21  6  1  0
 28 23  1  0
 19 10  1  0
M  END
>  <ref_mols>  (1814) 
B0426a

>  <gnina_score>  (1814) 
5.542

>  <smina_score_min>  (1814) 
-5.815

>  <ref_pdb>  (1814) 
B0426a

>  <inspiration_score>  (1814) 
None

>  <inchikey>  (1814) 
SPVOJQSIJUNNFE-UHFFFAOYSA-N

>  <tags>  (1814) 
BulkDock Fragalysis export,openbind_d68ev3c_c2_elabs_scored,openbind_d68ev3c_c2_elabs_scored_4.5plus,openbind_d68ev3c_c2_elabs,openbind_d68ev3c_c2_elabs_scored_5plus,syndirella_product,openbind_d68ev3c_c2_elabs_scored_top80percent,syndirella_placed

>  <smiles>  (1814) 
CN(CCCN1CCN(c2cccc(C(F)(F)F)c2)CC1)Cc1cn(C)nc1Br

>  <subsites>  (1814) 
None

>  <rmsd(smina/fragmenstein)>  (1814) 
1.376

>  <alias>  (1814) 
None

>  <energy_score>  (1814) 
-50.12654

>  <HIPPO Pose ID>  (1814) 
131959

>  <distance_score>  (1814) 
0.627213

>  <HIPPO Compound ID>  (1814) 
157943

>  <gnina_score_min>  (1814) 
5.412

>  <name>  (1814) 
P131959

>  <exports>  (1814) 
['/opt/xchem-fragalysis-2/maxwin/BulkDock/OUTPUTS/openbind_d68ev3c_c2_elabs_1LOTQJ3.sdf', '/opt/xchem-fragalysis-2/maxwin/BulkDock/OUTPUTS/openbind_d68ev3c_c2_elabs_1LSYI5W.sdf']

$$$$
P131960
     RDKit          3D

 29 31  0  0  0  0  0  0  0  0999 V2000
  -16.5154    2.7594    5.7447 C   0  0  0  0  0  0  0  0  0  0  0  0
  -16.5878    2.3047    7.1094 N   0  0  0  0  0  0  0  0  0  0  0  0
  -17.1009    3.1029    8.0712 N   0  0  0  0  0  0  0  0  0  0  0  0
  -16.9836    2.3568    9.1766 C   0  0  0  0  0  0  0  0  0  0  0  0
  -16.3745    1.0974    8.9439 C   0  0  0  0  0  0  0  0  0  0  0  0
  -16.0820    0.0165    9.9093 C   0  0  2  0  0  0  0  0  0  0  0  0
  -17.2513   -0.3013   10.6381 O   0  0  0  0  0  0  0  0  0  0  0  0
  -15.1122    0.3887   10.9171 N   0  0  0  0  0  0  0  0  0  0  0  0
  -13.7275    0.4253   10.4472 C   0  0  0  0  0  0  0  0  0  0  0  0
  -13.3801    1.6674    9.6249 C   0  0  0  0  0  0  0  0  0  0  0  0
  -11.8890    2.0025    9.6094 C   0  0  0  0  0  0  0  0  0  0  0  0
  -11.0809    1.3798    8.5512 N   0  0  0  0  0  0  0  0  0  0  0  0
   -9.6794    1.8299    8.7204 C   0  0  0  0  0  0  0  0  0  0  0  0
   -8.7001    1.2019    7.7129 C   0  0  0  0  0  0  0  0  0  0  0  0
   -8.7464   -0.2709    7.8129 N   0  0  0  0  0  0  0  0  0  0  0  0
   -7.6826   -0.9936    7.2705 C   0  0  0  0  0  0  0  0  0  0  0  0
   -7.8480   -2.1917    6.5563 C   0  0  0  0  0  0  0  0  0  0  0  0
   -6.7622   -2.9064    6.0432 C   0  0  0  0  0  0  0  0  0  0  0  0
   -5.4726   -2.4317    6.2259 C   0  0  0  0  0  0  0  0  0  0  0  0
   -5.2610   -1.2562    6.9480 C   0  0  0  0  0  0  0  0  0  0  0  0
   -3.8709   -0.7373    7.1503 C   0  0  0  0  0  0  0  0  0  0  0  0
   -3.1250   -0.8679    6.0192 F   0  0  0  0  0  0  0  0  0  0  0  0
   -3.1909   -1.3908    8.1274 F   0  0  0  0  0  0  0  0  0  0  0  0
   -3.8153    0.5867    7.4701 F   0  0  0  0  0  0  0  0  0  0  0  0
   -6.3617   -0.5730    7.4823 C   0  0  0  0  0  0  0  0  0  0  0  0
  -10.1201   -0.7804    7.6165 C   0  0  0  0  0  0  0  0  0  0  0  0
  -11.1112   -0.1000    8.5874 C   0  0  0  0  0  0  0  0  0  0  0  0
  -16.1778    1.0983    7.5830 C   0  0  0  0  0  0  0  0  0  0  0  0
  -15.6509    0.1007    6.8613 F   0  0  0  0  0  0  0  0  0  0  0  0
  1  2  1  0
  2  3  1  0
  3  4  2  0
  4  5  1  0
  5  6  1  0
  6  7  1  1
  6  8  1  0
  8  9  1  0
  9 10  1  0
 10 11  1  0
 11 12  1  0
 12 13  1  0
 13 14  1  0
 14 15  1  0
 15 16  1  0
 16 17  2  0
 17 18  1  0
 18 19  2  0
 19 20  1  0
 20 21  1  0
 21 22  1  0
 21 23  1  0
 21 24  1  0
 20 25  2  0
 15 26  1  0
 26 27  1  0
  5 28  2  0
 28 29  1  0
 28  2  1  0
 27 12  1  0
 25 16  1  0
M  END
>  <ref_mols>  (1815) 
B0426a

>  <gnina_score>  (1815) 
5.468

>  <smina_score_min>  (1815) 
-6.269

>  <ref_pdb>  (1815) 
B0426a

>  <inspiration_score>  (1815) 
None

>  <inchikey>  (1815) 
BKKAJDUOMBKUBO-SFHVURJKSA-N

>  <tags>  (1815) 
BulkDock Fragalysis export,openbind_d68ev3c_c2_elabs_scored,openbind_d68ev3c_c2_elabs_scored_4.5plus,openbind_d68ev3c_c2_elabs,openbind_d68ev3c_c2_elabs_scored_5plus,syndirella_product,openbind_d68ev3c_c2_elabs_scored_top80percent,syndirella_placed

>  <smiles>  (1815) 
Cn1ncc([C@H](O)NCCCN2CCN(c3cccc(C(F)(F)F)c3)CC2)c1F

>  <subsites>  (1815) 
None

>  <rmsd(smina/fragmenstein)>  (1815) 
1.289

>  <alias>  (1815) 
None

>  <energy_score>  (1815) 
-55.059725

>  <HIPPO Pose ID>  (1815) 
131960

>  <distance_score>  (1815) 
0.60329

>  <HIPPO Compound ID>  (1815) 
157944

>  <gnina_score_min>  (1815) 
5.516

>  <name>  (1815) 
P131960

>  <exports>  (1815) 
['/opt/xchem-fragalysis-2/maxwin/BulkDock/OUTPUTS/openbind_d68ev3c_c2_elabs_1LOTQJ3.sdf', '/opt/xchem-fragalysis-2/maxwin/BulkDock/OUTPUTS/openbind_d68ev3c_c2_elabs_1LSYI5W.sdf']

$$$$
P131962
     RDKit          3D

 29 32  0  0  0  0  0  0  0  0999 V2000
   -3.2248   -0.8300    5.8410 F   0  0  0  0  0  0  0  0  0  0  0  0
   -3.9073   -0.6901    7.0114 C   0  0  0  0  0  0  0  0  0  0  0  0
   -3.8576    0.6397    7.3062 F   0  0  0  0  0  0  0  0  0  0  0  0
   -3.1554   -1.3107    7.9596 F   0  0  0  0  0  0  0  0  0  0  0  0
   -5.2945   -1.2464    6.9075 C   0  0  0  0  0  0  0  0  0  0  0  0
   -5.4955   -2.5087    6.3425 C   0  0  0  0  0  0  0  0  0  0  0  0
   -6.7734   -3.0458    6.2719 C   0  0  0  0  0  0  0  0  0  0  0  0
   -7.8581   -2.3126    6.7522 C   0  0  0  0  0  0  0  0  0  0  0  0
   -7.7022   -1.0270    7.2951 C   0  0  0  0  0  0  0  0  0  0  0  0
   -8.8062   -0.3313    7.7764 N   0  0  0  0  0  0  0  0  0  0  0  0
   -9.9576   -0.2006    6.8562 C   0  0  0  0  0  0  0  0  0  0  0  0
  -11.2267    0.1994    7.6342 C   0  0  0  0  0  0  0  0  0  0  0  0
  -11.0534    1.4073    8.4806 N   0  0  0  0  0  0  0  0  0  0  0  0
  -12.2775    1.7390    9.2258 C   0  0  0  0  0  0  0  0  0  0  0  0
  -12.8722    0.6127   10.0798 C   0  0  0  0  0  0  0  0  0  0  0  0
  -14.1441    1.0327   10.8082 C   0  0  0  0  0  0  0  0  0  0  0  0
  -15.1329   -0.0420   10.7134 N   0  0  0  0  0  0  0  0  0  0  0  0
  -16.1570    0.1893    9.6894 C   0  0  0  0  0  0  0  0  0  0  0  0
  -15.6417    0.5298    8.3375 C   0  0  0  0  0  0  0  0  0  0  0  0
  -14.9676   -0.3025    7.3868 C   0  0  0  0  0  0  0  0  0  0  0  0
  -14.6671    0.3287    6.2388 N   0  0  0  0  0  0  0  0  0  0  0  0
  -15.1508    1.5389    6.4600 N   0  0  0  0  0  0  0  0  0  0  0  0
  -15.7431    1.7239    7.6630 C   0  0  0  0  0  0  0  0  0  0  0  0
  -16.2258    3.1102    7.7876 C   0  0  0  0  0  0  0  0  0  0  0  0
  -16.1145    3.6259    6.3251 C   0  0  0  0  0  0  0  0  0  0  0  0
  -15.0815    2.7210    5.6287 C   0  0  0  0  0  0  0  0  0  0  0  0
   -9.9036    1.2036    9.3785 C   0  0  0  0  0  0  0  0  0  0  0  0
   -8.6126    0.8648    8.6103 C   0  0  0  0  0  0  0  0  0  0  0  0
   -6.3983   -0.5223    7.3768 C   0  0  0  0  0  0  0  0  0  0  0  0
  1  2  1  0
  2  3  1  0
  2  4  1  0
  2  5  1  0
  5  6  2  0
  6  7  1  0
  7  8  2  0
  8  9  1  0
  9 10  1  0
 10 11  1  0
 11 12  1  0
 12 13  1  0
 13 14  1  0
 14 15  1  0
 15 16  1  0
 16 17  1  0
 17 18  1  0
 18 19  1  0
 19 20  1  0
 20 21  2  0
 21 22  1  0
 22 23  1  0
 23 24  1  0
 24 25  1  0
 25 26  1  0
 13 27  1  0
 27 28  1  0
  9 29  2  0
 29  5  1  0
 28 10  1  0
 23 19  2  0
 26 22  1  0
M  END
>  <ref_mols>  (1816) 
B0426a

>  <gnina_score>  (1816) 
5.524

>  <smina_score_min>  (1816) 
-5.89

>  <ref_pdb>  (1816) 
B0426a

>  <inspiration_score>  (1816) 
None

>  <inchikey>  (1816) 
JNNDENHGZZQFKF-UHFFFAOYSA-N

>  <tags>  (1816) 
BulkDock Fragalysis export,openbind_d68ev3c_c2_elabs_scored,openbind_d68ev3c_c2_elabs_scored_4.5plus,openbind_d68ev3c_c2_elabs,openbind_d68ev3c_c2_elabs_scored_5plus,syndirella_product,openbind_d68ev3c_c2_elabs_scored_top80percent,syndirella_placed

>  <smiles>  (1816) 
FC(F)(F)c1cccc(N2CCN(CCCNCc3cnn4c3CCC4)CC2)c1

>  <subsites>  (1816) 
None

>  <rmsd(smina/fragmenstein)>  (1816) 
0.596

>  <alias>  (1816) 
None

>  <energy_score>  (1816) 
-35.658388

>  <HIPPO Pose ID>  (1816) 
131962

>  <distance_score>  (1816) 
0.542734

>  <HIPPO Compound ID>  (1816) 
157945

>  <gnina_score_min>  (1816) 
5.409

>  <name>  (1816) 
P131962

>  <exports>  (1816) 
['/opt/xchem-fragalysis-2/maxwin/BulkDock/OUTPUTS/openbind_d68ev3c_c2_elabs_1LOTQJ3.sdf', '/opt/xchem-fragalysis-2/maxwin/BulkDock/OUTPUTS/openbind_d68ev3c_c2_elabs_1LSYI5W.sdf']

$$$$
P131963
     RDKit          3D

 29 31  0  0  0  0  0  0  0  0999 V2000
  -15.7917    2.9479    5.5270 C   0  0  0  0  0  0  0  0  0  0  0  0
  -16.0610    2.4556    6.8567 N   0  0  0  0  0  0  0  0  0  0  0  0
  -15.6484    1.2721    7.3931 C   0  0  0  0  0  0  0  0  0  0  0  0
  -16.1506    1.2182    8.6844 C   0  0  0  0  0  0  0  0  0  0  0  0
  -15.9972    0.0982    9.6524 C   0  0  2  0  0  0  0  0  0  0  0  0
  -17.2639   -0.3741   10.0525 O   0  0  0  0  0  0  0  0  0  0  0  0
  -15.3151    0.4454   10.8867 N   0  0  0  0  0  0  0  0  0  0  0  0
  -14.1228    1.2751   10.7414 C   0  0  0  0  0  0  0  0  0  0  0  0
  -13.0139    0.6648    9.8944 C   0  0  0  0  0  0  0  0  0  0  0  0
  -12.2883    1.7547    9.0941 C   0  0  0  0  0  0  0  0  0  0  0  0
  -11.0833    1.3303    8.3768 N   0  0  0  0  0  0  0  0  0  0  0  0
   -9.9322    1.2067    9.2908 C   0  0  0  0  0  0  0  0  0  0  0  0
   -8.6420    0.8131    8.5503 C   0  0  0  0  0  0  0  0  0  0  0  0
   -8.8286   -0.4380    7.7948 N   0  0  0  0  0  0  0  0  0  0  0  0
   -7.7074   -1.1107    7.3087 C   0  0  0  0  0  0  0  0  0  0  0  0
   -7.8325   -2.4031    6.7739 C   0  0  0  0  0  0  0  0  0  0  0  0
   -6.7343   -3.1053    6.2787 C   0  0  0  0  0  0  0  0  0  0  0  0
   -5.4709   -2.5338    6.3323 C   0  0  0  0  0  0  0  0  0  0  0  0
   -5.2966   -1.2680    6.8964 C   0  0  0  0  0  0  0  0  0  0  0  0
   -3.9218   -0.6789    6.9897 C   0  0  0  0  0  0  0  0  0  0  0  0
   -3.1531   -1.2736    7.9408 F   0  0  0  0  0  0  0  0  0  0  0  0
   -3.9025    0.6541    7.2723 F   0  0  0  0  0  0  0  0  0  0  0  0
   -3.2406   -0.8139    5.8180 F   0  0  0  0  0  0  0  0  0  0  0  0
   -6.4145   -0.5730    7.3768 C   0  0  0  0  0  0  0  0  0  0  0  0
   -9.9972   -0.3887    6.8867 C   0  0  0  0  0  0  0  0  0  0  0  0
  -11.2609    0.0530    7.6506 C   0  0  0  0  0  0  0  0  0  0  0  0
  -16.8670    2.4331    8.7969 C   0  0  0  0  0  0  0  0  0  0  0  0
  -17.8491    2.9719   10.3108 Br  0  0  0  0  0  0  0  0  0  0  0  0
  -16.7912    3.1982    7.7061 N   0  0  0  0  0  0  0  0  0  0  0  0
  1  2  1  0
  2  3  1  0
  3  4  2  0
  4  5  1  0
  5  6  1  1
  5  7  1  0
  7  8  1  0
  8  9  1  0
  9 10  1  0
 10 11  1  0
 11 12  1  0
 12 13  1  0
 13 14  1  0
 14 15  1  0
 15 16  2  0
 16 17  1  0
 17 18  2  0
 18 19  1  0
 19 20  1  0
 20 21  1  0
 20 22  1  0
 20 23  1  0
 19 24  2  0
 14 25  1  0
 25 26  1  0
  4 27  1  0
 27 28  1  0
 27 29  2  0
 29  2  1  0
 26 11  1  0
 24 15  1  0
M  END
>  <ref_mols>  (1817) 
B0426a

>  <gnina_score>  (1817) 
5.513

>  <smina_score_min>  (1817) 
-5.72

>  <ref_pdb>  (1817) 
B0426a

>  <inspiration_score>  (1817) 
None

>  <inchikey>  (1817) 
KLXKQVYWDWEDDL-SFHVURJKSA-N

>  <tags>  (1817) 
BulkDock Fragalysis export,openbind_d68ev3c_c2_elabs_scored,openbind_d68ev3c_c2_elabs_scored_4.5plus,openbind_d68ev3c_c2_elabs,openbind_d68ev3c_c2_elabs_scored_5plus,syndirella_product,openbind_d68ev3c_c2_elabs_scored_top80percent,syndirella_placed

>  <smiles>  (1817) 
Cn1cc([C@H](O)NCCCN2CCN(c3cccc(C(F)(F)F)c3)CC2)c(Br)n1

>  <subsites>  (1817) 
None

>  <rmsd(smina/fragmenstein)>  (1817) 
0.855

>  <alias>  (1817) 
None

>  <energy_score>  (1817) 
-51.204327

>  <HIPPO Pose ID>  (1817) 
131963

>  <distance_score>  (1817) 
0.603913

>  <HIPPO Compound ID>  (1817) 
157946

>  <gnina_score_min>  (1817) 
5.498

>  <name>  (1817) 
P131963

>  <exports>  (1817) 
['/opt/xchem-fragalysis-2/maxwin/BulkDock/OUTPUTS/openbind_d68ev3c_c2_elabs_1LOTQJ3.sdf', '/opt/xchem-fragalysis-2/maxwin/BulkDock/OUTPUTS/openbind_d68ev3c_c2_elabs_1LSYI5W.sdf']

$$$$
P131966
     RDKit          3D

 29 31  0  0  0  0  0  0  0  0999 V2000
  -16.6045    0.0631    8.7787 C   0  0  0  0  0  0  0  0  0  0  0  0
  -15.5583    0.6453    9.6344 N   0  0  0  0  0  0  0  0  0  0  0  0
  -14.2595    0.4930    8.9405 C   0  0  0  0  0  0  0  0  0  0  0  0
  -13.2940    1.6397    9.2837 C   0  0  0  0  0  0  0  0  0  0  0  0
  -12.3945    2.0867    8.1320 C   0  0  0  0  0  0  0  0  0  0  0  0
  -11.1921    1.3195    7.8276 N   0  0  0  0  0  0  0  0  0  0  0  0
  -11.4149   -0.1148    7.6012 C   0  0  0  0  0  0  0  0  0  0  0  0
  -10.1586   -0.8045    7.0382 C   0  0  0  0  0  0  0  0  0  0  0  0
   -8.9424   -0.5543    7.8587 N   0  0  0  0  0  0  0  0  0  0  0  0
   -7.7794   -1.2018    7.3944 C   0  0  0  0  0  0  0  0  0  0  0  0
   -7.8364   -2.4902    6.8330 C   0  0  0  0  0  0  0  0  0  0  0  0
   -6.7053   -3.1365    6.3312 C   0  0  0  0  0  0  0  0  0  0  0  0
   -5.4655   -2.5215    6.4112 C   0  0  0  0  0  0  0  0  0  0  0  0
   -5.3473   -1.2678    7.0132 C   0  0  0  0  0  0  0  0  0  0  0  0
   -3.9936   -0.6335    7.1419 C   0  0  0  0  0  0  0  0  0  0  0  0
   -3.2731   -0.7459    5.9907 F   0  0  0  0  0  0  0  0  0  0  0  0
   -3.2315   -1.2032    8.1137 F   0  0  0  0  0  0  0  0  0  0  0  0
   -4.0266    0.6993    7.4237 F   0  0  0  0  0  0  0  0  0  0  0  0
   -6.4998   -0.6295    7.5021 C   0  0  0  0  0  0  0  0  0  0  0  0
   -8.8057    0.8476    8.3192 C   0  0  0  0  0  0  0  0  0  0  0  0
  -10.1281    1.4526    8.8358 C   0  0  0  0  0  0  0  0  0  0  0  0
  -15.5904    0.0416   10.9796 C   0  0  1  0  0  0  0  0  0  0  0  0
  -14.2688    0.6478   12.0107 Cl  0  0  0  0  0  0  0  0  0  0  0  0
  -16.8469    0.4257   11.7116 C   0  0  0  0  0  0  0  0  0  0  0  0
  -17.5992    1.6226   11.6009 C   0  0  0  0  0  0  0  0  0  0  0  0
  -18.6954    1.6211   12.3637 N   0  0  0  0  0  0  0  0  0  0  0  0
  -18.6280    0.4481   13.0107 N   0  0  0  0  0  0  0  0  0  0  0  0
  -19.6773    0.0843   13.9310 C   0  0  0  0  0  0  0  0  0  0  0  0
  -17.5306   -0.2883   12.6804 C   0  0  0  0  0  0  0  0  0  0  0  0
  1  2  1  0
  2  3  1  0
  3  4  1  0
  4  5  1  0
  5  6  1  0
  6  7  1  0
  7  8  1  0
  8  9  1  0
  9 10  1  0
 10 11  2  0
 11 12  1  0
 12 13  2  0
 13 14  1  0
 14 15  1  0
 15 16  1  0
 15 17  1  0
 15 18  1  0
 14 19  2  0
  9 20  1  0
 20 21  1  0
  2 22  1  0
 22 23  1  1
 22 24  1  0
 24 25  1  0
 25 26  2  0
 26 27  1  0
 27 28  1  0
 27 29  1  0
 21  6  1  0
 29 24  2  0
 19 10  1  0
M  END
>  <ref_mols>  (1818) 
B0426a

>  <gnina_score>  (1818) 
5.585

>  <smina_score_min>  (1818) 
-6.146

>  <ref_pdb>  (1818) 
B0426a

>  <inspiration_score>  (1818) 
None

>  <inchikey>  (1818) 
ZUNWDPQCASHXFV-LJQANCHMSA-N

>  <tags>  (1818) 
BulkDock Fragalysis export,openbind_d68ev3c_c2_elabs_scored,openbind_d68ev3c_c2_elabs_scored_4.5plus,openbind_d68ev3c_c2_elabs,openbind_d68ev3c_c2_elabs_scored_5plus,syndirella_product,openbind_d68ev3c_c2_elabs_scored_top80percent,syndirella_placed

>  <smiles>  (1818) 
CN(CCCN1CCN(c2cccc(C(F)(F)F)c2)CC1)[C@@H](Cl)c1cnn(C)c1

>  <subsites>  (1818) 
None

>  <rmsd(smina/fragmenstein)>  (1818) 
1.235

>  <alias>  (1818) 
None

>  <energy_score>  (1818) 
-36.138635

>  <HIPPO Pose ID>  (1818) 
131966

>  <distance_score>  (1818) 
0.547432

>  <HIPPO Compound ID>  (1818) 
157947

>  <gnina_score_min>  (1818) 
5.782

>  <name>  (1818) 
P131966

>  <exports>  (1818) 
['/opt/xchem-fragalysis-2/maxwin/BulkDock/OUTPUTS/openbind_d68ev3c_c2_elabs_1LOTQJ3.sdf', '/opt/xchem-fragalysis-2/maxwin/BulkDock/OUTPUTS/openbind_d68ev3c_c2_elabs_1LSYI5W.sdf']

$$$$
P131968
     RDKit          3D

 29 31  0  0  0  0  0  0  0  0999 V2000
  -16.8152    4.9557    7.0486 C   0  0  0  0  0  0  0  0  0  0  0  0
  -16.8976    3.6659    7.6884 N   0  0  0  0  0  0  0  0  0  0  0  0
  -16.0787    2.5951    7.4889 C   0  0  0  0  0  0  0  0  0  0  0  0
  -16.5362    1.5826    8.3152 C   0  0  0  0  0  0  0  0  0  0  0  0
  -15.9851    0.2028    8.4606 C   0  0  2  0  0  0  0  0  0  0  0  0
  -17.1154   -0.8865    7.5799 Cl  0  0  0  0  0  0  0  0  0  0  0  0
  -16.0087   -0.2797    9.8274 N   0  0  0  0  0  0  0  0  0  0  0  0
  -15.2236    0.4343   10.8210 C   0  0  0  0  0  0  0  0  0  0  0  0
  -13.7220    0.5499   10.5562 C   0  0  0  0  0  0  0  0  0  0  0  0
  -13.3564    1.7134    9.6342 C   0  0  0  0  0  0  0  0  0  0  0  0
  -11.8663    2.0496    9.6321 C   0  0  0  0  0  0  0  0  0  0  0  0
  -11.0732    1.4065    8.5726 N   0  0  0  0  0  0  0  0  0  0  0  0
  -11.0843   -0.0732    8.6621 C   0  0  0  0  0  0  0  0  0  0  0  0
  -10.1104   -0.7705    7.6854 C   0  0  0  0  0  0  0  0  0  0  0  0
   -8.7395   -0.2441    7.8327 N   0  0  0  0  0  0  0  0  0  0  0  0
   -7.6824   -0.9738    7.2865 C   0  0  0  0  0  0  0  0  0  0  0  0
   -7.8561   -2.1788    6.5857 C   0  0  0  0  0  0  0  0  0  0  0  0
   -6.7759   -2.9008    6.0711 C   0  0  0  0  0  0  0  0  0  0  0  0
   -5.4837   -2.4276    6.2404 C   0  0  0  0  0  0  0  0  0  0  0  0
   -5.2641   -1.2455    6.9494 C   0  0  0  0  0  0  0  0  0  0  0  0
   -3.8705   -0.7312    7.1412 C   0  0  0  0  0  0  0  0  0  0  0  0
   -3.1321   -0.8674    6.0059 F   0  0  0  0  0  0  0  0  0  0  0  0
   -3.8094    0.5937    7.4564 F   0  0  0  0  0  0  0  0  0  0  0  0
   -3.1872   -1.3834    8.1168 F   0  0  0  0  0  0  0  0  0  0  0  0
   -6.3594   -0.5524    7.4823 C   0  0  0  0  0  0  0  0  0  0  0  0
   -8.7021    1.2253    7.7008 C   0  0  0  0  0  0  0  0  0  0  0  0
   -9.6713    1.8714    8.7077 C   0  0  0  0  0  0  0  0  0  0  0  0
  -17.6605    2.1674    8.9517 C   0  0  0  0  0  0  0  0  0  0  0  0
  -17.8668    3.4350    8.5887 N   0  0  0  0  0  0  0  0  0  0  0  0
  1  2  1  0
  2  3  1  0
  3  4  2  0
  4  5  1  0
  5  6  1  6
  5  7  1  0
  7  8  1  0
  8  9  1  0
  9 10  1  0
 10 11  1  0
 11 12  1  0
 12 13  1  0
 13 14  1  0
 14 15  1  0
 15 16  1  0
 16 17  2  0
 17 18  1  0
 18 19  2  0
 19 20  1  0
 20 21  1  0
 21 22  1  0
 21 23  1  0
 21 24  1  0
 20 25  2  0
 15 26  1  0
 26 27  1  0
  4 28  1  0
 28 29  2  0
 29  2  1  0
 27 12  1  0
 25 16  1  0
M  END
>  <ref_mols>  (1819) 
B0426a

>  <gnina_score>  (1819) 
5.531

>  <smina_score_min>  (1819) 
-5.537

>  <ref_pdb>  (1819) 
B0426a

>  <inspiration_score>  (1819) 
None

>  <inchikey>  (1819) 
DHQBQRCWJSVGRX-LJQANCHMSA-N

>  <tags>  (1819) 
BulkDock Fragalysis export,openbind_d68ev3c_c2_elabs_scored,openbind_d68ev3c_c2_elabs_scored_4.5plus,openbind_d68ev3c_c2_elabs,openbind_d68ev3c_c2_elabs_scored_5plus,syndirella_product,openbind_d68ev3c_c2_elabs_scored_top80percent,syndirella_placed

>  <smiles>  (1819) 
Cn1cc([C@H](Cl)NCCCCN2CCN(c3cccc(C(F)(F)F)c3)CC2)cn1

>  <subsites>  (1819) 
None

>  <rmsd(smina/fragmenstein)>  (1819) 
1.094

>  <alias>  (1819) 
None

>  <energy_score>  (1819) 
-49.654772

>  <HIPPO Pose ID>  (1819) 
131968

>  <distance_score>  (1819) 
0.543112

>  <HIPPO Compound ID>  (1819) 
157948

>  <gnina_score_min>  (1819) 
5.509

>  <name>  (1819) 
P131968

>  <exports>  (1819) 
['/opt/xchem-fragalysis-2/maxwin/BulkDock/OUTPUTS/openbind_d68ev3c_c2_elabs_1LOTQJ3.sdf', '/opt/xchem-fragalysis-2/maxwin/BulkDock/OUTPUTS/openbind_d68ev3c_c2_elabs_1LSYI5W.sdf']

$$$$
P131970
     RDKit          3D

 29 31  0  0  0  0  0  0  0  0999 V2000
  -15.0337    2.8470    5.0711 C   0  0  0  0  0  0  0  0  0  0  0  0
  -15.1341    1.8471    6.1068 N   0  0  0  0  0  0  0  0  0  0  0  0
  -14.6195    0.6254    5.8848 N   0  0  0  0  0  0  0  0  0  0  0  0
  -14.8636   -0.0303    7.0200 C   0  0  0  0  0  0  0  0  0  0  0  0
  -15.5135    0.7681    7.9991 C   0  0  0  0  0  0  0  0  0  0  0  0
  -15.9519    0.3243    9.3478 C   0  0  1  0  0  0  0  0  0  0  0  0
  -16.7480   -0.8303    9.2168 O   0  0  0  0  0  0  0  0  0  0  0  0
  -14.8437   -0.0614   10.1908 N   0  0  0  0  0  0  0  0  0  0  0  0
  -14.1254    1.0610   10.7897 C   0  0  0  0  0  0  0  0  0  0  0  0
  -12.6473    0.9931   10.4229 C   0  0  0  0  0  0  0  0  0  0  0  0
  -12.2923    1.7855    9.1570 C   0  0  0  0  0  0  0  0  0  0  0  0
  -11.0785    1.3749    8.4426 N   0  0  0  0  0  0  0  0  0  0  0  0
  -11.2743    0.0654    7.7777 C   0  0  0  0  0  0  0  0  0  0  0  0
  -10.0373   -0.4274    7.0035 C   0  0  0  0  0  0  0  0  0  0  0  0
   -8.8276   -0.4152    7.8598 N   0  0  0  0  0  0  0  0  0  0  0  0
   -7.7161   -1.0935    7.3539 C   0  0  0  0  0  0  0  0  0  0  0  0
   -7.8475   -2.3901    6.8290 C   0  0  0  0  0  0  0  0  0  0  0  0
   -6.7581   -3.0950    6.3162 C   0  0  0  0  0  0  0  0  0  0  0  0
   -5.4935   -2.5248    6.3453 C   0  0  0  0  0  0  0  0  0  0  0  0
   -5.3099   -1.2569    6.9010 C   0  0  0  0  0  0  0  0  0  0  0  0
   -3.9331   -0.6695    6.9753 C   0  0  0  0  0  0  0  0  0  0  0  0
   -3.9077    0.6650    7.2514 F   0  0  0  0  0  0  0  0  0  0  0  0
   -3.2625   -0.8115    5.7979 F   0  0  0  0  0  0  0  0  0  0  0  0
   -3.1552   -1.2605    7.9218 F   0  0  0  0  0  0  0  0  0  0  0  0
   -6.4204   -0.5582    7.3956 C   0  0  0  0  0  0  0  0  0  0  0  0
   -8.6316    0.8779    8.5412 C   0  0  0  0  0  0  0  0  0  0  0  0
   -9.8956    1.3027    9.3123 C   0  0  0  0  0  0  0  0  0  0  0  0
  -15.6848    1.9816    7.3537 C   0  0  0  0  0  0  0  0  0  0  0  0
  -16.5999    3.6919    8.1260 I   0  0  0  0  0  0  0  0  0  0  0  0
  1  2  1  0
  2  3  1  0
  3  4  2  0
  4  5  1  0
  5  6  1  0
  6  7  1  6
  6  8  1  0
  8  9  1  0
  9 10  1  0
 10 11  1  0
 11 12  1  0
 12 13  1  0
 13 14  1  0
 14 15  1  0
 15 16  1  0
 16 17  2  0
 17 18  1  0
 18 19  2  0
 19 20  1  0
 20 21  1  0
 21 22  1  0
 21 23  1  0
 21 24  1  0
 20 25  2  0
 15 26  1  0
 26 27  1  0
  5 28  2  0
 28 29  1  0
 28  2  1  0
 27 12  1  0
 25 16  1  0
M  END
>  <ref_mols>  (1820) 
B0426a

>  <gnina_score>  (1820) 
5.588

>  <smina_score_min>  (1820) 
-6.022

>  <ref_pdb>  (1820) 
B0426a

>  <inspiration_score>  (1820) 
None

>  <inchikey>  (1820) 
WHILWKFMHVEZFN-GOSISDBHSA-N

>  <tags>  (1820) 
BulkDock Fragalysis export,openbind_d68ev3c_c2_elabs_scored,openbind_d68ev3c_c2_elabs_scored_4.5plus,openbind_d68ev3c_c2_elabs,openbind_d68ev3c_c2_elabs_scored_5plus,syndirella_product,openbind_d68ev3c_c2_elabs_scored_top80percent,syndirella_placed

>  <smiles>  (1820) 
Cn1ncc([C@@H](O)NCCCN2CCN(c3cccc(C(F)(F)F)c3)CC2)c1I

>  <subsites>  (1820) 
None

>  <rmsd(smina/fragmenstein)>  (1820) 
0.912

>  <alias>  (1820) 
None

>  <energy_score>  (1820) 
-69.249651

>  <HIPPO Pose ID>  (1820) 
131970

>  <distance_score>  (1820) 
0.553105

>  <HIPPO Compound ID>  (1820) 
157949

>  <gnina_score_min>  (1820) 
5.581

>  <name>  (1820) 
P131970

>  <exports>  (1820) 
['/opt/xchem-fragalysis-2/maxwin/BulkDock/OUTPUTS/openbind_d68ev3c_c2_elabs_1LOTQJ3.sdf', '/opt/xchem-fragalysis-2/maxwin/BulkDock/OUTPUTS/openbind_d68ev3c_c2_elabs_1LSYI5W.sdf']

$$$$
P131972
     RDKit          3D

 29 31  0  0  0  0  0  0  0  0999 V2000
  -16.7268    0.3720    9.1975 C   0  0  0  0  0  0  0  0  0  0  0  0
  -15.5183    0.7626    9.9318 N   0  0  0  0  0  0  0  0  0  0  0  0
  -14.3601    0.6665    9.0094 C   0  0  0  0  0  0  0  0  0  0  0  0
  -13.2760    1.6900    9.3869 C   0  0  0  0  0  0  0  0  0  0  0  0
  -12.3949    2.1298    8.2168 C   0  0  0  0  0  0  0  0  0  0  0  0
  -11.2090    1.3477    7.8870 N   0  0  0  0  0  0  0  0  0  0  0  0
  -10.1099    1.5059    8.8544 C   0  0  0  0  0  0  0  0  0  0  0  0
   -8.8050    0.8866    8.3125 C   0  0  0  0  0  0  0  0  0  0  0  0
   -8.9552   -0.5244    7.8874 N   0  0  0  0  0  0  0  0  0  0  0  0
   -7.8031   -1.1806    7.4066 C   0  0  0  0  0  0  0  0  0  0  0  0
   -7.8715   -2.4696    6.8481 C   0  0  0  0  0  0  0  0  0  0  0  0
   -6.7470   -3.1241    6.3393 C   0  0  0  0  0  0  0  0  0  0  0  0
   -5.5024   -2.5166    6.4062 C   0  0  0  0  0  0  0  0  0  0  0  0
   -5.3721   -1.2616    7.0022 C   0  0  0  0  0  0  0  0  0  0  0  0
   -4.0137   -0.6337    7.1203 C   0  0  0  0  0  0  0  0  0  0  0  0
   -4.0400    0.6986    7.4065 F   0  0  0  0  0  0  0  0  0  0  0  0
   -3.3024   -0.7442    5.9630 F   0  0  0  0  0  0  0  0  0  0  0  0
   -3.2460   -1.2086    8.0845 F   0  0  0  0  0  0  0  0  0  0  0  0
   -6.5179   -0.6160    7.4989 C   0  0  0  0  0  0  0  0  0  0  0  0
  -10.2012   -0.7988    7.1245 C   0  0  0  0  0  0  0  0  0  0  0  0
  -11.4401   -0.0927    7.7131 C   0  0  0  0  0  0  0  0  0  0  0  0
  -15.3356   -0.0592   11.1340 C   0  0  1  0  0  0  0  0  0  0  0  0
  -14.0286    0.1122   11.6501 O   0  0  0  0  0  0  0  0  0  0  0  0
  -16.3351    0.2921   12.2085 C   0  0  0  0  0  0  0  0  0  0  0  0
  -16.1226    1.0565   13.3882 C   0  0  0  0  0  0  0  0  0  0  0  0
  -17.1939    1.1097   14.1881 N   0  0  0  0  0  0  0  0  0  0  0  0
  -18.1230    0.4230   13.5003 N   0  0  0  0  0  0  0  0  0  0  0  0
  -19.4665    0.2990   14.0117 C   0  0  0  0  0  0  0  0  0  0  0  0
  -17.6496   -0.1178   12.3427 C   0  0  0  0  0  0  0  0  0  0  0  0
  1  2  1  0
  2  3  1  0
  3  4  1  0
  4  5  1  0
  5  6  1  0
  6  7  1  0
  7  8  1  0
  8  9  1  0
  9 10  1  0
 10 11  2  0
 11 12  1  0
 12 13  2  0
 13 14  1  0
 14 15  1  0
 15 16  1  0
 15 17  1  0
 15 18  1  0
 14 19  2  0
  9 20  1  0
 20 21  1  0
  2 22  1  0
 22 23  1  1
 22 24  1  0
 24 25  1  0
 25 26  2  0
 26 27  1  0
 27 28  1  0
 27 29  1  0
 21  6  1  0
 29 24  2  0
 19 10  1  0
M  END
>  <ref_mols>  (1821) 
B0426a

>  <gnina_score>  (1821) 
5.207

>  <smina_score_min>  (1821) 
-5.974

>  <ref_pdb>  (1821) 
B0426a

>  <inspiration_score>  (1821) 
None

>  <inchikey>  (1821) 
JANNROHTGGISFM-IBGZPJMESA-N

>  <tags>  (1821) 
BulkDock Fragalysis export,openbind_d68ev3c_c2_elabs_scored,openbind_d68ev3c_c2_elabs_scored_4.5plus,openbind_d68ev3c_c2_elabs,openbind_d68ev3c_c2_elabs_scored_5plus,syndirella_product,openbind_d68ev3c_c2_elabs_scored_top80percent,syndirella_placed

>  <smiles>  (1821) 
CN(CCCN1CCN(c2cccc(C(F)(F)F)c2)CC1)[C@@H](O)c1cnn(C)c1

>  <subsites>  (1821) 
None

>  <rmsd(smina/fragmenstein)>  (1821) 
0.578

>  <alias>  (1821) 
None

>  <energy_score>  (1821) 
-44.885358

>  <HIPPO Pose ID>  (1821) 
131972

>  <distance_score>  (1821) 
0.48623

>  <HIPPO Compound ID>  (1821) 
157950

>  <gnina_score_min>  (1821) 
5.233

>  <name>  (1821) 
P131972

>  <exports>  (1821) 
['/opt/xchem-fragalysis-2/maxwin/BulkDock/OUTPUTS/openbind_d68ev3c_c2_elabs_1LOTQJ3.sdf', '/opt/xchem-fragalysis-2/maxwin/BulkDock/OUTPUTS/openbind_d68ev3c_c2_elabs_1LSYI5W.sdf']

$$$$
P131973
     RDKit          3D

 29 31  0  0  0  0  0  0  0  0999 V2000
  -13.9698    3.8309    6.4541 C   0  0  0  0  0  0  0  0  0  0  0  0
  -15.4233    3.5080    6.1077 C   0  0  0  0  0  0  0  0  0  0  0  0
  -16.3163    4.7413    6.2288 C   0  0  0  0  0  0  0  0  0  0  0  0
  -15.9278    2.3990    6.9099 N   0  0  0  0  0  0  0  0  0  0  0  0
  -16.0460    2.3538    8.2688 C   0  0  0  0  0  0  0  0  0  0  0  0
  -16.3807    1.0530    8.5959 C   0  0  0  0  0  0  0  0  0  0  0  0
  -16.5958    0.4856    9.9570 C   0  0  0  0  0  0  0  0  0  0  0  0
  -15.4113   -0.1290   10.5457 N   0  0  0  0  0  0  0  0  0  0  0  0
  -14.2772    0.7886   10.7065 C   0  0  0  0  0  0  0  0  0  0  0  0
  -13.3211    0.5814    9.5473 C   0  0  0  0  0  0  0  0  0  0  0  0
  -12.0415    1.4121    9.6203 C   0  0  0  0  0  0  0  0  0  0  0  0
  -11.1186    1.1056    8.5029 N   0  0  0  0  0  0  0  0  0  0  0  0
   -9.7533    1.5722    8.8383 C   0  0  0  0  0  0  0  0  0  0  0  0
   -8.6688    1.1239    7.8257 C   0  0  0  0  0  0  0  0  0  0  0  0
   -8.6823   -0.3474    7.6568 N   0  0  0  0  0  0  0  0  0  0  0  0
   -7.5728   -1.0226    7.1591 C   0  0  0  0  0  0  0  0  0  0  0  0
   -7.6728   -2.2207    6.4235 C   0  0  0  0  0  0  0  0  0  0  0  0
   -6.5562   -2.9189    5.9644 C   0  0  0  0  0  0  0  0  0  0  0  0
   -5.2917   -2.4257    6.2219 C   0  0  0  0  0  0  0  0  0  0  0  0
   -5.1438   -1.2469    6.9548 C   0  0  0  0  0  0  0  0  0  0  0  0
   -3.7766   -0.7074    7.2205 C   0  0  0  0  0  0  0  0  0  0  0  0
   -2.9767   -0.8681    6.1343 F   0  0  0  0  0  0  0  0  0  0  0  0
   -3.7510    0.6257    7.5001 F   0  0  0  0  0  0  0  0  0  0  0  0
   -3.1457   -1.3257    8.2500 F   0  0  0  0  0  0  0  0  0  0  0  0
   -6.2770   -0.5776    7.4336 C   0  0  0  0  0  0  0  0  0  0  0  0
  -10.0126   -0.8385    7.2715 C   0  0  0  0  0  0  0  0  0  0  0  0
  -11.0606   -0.3579    8.2678 C   0  0  0  0  0  0  0  0  0  0  0  0
  -16.5261    0.4235    7.3345 C   0  0  0  0  0  0  0  0  0  0  0  0
  -16.3204    1.2584    6.3066 N   0  0  0  0  0  0  0  0  0  0  0  0
  1  2  1  0
  2  3  1  0
  2  4  1  0
  4  5  1  0
  5  6  2  0
  6  7  1  0
  7  8  1  0
  8  9  1  0
  9 10  1  0
 10 11  1  0
 11 12  1  0
 12 13  1  0
 13 14  1  0
 14 15  1  0
 15 16  1  0
 16 17  2  0
 17 18  1  0
 18 19  2  0
 19 20  1  0
 20 21  1  0
 21 22  1  0
 21 23  1  0
 21 24  1  0
 20 25  2  0
 15 26  1  0
 26 27  1  0
  6 28  1  0
 28 29  2  0
 29  4  1  0
 27 12  1  0
 25 16  1  0
M  END
>  <ref_mols>  (1822) 
B0426a

>  <gnina_score>  (1822) 
5.509

>  <smina_score_min>  (1822) 
-5.771

>  <ref_pdb>  (1822) 
B0426a

>  <inspiration_score>  (1822) 
None

>  <inchikey>  (1822) 
IHYSEACUTIDMJO-UHFFFAOYSA-N

>  <tags>  (1822) 
BulkDock Fragalysis export,openbind_d68ev3c_c2_elabs_scored,openbind_d68ev3c_c2_elabs_scored_4.5plus,openbind_d68ev3c_c2_elabs,openbind_d68ev3c_c2_elabs_scored_5plus,syndirella_product,openbind_d68ev3c_c2_elabs_scored_top80percent,syndirella_placed

>  <smiles>  (1822) 
CC(C)n1cc(CNCCCN2CCN(c3cccc(C(F)(F)F)c3)CC2)cn1

>  <subsites>  (1822) 
None

>  <rmsd(smina/fragmenstein)>  (1822) 
1.177

>  <alias>  (1822) 
None

>  <energy_score>  (1822) 
-49.79138

>  <HIPPO Pose ID>  (1822) 
131973

>  <distance_score>  (1822) 
0.681159

>  <HIPPO Compound ID>  (1822) 
157951

>  <gnina_score_min>  (1822) 
5.361

>  <name>  (1822) 
P131973

>  <exports>  (1822) 
['/opt/xchem-fragalysis-2/maxwin/BulkDock/OUTPUTS/openbind_d68ev3c_c2_elabs_1LOTQJ3.sdf', '/opt/xchem-fragalysis-2/maxwin/BulkDock/OUTPUTS/openbind_d68ev3c_c2_elabs_1LSYI5W.sdf']

$$$$
P131974
     RDKit          3D

 29 31  0  0  0  0  0  0  0  0999 V2000
  -15.9627    0.3781   11.3713 C   0  0  0  0  0  0  0  0  0  0  0  0
  -15.1679   -0.0430   10.2162 N   0  0  0  0  0  0  0  0  0  0  0  0
  -13.7653    0.3636   10.3611 C   0  0  0  0  0  0  0  0  0  0  0  0
  -13.3442    1.7350    9.8241 C   0  0  0  0  0  0  0  0  0  0  0  0
  -11.8274    1.9739    9.8742 C   0  0  0  0  0  0  0  0  0  0  0  0
  -11.0296    1.4667    8.7374 N   0  0  0  0  0  0  0  0  0  0  0  0
  -11.0535   -0.0107    8.6429 C   0  0  0  0  0  0  0  0  0  0  0  0
  -10.0969   -0.6348    7.6124 C   0  0  0  0  0  0  0  0  0  0  0  0
   -8.7162   -0.1690    7.8408 N   0  0  0  0  0  0  0  0  0  0  0  0
   -7.6673   -0.8989    7.2841 C   0  0  0  0  0  0  0  0  0  0  0  0
   -7.8556   -2.0965    6.5707 C   0  0  0  0  0  0  0  0  0  0  0  0
   -6.7880   -2.8381    6.0565 C   0  0  0  0  0  0  0  0  0  0  0  0
   -5.4891   -2.3914    6.2349 C   0  0  0  0  0  0  0  0  0  0  0  0
   -5.2536   -1.2149    6.9482 C   0  0  0  0  0  0  0  0  0  0  0  0
   -3.8531   -0.7237    7.1440 C   0  0  0  0  0  0  0  0  0  0  0  0
   -3.1129   -0.8763    6.0122 F   0  0  0  0  0  0  0  0  0  0  0  0
   -3.7702    0.6009    7.4557 F   0  0  0  0  0  0  0  0  0  0  0  0
   -3.1843   -1.3845    8.1241 F   0  0  0  0  0  0  0  0  0  0  0  0
   -6.3380   -0.5032    7.4816 C   0  0  0  0  0  0  0  0  0  0  0  0
   -8.6467    1.3070    7.8649 C   0  0  0  0  0  0  0  0  0  0  0  0
   -9.6179    1.8753    8.9253 C   0  0  0  0  0  0  0  0  0  0  0  0
  -15.8535    0.3599    8.9742 C   0  0  0  0  0  0  0  0  0  0  0  0
  -15.1181    0.1759    7.6764 C   0  0  0  0  0  0  0  0  0  0  0  0
  -14.2559   -0.8671    7.2639 C   0  0  0  0  0  0  0  0  0  0  0  0
  -13.7507   -0.6956    6.0421 N   0  0  0  0  0  0  0  0  0  0  0  0
  -14.2776    0.4658    5.6413 N   0  0  0  0  0  0  0  0  0  0  0  0
  -13.8724    0.9776    4.3557 C   0  0  0  0  0  0  0  0  0  0  0  0
  -15.1399    1.0004    6.5575 C   0  0  0  0  0  0  0  0  0  0  0  0
  -16.1586    2.6009    6.3582 Br  0  0  0  0  0  0  0  0  0  0  0  0
  1  2  1  0
  2  3  1  0
  3  4  1  0
  4  5  1  0
  5  6  1  0
  6  7  1  0
  7  8  1  0
  8  9  1  0
  9 10  1  0
 10 11  2  0
 11 12  1  0
 12 13  2  0
 13 14  1  0
 14 15  1  0
 15 16  1  0
 15 17  1  0
 15 18  1  0
 14 19  2  0
  9 20  1  0
 20 21  1  0
  2 22  1  0
 22 23  1  0
 23 24  1  0
 24 25  2  0
 25 26  1  0
 26 27  1  0
 26 28  1  0
 28 29  1  0
 21  6  1  0
 28 23  2  0
 19 10  1  0
M  END
>  <ref_mols>  (1823) 
B0426a

>  <gnina_score>  (1823) 
5.762

>  <smina_score_min>  (1823) 
-5.735

>  <ref_pdb>  (1823) 
B0426a

>  <inspiration_score>  (1823) 
None

>  <inchikey>  (1823) 
GVPDEJMQYAWFRO-UHFFFAOYSA-N

>  <tags>  (1823) 
BulkDock Fragalysis export,openbind_d68ev3c_c2_elabs_scored,openbind_d68ev3c_c2_elabs_scored_4.5plus,openbind_d68ev3c_c2_elabs,openbind_d68ev3c_c2_elabs_scored_5plus,syndirella_product,openbind_d68ev3c_c2_elabs_scored_top80percent,syndirella_placed

>  <smiles>  (1823) 
CN(CCCN1CCN(c2cccc(C(F)(F)F)c2)CC1)Cc1cnn(C)c1Br

>  <subsites>  (1823) 
None

>  <rmsd(smina/fragmenstein)>  (1823) 
1.926

>  <alias>  (1823) 
None

>  <energy_score>  (1823) 
-53.63942

>  <HIPPO Pose ID>  (1823) 
131974

>  <distance_score>  (1823) 
0.572076

>  <HIPPO Compound ID>  (1823) 
157952

>  <gnina_score_min>  (1823) 
5.525

>  <name>  (1823) 
P131974

>  <exports>  (1823) 
['/opt/xchem-fragalysis-2/maxwin/BulkDock/OUTPUTS/openbind_d68ev3c_c2_elabs_1LOTQJ3.sdf', '/opt/xchem-fragalysis-2/maxwin/BulkDock/OUTPUTS/openbind_d68ev3c_c2_elabs_1LSYI5W.sdf']

$$$$
P131975
     RDKit          3D

 29 31  0  0  0  0  0  0  0  0999 V2000
  -19.3824    1.7237    5.1530 C   0  0  0  0  0  0  0  0  0  0  0  0
  -18.4070    1.6240    6.2103 N   0  0  0  0  0  0  0  0  0  0  0  0
  -17.7604    2.7325    6.6226 N   0  0  0  0  0  0  0  0  0  0  0  0
  -16.8531    2.2572    7.4792 C   0  0  0  0  0  0  0  0  0  0  0  0
  -16.9685    0.8608    7.6949 C   0  0  0  0  0  0  0  0  0  0  0  0
  -16.0956    0.0101    8.5450 C   0  0  0  0  0  0  0  0  0  0  0  0
  -16.0153    0.5979    9.8819 N   0  0  0  0  0  0  0  0  0  0  0  0
  -14.9407   -0.0048   10.6575 C   0  0  0  0  0  0  0  0  0  0  0  0
  -13.7027    0.8867   10.7660 C   0  0  0  0  0  0  0  0  0  0  0  0
  -13.3533    1.6373    9.4772 C   0  0  0  0  0  0  0  0  0  0  0  0
  -11.9184    2.1595    9.4608 C   0  0  0  0  0  0  0  0  0  0  0  0
  -11.0504    1.3852    8.5627 N   0  0  0  0  0  0  0  0  0  0  0  0
   -9.7006    1.9864    8.5320 C   0  0  0  0  0  0  0  0  0  0  0  0
   -8.7243    1.2334    7.6027 C   0  0  0  0  0  0  0  0  0  0  0  0
   -8.6502   -0.1953    7.9695 N   0  0  0  0  0  0  0  0  0  0  0  0
   -7.6254   -0.9394    7.3778 C   0  0  0  0  0  0  0  0  0  0  0  0
   -7.8332   -2.1621    6.7171 C   0  0  0  0  0  0  0  0  0  0  0  0
   -6.7771   -2.8943    6.1715 C   0  0  0  0  0  0  0  0  0  0  0  0
   -5.4798   -2.4158    6.2791 C   0  0  0  0  0  0  0  0  0  0  0  0
   -5.2320   -1.2133    6.9469 C   0  0  0  0  0  0  0  0  0  0  0  0
   -3.8311   -0.7061    7.0836 C   0  0  0  0  0  0  0  0  0  0  0  0
   -3.1340   -0.8673    5.9259 F   0  0  0  0  0  0  0  0  0  0  0  0
   -3.1208   -1.3501    8.0457 F   0  0  0  0  0  0  0  0  0  0  0  0
   -3.7486    0.6223    7.3767 F   0  0  0  0  0  0  0  0  0  0  0  0
   -6.3027   -0.4989    7.4961 C   0  0  0  0  0  0  0  0  0  0  0  0
   -9.9785   -0.8278    8.0485 C   0  0  0  0  0  0  0  0  0  0  0  0
  -10.9214   -0.0324    8.9706 C   0  0  0  0  0  0  0  0  0  0  0  0
  -18.0338    0.5008    6.8946 C   0  0  0  0  0  0  0  0  0  0  0  0
  -18.8030   -1.2358    6.7504 Br  0  0  0  0  0  0  0  0  0  0  0  0
  1  2  1  0
  2  3  1  0
  3  4  2  0
  4  5  1  0
  5  6  1  0
  6  7  1  0
  7  8  1  0
  8  9  1  0
  9 10  1  0
 10 11  1  0
 11 12  1  0
 12 13  1  0
 13 14  1  0
 14 15  1  0
 15 16  1  0
 16 17  2  0
 17 18  1  0
 18 19  2  0
 19 20  1  0
 20 21  1  0
 21 22  1  0
 21 23  1  0
 21 24  1  0
 20 25  2  0
 15 26  1  0
 26 27  1  0
  5 28  2  0
 28 29  1  0
 28  2  1  0
 27 12  1  0
 25 16  1  0
M  END
>  <ref_mols>  (1824) 
B0426a

>  <gnina_score>  (1824) 
5.406

>  <smina_score_min>  (1824) 
-5.464

>  <ref_pdb>  (1824) 
B0426a

>  <inspiration_score>  (1824) 
None

>  <inchikey>  (1824) 
UISUVBZYGHJMGU-UHFFFAOYSA-N

>  <tags>  (1824) 
BulkDock Fragalysis export,openbind_d68ev3c_c2_elabs_scored,openbind_d68ev3c_c2_elabs_scored_4.5plus,openbind_d68ev3c_c2_elabs,openbind_d68ev3c_c2_elabs_scored_5plus,syndirella_product,openbind_d68ev3c_c2_elabs_scored_top80percent,syndirella_placed

>  <smiles>  (1824) 
Cn1ncc(CNCCCCN2CCN(c3cccc(C(F)(F)F)c3)CC2)c1Br

>  <subsites>  (1824) 
None

>  <rmsd(smina/fragmenstein)>  (1824) 
0.722

>  <alias>  (1824) 
None

>  <energy_score>  (1824) 
-48.581429

>  <HIPPO Pose ID>  (1824) 
131975

>  <distance_score>  (1824) 
0.600651

>  <HIPPO Compound ID>  (1824) 
157953

>  <gnina_score_min>  (1824) 
5.415

>  <name>  (1824) 
P131975

>  <exports>  (1824) 
['/opt/xchem-fragalysis-2/maxwin/BulkDock/OUTPUTS/openbind_d68ev3c_c2_elabs_1LOTQJ3.sdf', '/opt/xchem-fragalysis-2/maxwin/BulkDock/OUTPUTS/openbind_d68ev3c_c2_elabs_1LSYI5W.sdf']

$$$$
P131976
     RDKit          3D

 29 31  0  0  0  0  0  0  0  0999 V2000
  -15.3571   -1.6071    4.7236 C   0  0  0  0  0  0  0  0  0  0  0  0
  -16.0419   -1.0874    5.8795 N   0  0  0  0  0  0  0  0  0  0  0  0
  -15.4874   -0.2694    6.8106 C   0  0  0  0  0  0  0  0  0  0  0  0
  -16.4056   -0.1681    7.8351 C   0  0  0  0  0  0  0  0  0  0  0  0
  -16.2159    0.4821    9.1521 C   0  0  1  0  0  0  0  0  0  0  0  0
  -17.2571    0.1479   10.0487 O   0  0  0  0  0  0  0  0  0  0  0  0
  -14.9626    0.0097    9.6778 N   0  0  0  0  0  0  0  0  0  0  0  0
  -14.6518    0.4727   11.0061 C   0  0  0  0  0  0  0  0  0  0  0  0
  -13.1447    0.6502   11.1514 C   0  0  0  0  0  0  0  0  0  0  0  0
  -12.6073    1.8998   10.4459 C   0  0  0  0  0  0  0  0  0  0  0  0
  -12.4613    1.9115    8.9173 C   0  0  0  0  0  0  0  0  0  0  0  0
  -11.3146    1.2589    8.2841 N   0  0  0  0  0  0  0  0  0  0  0  0
  -11.3719   -0.2091    8.2971 C   0  0  0  0  0  0  0  0  0  0  0  0
  -10.2542   -0.8299    7.4308 C   0  0  0  0  0  0  0  0  0  0  0  0
   -8.9029   -0.3666    7.8491 N   0  0  0  0  0  0  0  0  0  0  0  0
   -7.7908   -1.0424    7.3220 C   0  0  0  0  0  0  0  0  0  0  0  0
   -7.8980   -2.2765    6.6536 C   0  0  0  0  0  0  0  0  0  0  0  0
   -6.7863   -2.9623    6.1529 C   0  0  0  0  0  0  0  0  0  0  0  0
   -5.5169   -2.4320    6.3103 C   0  0  0  0  0  0  0  0  0  0  0  0
   -5.3517   -1.2238    6.9880 C   0  0  0  0  0  0  0  0  0  0  0  0
   -3.9728   -0.6647    7.1818 C   0  0  0  0  0  0  0  0  0  0  0  0
   -3.2153   -0.7968    6.0568 F   0  0  0  0  0  0  0  0  0  0  0  0
   -3.9494    0.6641    7.4823 F   0  0  0  0  0  0  0  0  0  0  0  0
   -3.2800   -1.2872    8.1717 F   0  0  0  0  0  0  0  0  0  0  0  0
   -6.4824   -0.5586    7.4964 C   0  0  0  0  0  0  0  0  0  0  0  0
   -8.8313    1.1098    7.9818 C   0  0  0  0  0  0  0  0  0  0  0  0
  -10.0078    1.6788    8.8111 C   0  0  0  0  0  0  0  0  0  0  0  0
  -17.5314   -0.8714    7.3518 C   0  0  0  0  0  0  0  0  0  0  0  0
  -17.3107   -1.4603    6.1742 N   0  0  0  0  0  0  0  0  0  0  0  0
  1  2  1  0
  2  3  1  0
  3  4  2  0
  4  5  1  0
  5  6  1  1
  5  7  1  0
  7  8  1  0
  8  9  1  0
  9 10  1  0
 10 11  1  0
 11 12  1  0
 12 13  1  0
 13 14  1  0
 14 15  1  0
 15 16  1  0
 16 17  2  0
 17 18  1  0
 18 19  2  0
 19 20  1  0
 20 21  1  0
 21 22  1  0
 21 23  1  0
 21 24  1  0
 20 25  2  0
 15 26  1  0
 26 27  1  0
  4 28  1  0
 28 29  2  0
 29  2  1  0
 27 12  1  0
 25 16  1  0
M  END
>  <ref_mols>  (1825) 
B0426a

>  <gnina_score>  (1825) 
5.646

>  <smina_score_min>  (1825) 
-6.377

>  <ref_pdb>  (1825) 
B0426a

>  <inspiration_score>  (1825) 
None

>  <inchikey>  (1825) 
IFURUAQISXBUMM-LJQANCHMSA-N

>  <tags>  (1825) 
BulkDock Fragalysis export,openbind_d68ev3c_c2_elabs_scored,openbind_d68ev3c_c2_elabs_scored_4.5plus,openbind_d68ev3c_c2_elabs,openbind_d68ev3c_c2_elabs_scored_5plus,syndirella_product,openbind_d68ev3c_c2_elabs_scored_top80percent,syndirella_placed

>  <smiles>  (1825) 
Cn1cc([C@@H](O)NCCCCN2CCN(c3cccc(C(F)(F)F)c3)CC2)cn1

>  <subsites>  (1825) 
None

>  <rmsd(smina/fragmenstein)>  (1825) 
0.93

>  <alias>  (1825) 
None

>  <energy_score>  (1825) 
-50.514048

>  <HIPPO Pose ID>  (1825) 
131976

>  <distance_score>  (1825) 
0.573782

>  <HIPPO Compound ID>  (1825) 
157954

>  <gnina_score_min>  (1825) 
5.533

>  <name>  (1825) 
P131976

>  <exports>  (1825) 
['/opt/xchem-fragalysis-2/maxwin/BulkDock/OUTPUTS/openbind_d68ev3c_c2_elabs_1LOTQJ3.sdf', '/opt/xchem-fragalysis-2/maxwin/BulkDock/OUTPUTS/openbind_d68ev3c_c2_elabs_1LSYI5W.sdf']

$$$$
P131979
     RDKit          3D

 30 32  0  0  0  0  0  0  0  0999 V2000
  -16.5334   -0.0712    8.4748 C   0  0  0  0  0  0  0  0  0  0  0  0
  -15.6163    0.5641    9.4324 N   0  0  0  0  0  0  0  0  0  0  0  0
  -14.2299    0.3331    8.9926 C   0  0  0  0  0  0  0  0  0  0  0  0
  -13.2837    1.4260    9.5195 C   0  0  0  0  0  0  0  0  0  0  0  0
  -12.3726    2.0437    8.4549 C   0  0  0  0  0  0  0  0  0  0  0  0
  -11.1671    1.3339    8.0408 N   0  0  0  0  0  0  0  0  0  0  0  0
  -11.3875   -0.0591    7.6222 C   0  0  0  0  0  0  0  0  0  0  0  0
  -10.1227   -0.6900    7.0084 C   0  0  0  0  0  0  0  0  0  0  0  0
   -8.9334   -0.5545    7.8898 N   0  0  0  0  0  0  0  0  0  0  0  0
   -7.7792   -1.1964    7.4062 C   0  0  0  0  0  0  0  0  0  0  0  0
   -7.8520   -2.4923    6.8660 C   0  0  0  0  0  0  0  0  0  0  0  0
   -6.7335   -3.1443    6.3453 C   0  0  0  0  0  0  0  0  0  0  0  0
   -5.4930   -2.5251    6.3842 C   0  0  0  0  0  0  0  0  0  0  0  0
   -5.3612   -1.2608    6.9623 C   0  0  0  0  0  0  0  0  0  0  0  0
   -4.0061   -0.6215    7.0426 C   0  0  0  0  0  0  0  0  0  0  0  0
   -4.0334    0.7105    7.3296 F   0  0  0  0  0  0  0  0  0  0  0  0
   -3.3266   -0.7282    5.8658 F   0  0  0  0  0  0  0  0  0  0  0  0
   -3.2067   -1.1904    7.9850 F   0  0  0  0  0  0  0  0  0  0  0  0
   -6.5014   -0.6162    7.4701 C   0  0  0  0  0  0  0  0  0  0  0  0
   -8.7831    0.7950    8.4764 C   0  0  0  0  0  0  0  0  0  0  0  0
  -10.1039    1.3391    9.0595 C   0  0  0  0  0  0  0  0  0  0  0  0
  -15.8903    0.1298   10.8083 C   0  0  1  0  0  0  0  0  0  0  0  0
  -14.8060    0.4279   11.6725 O   0  0  0  0  0  0  0  0  0  0  0  0
  -17.1363    0.8390   11.2961 C   0  0  0  0  0  0  0  0  0  0  0  0
  -17.7566    1.9841   10.7178 C   0  0  0  0  0  0  0  0  0  0  0  0
  -18.8939    2.3373   11.3184 N   0  0  0  0  0  0  0  0  0  0  0  0
  -18.9919    1.4610   12.3323 N   0  0  0  0  0  0  0  0  0  0  0  0
  -20.1201    1.5342   13.2304 C   0  0  0  0  0  0  0  0  0  0  0  0
  -17.9499    0.5793   12.3834 C   0  0  0  0  0  0  0  0  0  0  0  0
  -17.6991   -0.7322   13.7303 Br  0  0  0  0  0  0  0  0  0  0  0  0
  1  2  1  0
  2  3  1  0
  3  4  1  0
  4  5  1  0
  5  6  1  0
  6  7  1  0
  7  8  1  0
  8  9  1  0
  9 10  1  0
 10 11  2  0
 11 12  1  0
 12 13  2  0
 13 14  1  0
 14 15  1  0
 15 16  1  0
 15 17  1  0
 15 18  1  0
 14 19  2  0
  9 20  1  0
 20 21  1  0
  2 22  1  0
 22 23  1  1
 22 24  1  0
 24 25  1  0
 25 26  2  0
 26 27  1  0
 27 28  1  0
 27 29  1  0
 29 30  1  0
 21  6  1  0
 29 24  2  0
 19 10  1  0
M  END
>  <ref_mols>  (1826) 
B0426a

>  <gnina_score>  (1826) 
5.327

>  <smina_score_min>  (1826) 
-6.123

>  <ref_pdb>  (1826) 
B0426a

>  <inspiration_score>  (1826) 
None

>  <inchikey>  (1826) 
LCWMHZHHLKWEBT-IBGZPJMESA-N

>  <tags>  (1826) 
BulkDock Fragalysis export,openbind_d68ev3c_c2_elabs_scored,openbind_d68ev3c_c2_elabs_scored_4.5plus,openbind_d68ev3c_c2_elabs,openbind_d68ev3c_c2_elabs_scored_5plus,syndirella_product,openbind_d68ev3c_c2_elabs_scored_top80percent,syndirella_placed

>  <smiles>  (1826) 
CN(CCCN1CCN(c2cccc(C(F)(F)F)c2)CC1)[C@@H](O)c1cnn(C)c1Br

>  <subsites>  (1826) 
None

>  <rmsd(smina/fragmenstein)>  (1826) 
1.417

>  <alias>  (1826) 
None

>  <energy_score>  (1826) 
-45.758099

>  <HIPPO Pose ID>  (1826) 
131979

>  <distance_score>  (1826) 
0.54521

>  <HIPPO Compound ID>  (1826) 
157955

>  <gnina_score_min>  (1826) 
5.511

>  <name>  (1826) 
P131979

>  <exports>  (1826) 
['/opt/xchem-fragalysis-2/maxwin/BulkDock/OUTPUTS/openbind_d68ev3c_c2_elabs_1LOTQJ3.sdf', '/opt/xchem-fragalysis-2/maxwin/BulkDock/OUTPUTS/openbind_d68ev3c_c2_elabs_1LSYI5W.sdf']

$$$$
P131980
     RDKit          3D

 30 32  0  0  0  0  0  0  0  0999 V2000
  -20.2634   -1.8419    6.6861 C   0  0  0  0  0  0  0  0  0  0  0  0
  -18.8832   -1.5209    6.9612 N   0  0  0  0  0  0  0  0  0  0  0  0
  -17.8973   -2.1756    6.3061 N   0  0  0  0  0  0  0  0  0  0  0  0
  -16.7919   -1.5364    6.7158 C   0  0  0  0  0  0  0  0  0  0  0  0
  -17.0429   -0.5720    7.7244 C   0  0  0  0  0  0  0  0  0  0  0  0
  -16.0052    0.2261    8.4536 C   0  0  1  0  0  0  0  0  0  0  0  0
  -16.4059    1.5729    8.5768 O   0  0  0  0  0  0  0  0  0  0  0  0
  -15.8754   -0.3848    9.7594 N   0  0  0  0  0  0  0  0  0  0  0  0
  -15.1560    0.3633   10.7783 C   0  0  0  0  0  0  0  0  0  0  0  0
  -13.6637    0.5748   10.5420 C   0  0  0  0  0  0  0  0  0  0  0  0
  -13.3559    1.7273    9.5858 C   0  0  0  0  0  0  0  0  0  0  0  0
  -11.8748    2.1015    9.5511 C   0  0  0  0  0  0  0  0  0  0  0  0
  -11.0644    1.4321    8.5221 N   0  0  0  0  0  0  0  0  0  0  0  0
  -11.0850   -0.0448    8.6213 C   0  0  0  0  0  0  0  0  0  0  0  0
  -10.1053   -0.7543    7.6602 C   0  0  0  0  0  0  0  0  0  0  0  0
   -8.7319   -0.2367    7.8259 N   0  0  0  0  0  0  0  0  0  0  0  0
   -7.6760   -0.9716    7.2828 C   0  0  0  0  0  0  0  0  0  0  0  0
   -7.8523   -2.1741    6.5786 C   0  0  0  0  0  0  0  0  0  0  0  0
   -6.7729   -2.8980    6.0652 C   0  0  0  0  0  0  0  0  0  0  0  0
   -5.4798   -2.4286    6.2387 C   0  0  0  0  0  0  0  0  0  0  0  0
   -5.2584   -1.2490    6.9513 C   0  0  0  0  0  0  0  0  0  0  0  0
   -3.8649   -0.7361    7.1443 C   0  0  0  0  0  0  0  0  0  0  0  0
   -3.8016    0.5881    7.4619 F   0  0  0  0  0  0  0  0  0  0  0  0
   -3.1260   -0.8717    6.0093 F   0  0  0  0  0  0  0  0  0  0  0  0
   -3.1824   -1.3909    8.1190 F   0  0  0  0  0  0  0  0  0  0  0  0
   -6.3526   -0.5553    7.4848 C   0  0  0  0  0  0  0  0  0  0  0  0
   -8.6873    1.2323    7.6769 C   0  0  0  0  0  0  0  0  0  0  0  0
   -9.6645    1.8954    8.6649 C   0  0  0  0  0  0  0  0  0  0  0  0
  -18.4181   -0.6048    7.8591 C   0  0  0  0  0  0  0  0  0  0  0  0
  -19.4745    0.4189    9.0705 Br  0  0  0  0  0  0  0  0  0  0  0  0
  1  2  1  0
  2  3  1  0
  3  4  2  0
  4  5  1  0
  5  6  1  0
  6  7  1  1
  6  8  1  0
  8  9  1  0
  9 10  1  0
 10 11  1  0
 11 12  1  0
 12 13  1  0
 13 14  1  0
 14 15  1  0
 15 16  1  0
 16 17  1  0
 17 18  2  0
 18 19  1  0
 19 20  2  0
 20 21  1  0
 21 22  1  0
 22 23  1  0
 22 24  1  0
 22 25  1  0
 21 26  2  0
 16 27  1  0
 27 28  1  0
  5 29  2  0
 29 30  1  0
 29  2  1  0
 28 13  1  0
 26 17  1  0
M  END
>  <ref_mols>  (1827) 
B0426a

>  <gnina_score>  (1827) 
5.511

>  <smina_score_min>  (1827) 
-6.5

>  <ref_pdb>  (1827) 
B0426a

>  <inspiration_score>  (1827) 
None

>  <inchikey>  (1827) 
MBBYMQRKHSYICR-LJQANCHMSA-N

>  <tags>  (1827) 
BulkDock Fragalysis export,openbind_d68ev3c_c2_elabs_scored,openbind_d68ev3c_c2_elabs_scored_4.5plus,openbind_d68ev3c_c2_elabs,openbind_d68ev3c_c2_elabs_scored_5plus,syndirella_product,openbind_d68ev3c_c2_elabs_scored_top80percent,syndirella_placed

>  <smiles>  (1827) 
Cn1ncc([C@@H](O)NCCCCN2CCN(c3cccc(C(F)(F)F)c3)CC2)c1Br

>  <subsites>  (1827) 
None

>  <rmsd(smina/fragmenstein)>  (1827) 
0.838

>  <alias>  (1827) 
None

>  <energy_score>  (1827) 
-60.307432

>  <HIPPO Pose ID>  (1827) 
131980

>  <distance_score>  (1827) 
0.531494

>  <HIPPO Compound ID>  (1827) 
157956

>  <gnina_score_min>  (1827) 
5.484

>  <name>  (1827) 
P131980

>  <exports>  (1827) 
['/opt/xchem-fragalysis-2/maxwin/BulkDock/OUTPUTS/openbind_d68ev3c_c2_elabs_1LOTQJ3.sdf', '/opt/xchem-fragalysis-2/maxwin/BulkDock/OUTPUTS/openbind_d68ev3c_c2_elabs_1LSYI5W.sdf']

$$$$
P131982
     RDKit          3D

 30 32  0  0  0  0  0  0  0  0999 V2000
  -22.5287    0.3011   10.0740 C   0  0  0  0  0  0  0  0  0  0  0  0
  -21.2782    0.0114   10.9031 C   0  0  0  0  0  0  0  0  0  0  0  0
  -21.3393   -1.3762   11.5411 C   0  0  0  0  0  0  0  0  0  0  0  0
  -20.0612    0.1783   10.1166 N   0  0  0  0  0  0  0  0  0  0  0  0
  -19.0378    1.0429   10.3837 C   0  0  0  0  0  0  0  0  0  0  0  0
  -18.0902    0.8435    9.3998 C   0  0  0  0  0  0  0  0  0  0  0  0
  -16.7599    1.5038    9.2365 C   0  0  0  0  0  0  0  0  0  0  0  0
  -15.7052    0.4900    9.2418 N   0  0  0  0  0  0  0  0  0  0  0  0
  -15.5493   -0.1653   10.5365 C   0  0  0  0  0  0  0  0  0  0  0  0
  -14.4254    0.9798    8.6991 C   0  0  0  0  0  0  0  0  0  0  0  0
  -13.5800    1.8341    9.6569 C   0  0  0  0  0  0  0  0  0  0  0  0
  -12.2993    2.4017    9.0217 C   0  0  0  0  0  0  0  0  0  0  0  0
  -11.4247    1.4328    8.3523 N   0  0  0  0  0  0  0  0  0  0  0  0
  -10.2158    2.1054    7.8150 C   0  0  0  0  0  0  0  0  0  0  0  0
   -9.2365    1.1430    7.0951 C   0  0  0  0  0  0  0  0  0  0  0  0
   -8.8683    0.0179    7.9811 N   0  0  0  0  0  0  0  0  0  0  0  0
   -7.8645   -0.8043    7.4438 C   0  0  0  0  0  0  0  0  0  0  0  0
   -8.0924   -2.0960    6.9487 C   0  0  0  0  0  0  0  0  0  0  0  0
   -7.0491   -2.8749    6.4421 C   0  0  0  0  0  0  0  0  0  0  0  0
   -5.7503   -2.3775    6.4358 C   0  0  0  0  0  0  0  0  0  0  0  0
   -5.4831   -1.0979    6.9369 C   0  0  0  0  0  0  0  0  0  0  0  0
   -4.0714   -0.5876    6.9691 C   0  0  0  0  0  0  0  0  0  0  0  0
   -3.3039   -1.2099    7.9050 F   0  0  0  0  0  0  0  0  0  0  0  0
   -3.9670    0.7467    7.2278 F   0  0  0  0  0  0  0  0  0  0  0  0
   -3.4302   -0.7777    5.7797 F   0  0  0  0  0  0  0  0  0  0  0  0
   -6.5459   -0.3242    7.4282 C   0  0  0  0  0  0  0  0  0  0  0  0
  -10.0700   -0.6711    8.5022 C   0  0  0  0  0  0  0  0  0  0  0  0
  -10.9864    0.3286    9.2397 C   0  0  0  0  0  0  0  0  0  0  0  0
  -18.6606   -0.1585    8.5782 C   0  0  0  0  0  0  0  0  0  0  0  0
  -19.8483   -0.5807    9.0237 N   0  0  0  0  0  0  0  0  0  0  0  0
  1  2  1  0
  2  3  1  0
  2  4  1  0
  4  5  1  0
  5  6  2  0
  6  7  1  0
  7  8  1  0
  8  9  1  0
  8 10  1  0
 10 11  1  0
 11 12  1  0
 12 13  1  0
 13 14  1  0
 14 15  1  0
 15 16  1  0
 16 17  1  0
 17 18  2  0
 18 19  1  0
 19 20  2  0
 20 21  1  0
 21 22  1  0
 22 23  1  0
 22 24  1  0
 22 25  1  0
 21 26  2  0
 16 27  1  0
 27 28  1  0
  6 29  1  0
 29 30  2  0
 30  4  1  0
 28 13  1  0
 26 17  1  0
M  END
>  <ref_mols>  (1828) 
B0426a

>  <gnina_score>  (1828) 
5.177

>  <smina_score_min>  (1828) 
-5.251

>  <ref_pdb>  (1828) 
B0426a

>  <inspiration_score>  (1828) 
None

>  <inchikey>  (1828) 
SUJVSCSUEAFMFY-UHFFFAOYSA-N

>  <tags>  (1828) 
BulkDock Fragalysis export,openbind_d68ev3c_c2_elabs_scored,openbind_d68ev3c_c2_elabs_scored_4.5plus,openbind_d68ev3c_c2_elabs,openbind_d68ev3c_c2_elabs_scored_5plus,syndirella_product,openbind_d68ev3c_c2_elabs_scored_top80percent,syndirella_placed

>  <smiles>  (1828) 
CC(C)n1cc(CN(C)CCCN2CCN(c3cccc(C(F)(F)F)c3)CC2)cn1

>  <subsites>  (1828) 
None

>  <rmsd(smina/fragmenstein)>  (1828) 
1.731

>  <alias>  (1828) 
None

>  <energy_score>  (1828) 
-66.973734

>  <HIPPO Pose ID>  (1828) 
131982

>  <distance_score>  (1828) 
0.833743

>  <HIPPO Compound ID>  (1828) 
157957

>  <gnina_score_min>  (1828) 
5.37

>  <name>  (1828) 
P131982

>  <exports>  (1828) 
['/opt/xchem-fragalysis-2/maxwin/BulkDock/OUTPUTS/openbind_d68ev3c_c2_elabs_1LOTQJ3.sdf', '/opt/xchem-fragalysis-2/maxwin/BulkDock/OUTPUTS/openbind_d68ev3c_c2_elabs_1LSYI5W.sdf']

$$$$
P131983
     RDKit          3D

 30 32  0  0  0  0  0  0  0  0999 V2000
  -21.0437    0.0114   11.8331 C   0  0  0  0  0  0  0  0  0  0  0  0
  -20.1171    1.2077   11.6789 C   0  0  0  0  0  0  0  0  0  0  0  0
  -18.6909    0.8328   11.9188 C   0  0  0  0  0  0  0  0  0  0  0  0
  -17.7048    0.4414   11.0188 C   0  0  0  0  0  0  0  0  0  0  0  0
  -17.8504    0.2908    9.5366 C   0  0  0  0  0  0  0  0  0  0  0  0
  -16.5783    0.1677    8.8434 N   0  0  0  0  0  0  0  0  0  0  0  0
  -15.9598    1.4521    8.5455 C   0  0  0  0  0  0  0  0  0  0  0  0
  -14.4466    1.3535    8.3202 C   0  0  0  0  0  0  0  0  0  0  0  0
  -13.6705    1.1234    9.6180 C   0  0  0  0  0  0  0  0  0  0  0  0
  -12.2351    1.6732    9.5896 C   0  0  0  0  0  0  0  0  0  0  0  0
  -11.3434    1.1666    8.5357 N   0  0  0  0  0  0  0  0  0  0  0  0
  -11.2584   -0.3114    8.5636 C   0  0  0  0  0  0  0  0  0  0  0  0
  -10.2328   -0.8876    7.5659 C   0  0  0  0  0  0  0  0  0  0  0  0
   -8.8854   -0.3179    7.7955 N   0  0  0  0  0  0  0  0  0  0  0  0
   -7.7833   -0.9850    7.2535 C   0  0  0  0  0  0  0  0  0  0  0  0
   -7.8954   -2.1873    6.5313 C   0  0  0  0  0  0  0  0  0  0  0  0
   -6.7821   -2.8758    6.0415 C   0  0  0  0  0  0  0  0  0  0  0  0
   -5.5101   -2.3713    6.2540 C   0  0  0  0  0  0  0  0  0  0  0  0
   -5.3455   -1.1844    6.9716 C   0  0  0  0  0  0  0  0  0  0  0  0
   -3.9654   -0.6482    7.2076 C   0  0  0  0  0  0  0  0  0  0  0  0
   -3.1769   -0.7967    6.1063 F   0  0  0  0  0  0  0  0  0  0  0  0
   -3.9299    0.6815    7.5031 F   0  0  0  0  0  0  0  0  0  0  0  0
   -3.3122   -1.2778    8.2191 F   0  0  0  0  0  0  0  0  0  0  0  0
   -6.4775   -0.5210    7.4771 C   0  0  0  0  0  0  0  0  0  0  0  0
   -8.9129    1.1602    7.7687 C   0  0  0  0  0  0  0  0  0  0  0  0
   -9.9773    1.7089    8.7504 C   0  0  0  0  0  0  0  0  0  0  0  0
  -16.5879    0.1751   11.8452 C   0  0  0  0  0  0  0  0  0  0  0  0
  -16.8222    0.4020   13.1376 N   0  0  0  0  0  0  0  0  0  0  0  0
  -18.1102    0.7881   13.1640 N   0  0  0  0  0  0  0  0  0  0  0  0
  -18.7277    1.0426   14.4453 C   0  0  0  0  0  0  0  0  0  0  0  0
  1  2  1  0
  2  3  1  0
  3  4  2  0
  4  5  1  0
  5  6  1  0
  6  7  1  0
  7  8  1  0
  8  9  1  0
  9 10  1  0
 10 11  1  0
 11 12  1  0
 12 13  1  0
 13 14  1  0
 14 15  1  0
 15 16  2  0
 16 17  1  0
 17 18  2  0
 18 19  1  0
 19 20  1  0
 20 21  1  0
 20 22  1  0
 20 23  1  0
 19 24  2  0
 14 25  1  0
 25 26  1  0
  4 27  1  0
 27 28  2  0
 28 29  1  0
 29 30  1  0
 29  3  1  0
 26 11  1  0
 24 15  1  0
M  END
>  <ref_mols>  (1829) 
B0426a

>  <gnina_score>  (1829) 
5.558

>  <smina_score_min>  (1829) 
-5.782

>  <ref_pdb>  (1829) 
B0426a

>  <inspiration_score>  (1829) 
None

>  <inchikey>  (1829) 
DINLSDZYQNLHNS-UHFFFAOYSA-N

>  <tags>  (1829) 
BulkDock Fragalysis export,openbind_d68ev3c_c2_elabs_scored,openbind_d68ev3c_c2_elabs_scored_4.5plus,openbind_d68ev3c_c2_elabs,openbind_d68ev3c_c2_elabs_scored_5plus,syndirella_product,openbind_d68ev3c_c2_elabs_scored_top80percent,syndirella_placed

>  <smiles>  (1829) 
CCc1c(CNCCCCN2CCN(c3cccc(C(F)(F)F)c3)CC2)cnn1C

>  <subsites>  (1829) 
None

>  <rmsd(smina/fragmenstein)>  (1829) 
0.954

>  <alias>  (1829) 
None

>  <energy_score>  (1829) 
-60.954263

>  <HIPPO Pose ID>  (1829) 
131983

>  <distance_score>  (1829) 
0.708799

>  <HIPPO Compound ID>  (1829) 
157958

>  <gnina_score_min>  (1829) 
5.467

>  <name>  (1829) 
P131983

>  <exports>  (1829) 
['/opt/xchem-fragalysis-2/maxwin/BulkDock/OUTPUTS/openbind_d68ev3c_c2_elabs_1LOTQJ3.sdf', '/opt/xchem-fragalysis-2/maxwin/BulkDock/OUTPUTS/openbind_d68ev3c_c2_elabs_1LSYI5W.sdf']

$$$$
P131984
     RDKit          3D

 30 32  0  0  0  0  0  0  0  0999 V2000
  -19.5860    0.3971    5.1184 C   0  0  0  0  0  0  0  0  0  0  0  0
  -20.3120    1.2235    6.1731 C   0  0  0  0  0  0  0  0  0  0  0  0
  -21.8282    1.1539    5.9979 C   0  0  0  0  0  0  0  0  0  0  0  0
  -19.8817    0.8303    7.5109 N   0  0  0  0  0  0  0  0  0  0  0  0
  -18.9391    1.4720    8.2647 C   0  0  0  0  0  0  0  0  0  0  0  0
  -18.7399    0.7005    9.3930 C   0  0  0  0  0  0  0  0  0  0  0  0
  -17.7860    0.9026   10.5188 C   0  0  0  0  0  0  0  0  0  0  0  0
  -16.4738    1.3296   10.0351 N   0  0  0  0  0  0  0  0  0  0  0  0
  -15.7233    0.2582    9.3724 C   0  0  0  0  0  0  0  0  0  0  0  0
  -14.4035    0.7955    8.8018 C   0  0  0  0  0  0  0  0  0  0  0  0
  -13.4631    1.2988    9.8996 C   0  0  0  0  0  0  0  0  0  0  0  0
  -12.1856    1.9828    9.3866 C   0  0  0  0  0  0  0  0  0  0  0  0
  -11.3091    1.1916    8.5111 N   0  0  0  0  0  0  0  0  0  0  0  0
  -10.9659   -0.1205    9.1021 C   0  0  0  0  0  0  0  0  0  0  0  0
  -10.0027   -0.9328    8.2182 C   0  0  0  0  0  0  0  0  0  0  0  0
   -8.7595   -0.1868    7.9592 N   0  0  0  0  0  0  0  0  0  0  0  0
   -7.7162   -0.9100    7.3676 C   0  0  0  0  0  0  0  0  0  0  0  0
   -7.8926   -2.1533    6.7369 C   0  0  0  0  0  0  0  0  0  0  0  0
   -6.8163   -2.8739    6.2167 C   0  0  0  0  0  0  0  0  0  0  0  0
   -5.5304   -2.3653    6.3264 C   0  0  0  0  0  0  0  0  0  0  0  0
   -5.3138   -1.1349    6.9573 C   0  0  0  0  0  0  0  0  0  0  0  0
   -3.9161   -0.6160    7.1069 C   0  0  0  0  0  0  0  0  0  0  0  0
   -3.8436    0.7204    7.3609 F   0  0  0  0  0  0  0  0  0  0  0  0
   -3.2243   -1.2281    8.1042 F   0  0  0  0  0  0  0  0  0  0  0  0
   -3.1892   -0.8124    5.9720 F   0  0  0  0  0  0  0  0  0  0  0  0
   -6.4079   -0.4208    7.4668 C   0  0  0  0  0  0  0  0  0  0  0  0
   -9.0165    1.1537    7.3999 C   0  0  0  0  0  0  0  0  0  0  0  0
  -10.0398    1.9277    8.2717 C   0  0  0  0  0  0  0  0  0  0  0  0
  -19.6741   -0.3498    9.2453 C   0  0  0  0  0  0  0  0  0  0  0  0
  -20.3524   -0.2896    8.0979 N   0  0  0  0  0  0  0  0  0  0  0  0
  1  2  1  0
  2  3  1  0
  2  4  1  0
  4  5  1  0
  5  6  2  0
  6  7  1  0
  7  8  1  0
  8  9  1  0
  9 10  1  0
 10 11  1  0
 11 12  1  0
 12 13  1  0
 13 14  1  0
 14 15  1  0
 15 16  1  0
 16 17  1  0
 17 18  2  0
 18 19  1  0
 19 20  2  0
 20 21  1  0
 21 22  1  0
 22 23  1  0
 22 24  1  0
 22 25  1  0
 21 26  2  0
 16 27  1  0
 27 28  1  0
  6 29  1  0
 29 30  2  0
 30  4  1  0
 28 13  1  0
 26 17  1  0
M  END
>  <ref_mols>  (1830) 
B0426a

>  <gnina_score>  (1830) 
5.097

>  <smina_score_min>  (1830) 
-5.393

>  <ref_pdb>  (1830) 
B0426a

>  <inspiration_score>  (1830) 
None

>  <inchikey>  (1830) 
KJPUYKKNQCCIAC-UHFFFAOYSA-N

>  <tags>  (1830) 
BulkDock Fragalysis export,openbind_d68ev3c_c2_elabs_scored,openbind_d68ev3c_c2_elabs_scored_4.5plus,openbind_d68ev3c_c2_elabs,openbind_d68ev3c_c2_elabs_scored_5plus,syndirella_product,openbind_d68ev3c_c2_elabs_scored_top80percent,syndirella_placed

>  <smiles>  (1830) 
CC(C)n1cc(CNCCCCN2CCN(c3cccc(C(F)(F)F)c3)CC2)cn1

>  <subsites>  (1830) 
None

>  <rmsd(smina/fragmenstein)>  (1830) 
1.494

>  <alias>  (1830) 
None

>  <energy_score>  (1830) 
-54.580713

>  <HIPPO Pose ID>  (1830) 
131984

>  <distance_score>  (1830) 
0.574183

>  <HIPPO Compound ID>  (1830) 
157959

>  <gnina_score_min>  (1830) 
5.316

>  <name>  (1830) 
P131984

>  <exports>  (1830) 
['/opt/xchem-fragalysis-2/maxwin/BulkDock/OUTPUTS/openbind_d68ev3c_c2_elabs_1LOTQJ3.sdf', '/opt/xchem-fragalysis-2/maxwin/BulkDock/OUTPUTS/openbind_d68ev3c_c2_elabs_1LSYI5W.sdf']

$$$$
P131985
     RDKit          3D

 30 32  0  0  0  0  0  0  0  0999 V2000
  -15.7561    6.9349   11.5682 C   0  0  0  0  0  0  0  0  0  0  0  0
  -15.9365    5.6459   10.7825 C   0  0  0  0  0  0  0  0  0  0  0  0
  -15.1564    4.5364   11.2977 N   0  0  0  0  0  0  0  0  0  0  0  0
  -15.5908    3.2603   11.5314 C   0  0  0  0  0  0  0  0  0  0  0  0
  -14.4680    2.5100   11.8383 C   0  0  0  0  0  0  0  0  0  0  0  0
  -14.2857    1.0452   12.0833 C   0  0  1  0  0  0  0  0  0  0  0  0
  -14.5038    0.7983   13.4657 O   0  0  0  0  0  0  0  0  0  0  0  0
  -15.2099    0.1875   11.3729 N   0  0  0  0  0  0  0  0  0  0  0  0
  -15.3952    0.3267    9.9353 C   0  0  0  0  0  0  0  0  0  0  0  0
  -14.1579    0.2784    9.0336 C   0  0  0  0  0  0  0  0  0  0  0  0
  -13.3113    1.5499    9.0928 C   0  0  0  0  0  0  0  0  0  0  0  0
  -12.4676    1.8672    7.8634 C   0  0  0  0  0  0  0  0  0  0  0  0
  -11.2300    1.1372    7.6405 N   0  0  0  0  0  0  0  0  0  0  0  0
  -10.1536    1.4527    8.5928 C   0  0  0  0  0  0  0  0  0  0  0  0
   -8.8107    0.8395    8.1315 C   0  0  0  0  0  0  0  0  0  0  0  0
   -8.8954   -0.6105    7.8163 N   0  0  0  0  0  0  0  0  0  0  0  0
   -7.7183   -1.2437    7.3652 C   0  0  0  0  0  0  0  0  0  0  0  0
   -7.7470   -2.5256    6.7832 C   0  0  0  0  0  0  0  0  0  0  0  0
   -6.6027   -3.1490    6.2873 C   0  0  0  0  0  0  0  0  0  0  0  0
   -5.3748   -2.5196    6.3965 C   0  0  0  0  0  0  0  0  0  0  0  0
   -5.2839   -1.2744    7.0207 C   0  0  0  0  0  0  0  0  0  0  0  0
   -3.9410   -0.6258    7.1697 C   0  0  0  0  0  0  0  0  0  0  0  0
   -3.9914    0.7063    7.4489 F   0  0  0  0  0  0  0  0  0  0  0  0
   -3.1860   -1.1887    8.1497 F   0  0  0  0  0  0  0  0  0  0  0  0
   -3.2095   -0.7341    6.0262 F   0  0  0  0  0  0  0  0  0  0  0  0
   -6.4494   -0.6581    7.5048 C   0  0  0  0  0  0  0  0  0  0  0  0
  -10.1217   -0.9970    7.0716 C   0  0  0  0  0  0  0  0  0  0  0  0
  -11.3851   -0.3190    7.6123 C   0  0  0  0  0  0  0  0  0  0  0  0
  -13.4304    3.4796   11.8746 C   0  0  0  0  0  0  0  0  0  0  0  0
  -13.8381    4.6888   11.4915 N   0  0  0  0  0  0  0  0  0  0  0  0
  1  2  1  0
  2  3  1  0
  3  4  1  0
  4  5  2  0
  5  6  1  0
  6  7  1  1
  6  8  1  0
  8  9  1  0
  9 10  1  0
 10 11  1  0
 11 12  1  0
 12 13  1  0
 13 14  1  0
 14 15  1  0
 15 16  1  0
 16 17  1  0
 17 18  2  0
 18 19  1  0
 19 20  2  0
 20 21  1  0
 21 22  1  0
 22 23  1  0
 22 24  1  0
 22 25  1  0
 21 26  2  0
 16 27  1  0
 27 28  1  0
  5 29  1  0
 29 30  2  0
 30  3  1  0
 28 13  1  0
 26 17  1  0
M  END
>  <ref_mols>  (1831) 
B0426a

>  <gnina_score>  (1831) 
5.546

>  <smina_score_min>  (1831) 
-5.826

>  <ref_pdb>  (1831) 
B0426a

>  <inspiration_score>  (1831) 
None

>  <inchikey>  (1831) 
PAHKGJUCIVTUTN-HXUWFJFHSA-N

>  <tags>  (1831) 
BulkDock Fragalysis export,openbind_d68ev3c_c2_elabs_scored,openbind_d68ev3c_c2_elabs_scored_4.5plus,openbind_d68ev3c_c2_elabs,openbind_d68ev3c_c2_elabs_scored_5plus,syndirella_product,openbind_d68ev3c_c2_elabs_scored_top80percent,syndirella_placed

>  <smiles>  (1831) 
CCn1cc([C@@H](O)NCCCCN2CCN(c3cccc(C(F)(F)F)c3)CC2)cn1

>  <subsites>  (1831) 
None

>  <rmsd(smina/fragmenstein)>  (1831) 
1.092

>  <alias>  (1831) 
None

>  <energy_score>  (1831) 
-48.25784

>  <HIPPO Pose ID>  (1831) 
131985

>  <distance_score>  (1831) 
0.595226

>  <HIPPO Compound ID>  (1831) 
157960

>  <gnina_score_min>  (1831) 
5.492

>  <name>  (1831) 
P131985

>  <exports>  (1831) 
['/opt/xchem-fragalysis-2/maxwin/BulkDock/OUTPUTS/openbind_d68ev3c_c2_elabs_1LOTQJ3.sdf', '/opt/xchem-fragalysis-2/maxwin/BulkDock/OUTPUTS/openbind_d68ev3c_c2_elabs_1LSYI5W.sdf']

$$$$
P131987
     RDKit          3D

 30 32  0  0  0  0  0  0  0  0999 V2000
  -14.3668   -0.7303    4.3636 C   0  0  0  0  0  0  0  0  0  0  0  0
  -14.9319   -1.7416    5.3436 C   0  0  0  0  0  0  0  0  0  0  0  0
  -15.7550   -1.1534    6.3828 N   0  0  0  0  0  0  0  0  0  0  0  0
  -15.3311   -0.2539    7.3199 C   0  0  0  0  0  0  0  0  0  0  0  0
  -16.3351   -0.1268    8.2587 C   0  0  0  0  0  0  0  0  0  0  0  0
  -16.4378    0.6871    9.5223 C   0  0  2  0  0  0  0  0  0  0  0  0
  -16.3251    2.0846    9.2814 O   0  0  0  0  0  0  0  0  0  0  0  0
  -15.5637    0.2187   10.6125 N   0  0  0  0  0  0  0  0  0  0  0  0
  -16.3206    0.2210   11.8707 C   0  0  0  0  0  0  0  0  0  0  0  0
  -14.3254    1.0067   10.8125 C   0  0  0  0  0  0  0  0  0  0  0  0
  -13.4222    0.9450    9.5953 C   0  0  0  0  0  0  0  0  0  0  0  0
  -11.9997    1.4429    9.8244 C   0  0  0  0  0  0  0  0  0  0  0  0
  -11.1218    1.1114    8.6783 N   0  0  0  0  0  0  0  0  0  0  0  0
  -11.0713   -0.3625    8.4943 C   0  0  0  0  0  0  0  0  0  0  0  0
  -10.0490   -0.8657    7.4727 C   0  0  0  0  0  0  0  0  0  0  0  0
   -8.7059   -0.3537    7.7815 N   0  0  0  0  0  0  0  0  0  0  0  0
   -7.6125   -1.0184    7.2322 C   0  0  0  0  0  0  0  0  0  0  0  0
   -7.7349   -2.2045    6.4818 C   0  0  0  0  0  0  0  0  0  0  0  0
   -6.6309   -2.8948    5.9792 C   0  0  0  0  0  0  0  0  0  0  0  0
   -5.3578   -2.4057    6.2059 C   0  0  0  0  0  0  0  0  0  0  0  0
   -5.1871   -1.2371    6.9506 C   0  0  0  0  0  0  0  0  0  0  0  0
   -3.8108   -0.7050    7.1913 C   0  0  0  0  0  0  0  0  0  0  0  0
   -3.1621   -1.3330    8.2046 F   0  0  0  0  0  0  0  0  0  0  0  0
   -3.7745    0.6258    7.4808 F   0  0  0  0  0  0  0  0  0  0  0  0
   -3.0308   -0.8599    6.0888 F   0  0  0  0  0  0  0  0  0  0  0  0
   -6.3075   -0.5752    7.4713 C   0  0  0  0  0  0  0  0  0  0  0  0
   -8.6969    1.1195    7.9225 C   0  0  0  0  0  0  0  0  0  0  0  0
   -9.7443    1.5763    8.9682 C   0  0  0  0  0  0  0  0  0  0  0  0
  -17.3764   -0.9222    7.6965 C   0  0  0  0  0  0  0  0  0  0  0  0
  -17.0376   -1.5445    6.5600 N   0  0  0  0  0  0  0  0  0  0  0  0
  1  2  1  0
  2  3  1  0
  3  4  1  0
  4  5  2  0
  5  6  1  0
  6  7  1  6
  6  8  1  0
  8  9  1  0
  8 10  1  0
 10 11  1  0
 11 12  1  0
 12 13  1  0
 13 14  1  0
 14 15  1  0
 15 16  1  0
 16 17  1  0
 17 18  2  0
 18 19  1  0
 19 20  2  0
 20 21  1  0
 21 22  1  0
 22 23  1  0
 22 24  1  0
 22 25  1  0
 21 26  2  0
 16 27  1  0
 27 28  1  0
  5 29  1  0
 29 30  2  0
 30  3  1  0
 28 13  1  0
 26 17  1  0
M  END
>  <ref_mols>  (1832) 
B0426a

>  <gnina_score>  (1832) 
5.698

>  <smina_score_min>  (1832) 
-5.974

>  <ref_pdb>  (1832) 
B0426a

>  <inspiration_score>  (1832) 
None

>  <inchikey>  (1832) 
ZWIWHIKLKSSJKI-FQEVSTJZSA-N

>  <tags>  (1832) 
BulkDock Fragalysis export,openbind_d68ev3c_c2_elabs_scored,openbind_d68ev3c_c2_elabs_scored_4.5plus,openbind_d68ev3c_c2_elabs,openbind_d68ev3c_c2_elabs_scored_5plus,syndirella_product,openbind_d68ev3c_c2_elabs_scored_top80percent,syndirella_placed

>  <smiles>  (1832) 
CCn1cc([C@H](O)N(C)CCCN2CCN(c3cccc(C(F)(F)F)c3)CC2)cn1

>  <subsites>  (1832) 
None

>  <rmsd(smina/fragmenstein)>  (1832) 
0.648

>  <alias>  (1832) 
None

>  <energy_score>  (1832) 
-61.493508

>  <HIPPO Pose ID>  (1832) 
131987

>  <distance_score>  (1832) 
0.686481

>  <HIPPO Compound ID>  (1832) 
157961

>  <gnina_score_min>  (1832) 
5.589

>  <name>  (1832) 
P131987

>  <exports>  (1832) 
['/opt/xchem-fragalysis-2/maxwin/BulkDock/OUTPUTS/openbind_d68ev3c_c2_elabs_1LOTQJ3.sdf', '/opt/xchem-fragalysis-2/maxwin/BulkDock/OUTPUTS/openbind_d68ev3c_c2_elabs_1LSYI5W.sdf']

$$$$
P131990
     RDKit          3D

 30 32  0  0  0  0  0  0  0  0999 V2000
  -19.4860    3.8521    9.7684 C   0  0  0  0  0  0  0  0  0  0  0  0
  -18.2760    3.2413    9.2755 N   0  0  0  0  0  0  0  0  0  0  0  0
  -17.9919    1.9073    9.2233 C   0  0  0  0  0  0  0  0  0  0  0  0
  -16.7155    1.7900    8.6948 C   0  0  0  0  0  0  0  0  0  0  0  0
  -15.9170    0.5656    8.4197 C   0  0  2  0  0  0  0  0  0  0  0  0
  -16.5413   -0.1991    7.3943 O   0  0  0  0  0  0  0  0  0  0  0  0
  -15.8635   -0.2739    9.5963 N   0  0  0  0  0  0  0  0  0  0  0  0
  -15.0338    0.2334   10.6862 C   0  0  0  0  0  0  0  0  0  0  0  0
  -13.5325    0.2716   10.3775 C   0  0  0  0  0  0  0  0  0  0  0  0
  -12.9718    1.6702   10.1108 C   0  0  0  0  0  0  0  0  0  0  0  0
  -12.3999    1.9735    8.7175 C   0  0  0  0  0  0  0  0  0  0  0  0
  -11.1973    1.3047    8.2321 N   0  0  0  0  0  0  0  0  0  0  0  0
  -10.0229    1.4395    9.1050 C   0  0  0  0  0  0  0  0  0  0  0  0
   -8.7427    0.9039    8.4197 C   0  0  0  0  0  0  0  0  0  0  0  0
   -8.8982   -0.4772    7.9062 N   0  0  0  0  0  0  0  0  0  0  0  0
   -7.7676   -1.1366    7.3991 C   0  0  0  0  0  0  0  0  0  0  0  0
   -7.8574   -2.4410    6.8807 C   0  0  0  0  0  0  0  0  0  0  0  0
   -6.7519   -3.1146    6.3573 C   0  0  0  0  0  0  0  0  0  0  0  0
   -5.5045   -2.5101    6.3734 C   0  0  0  0  0  0  0  0  0  0  0  0
   -5.3541   -1.2376    6.9273 C   0  0  0  0  0  0  0  0  0  0  0  0
   -3.9906   -0.6150    6.9909 C   0  0  0  0  0  0  0  0  0  0  0  0
   -3.1958   -1.1763    7.9414 F   0  0  0  0  0  0  0  0  0  0  0  0
   -3.3178   -0.7515    5.8137 F   0  0  0  0  0  0  0  0  0  0  0  0
   -4.0005    0.7223    7.2538 F   0  0  0  0  0  0  0  0  0  0  0  0
   -6.4826   -0.5699    7.4323 C   0  0  0  0  0  0  0  0  0  0  0  0
  -10.1555   -0.6793    7.1442 C   0  0  0  0  0  0  0  0  0  0  0  0
  -11.3689   -0.1169    7.9066 C   0  0  0  0  0  0  0  0  0  0  0  0
  -16.3659    3.1236    8.4560 C   0  0  0  0  0  0  0  0  0  0  0  0
  -15.2564    3.6353    7.9329 O   0  0  0  0  0  0  0  0  0  0  0  0
  -17.2834    4.0183    8.7926 N   0  0  0  0  0  0  0  0  0  0  0  0
  1  2  1  0
  2  3  1  0
  3  4  2  0
  4  5  1  0
  5  6  1  6
  5  7  1  0
  7  8  1  0
  8  9  1  0
  9 10  1  0
 10 11  1  0
 11 12  1  0
 12 13  1  0
 13 14  1  0
 14 15  1  0
 15 16  1  0
 16 17  2  0
 17 18  1  0
 18 19  2  0
 19 20  1  0
 20 21  1  0
 21 22  1  0
 21 23  1  0
 21 24  1  0
 20 25  2  0
 15 26  1  0
 26 27  1  0
  4 28  1  0
 28 29  1  0
 28 30  2  0
 30  2  1  0
 27 12  1  0
 25 16  1  0
M  END
>  <ref_mols>  (1833) 
B0426a

>  <gnina_score>  (1833) 
5.376

>  <smina_score_min>  (1833) 
-5.789

>  <ref_pdb>  (1833) 
B0426a

>  <inspiration_score>  (1833) 
None

>  <inchikey>  (1833) 
ISVMDHDZMACMTI-SFHVURJKSA-N

>  <tags>  (1833) 
BulkDock Fragalysis export,openbind_d68ev3c_c2_elabs_scored,openbind_d68ev3c_c2_elabs_scored_4.5plus,openbind_d68ev3c_c2_elabs,openbind_d68ev3c_c2_elabs_scored_5plus,syndirella_product,openbind_d68ev3c_c2_elabs_scored_top80percent,syndirella_placed

>  <smiles>  (1833) 
Cn1cc([C@H](O)NCCCCN2CCN(c3cccc(C(F)(F)F)c3)CC2)c(O)n1

>  <subsites>  (1833) 
None

>  <rmsd(smina/fragmenstein)>  (1833) 
0.875

>  <alias>  (1833) 
None

>  <energy_score>  (1833) 
-67.887987

>  <HIPPO Pose ID>  (1833) 
131990

>  <distance_score>  (1833) 
0.469097

>  <HIPPO Compound ID>  (1833) 
157962

>  <gnina_score_min>  (1833) 
5.456

>  <name>  (1833) 
P131990

>  <exports>  (1833) 
['/opt/xchem-fragalysis-2/maxwin/BulkDock/OUTPUTS/openbind_d68ev3c_c2_elabs_1LOTQJ3.sdf', '/opt/xchem-fragalysis-2/maxwin/BulkDock/OUTPUTS/openbind_d68ev3c_c2_elabs_1LSYI5W.sdf']

$$$$
P131992
     RDKit          3D

 30 32  0  0  0  0  0  0  0  0999 V2000
  -16.7275    0.3511    9.1392 C   0  0  0  0  0  0  0  0  0  0  0  0
  -15.5383    0.7624    9.8965 N   0  0  0  0  0  0  0  0  0  0  0  0
  -14.3625    0.6708    8.9975 C   0  0  0  0  0  0  0  0  0  0  0  0
  -13.2816    1.6827    9.4120 C   0  0  0  0  0  0  0  0  0  0  0  0
  -12.3845    2.1439    8.2621 C   0  0  0  0  0  0  0  0  0  0  0  0
  -11.2011    1.3620    7.9228 N   0  0  0  0  0  0  0  0  0  0  0  0
  -10.1137    1.4783    8.9076 C   0  0  0  0  0  0  0  0  0  0  0  0
   -8.8092    0.8688    8.3559 C   0  0  0  0  0  0  0  0  0  0  0  0
   -8.9634   -0.5289    7.8929 N   0  0  0  0  0  0  0  0  0  0  0  0
   -7.8123   -1.1823    7.4079 C   0  0  0  0  0  0  0  0  0  0  0  0
   -7.8833   -2.4692    6.8456 C   0  0  0  0  0  0  0  0  0  0  0  0
   -6.7598   -3.1237    6.3349 C   0  0  0  0  0  0  0  0  0  0  0  0
   -5.5143   -2.5174    6.4018 C   0  0  0  0  0  0  0  0  0  0  0  0
   -5.3820   -1.2635    6.9998 C   0  0  0  0  0  0  0  0  0  0  0  0
   -4.0231   -0.6365    7.1172 C   0  0  0  0  0  0  0  0  0  0  0  0
   -3.3134   -0.7427    5.9581 F   0  0  0  0  0  0  0  0  0  0  0  0
   -3.2533   -1.2163    8.0772 F   0  0  0  0  0  0  0  0  0  0  0  0
   -4.0468    0.6946    7.4093 F   0  0  0  0  0  0  0  0  0  0  0  0
   -6.5267   -0.6183    7.4995 C   0  0  0  0  0  0  0  0  0  0  0  0
  -10.2058   -0.7757    7.1099 C   0  0  0  0  0  0  0  0  0  0  0  0
  -11.4453   -0.0709    7.7002 C   0  0  0  0  0  0  0  0  0  0  0  0
  -15.3778   -0.0517   11.1051 C   0  0  1  0  0  0  0  0  0  0  0  0
  -14.0652    0.0488   11.6223 O   0  0  0  0  0  0  0  0  0  0  0  0
  -16.3809    0.3445   12.1567 C   0  0  0  0  0  0  0  0  0  0  0  0
  -17.6549   -0.1675   12.3451 C   0  0  0  0  0  0  0  0  0  0  0  0
  -18.1807    0.4558   13.4345 N   0  0  0  0  0  0  0  0  0  0  0  0
  -19.5062    0.2622   13.9712 C   0  0  0  0  0  0  0  0  0  0  0  0
  -17.3320    1.3134   14.0183 N   0  0  0  0  0  0  0  0  0  0  0  0
  -16.2625    1.2828   13.2147 C   0  0  0  0  0  0  0  0  0  0  0  0
  -14.9456    2.2992   13.5493 Cl  0  0  0  0  0  0  0  0  0  0  0  0
  1  2  1  0
  2  3  1  0
  3  4  1  0
  4  5  1  0
  5  6  1  0
  6  7  1  0
  7  8  1  0
  8  9  1  0
  9 10  1  0
 10 11  2  0
 11 12  1  0
 12 13  2  0
 13 14  1  0
 14 15  1  0
 15 16  1  0
 15 17  1  0
 15 18  1  0
 14 19  2  0
  9 20  1  0
 20 21  1  0
  2 22  1  0
 22 23  1  1
 22 24  1  0
 24 25  2  0
 25 26  1  0
 26 27  1  0
 26 28  1  0
 28 29  2  0
 29 30  1  0
 21  6  1  0
 29 24  1  0
 19 10  1  0
M  END
>  <ref_mols>  (1834) 
B0426a

>  <gnina_score>  (1834) 
5.345

>  <smina_score_min>  (1834) 
-6.685

>  <ref_pdb>  (1834) 
B0426a

>  <inspiration_score>  (1834) 
None

>  <inchikey>  (1834) 
HKZRDZVPHPTBOQ-IBGZPJMESA-N

>  <tags>  (1834) 
BulkDock Fragalysis export,openbind_d68ev3c_c2_elabs_scored,openbind_d68ev3c_c2_elabs_scored_4.5plus,openbind_d68ev3c_c2_elabs,openbind_d68ev3c_c2_elabs_scored_5plus,syndirella_product,openbind_d68ev3c_c2_elabs_scored_top80percent,syndirella_placed

>  <smiles>  (1834) 
CN(CCCN1CCN(c2cccc(C(F)(F)F)c2)CC1)[C@@H](O)c1cn(C)nc1Cl

>  <subsites>  (1834) 
None

>  <rmsd(smina/fragmenstein)>  (1834) 
0.965

>  <alias>  (1834) 
None

>  <energy_score>  (1834) 
-47.957914

>  <HIPPO Pose ID>  (1834) 
131992

>  <distance_score>  (1834) 
0.485238

>  <HIPPO Compound ID>  (1834) 
157963

>  <gnina_score_min>  (1834) 
5.509

>  <name>  (1834) 
P131992

>  <exports>  (1834) 
['/opt/xchem-fragalysis-2/maxwin/BulkDock/OUTPUTS/openbind_d68ev3c_c2_elabs_1LOTQJ3.sdf', '/opt/xchem-fragalysis-2/maxwin/BulkDock/OUTPUTS/openbind_d68ev3c_c2_elabs_1LSYI5W.sdf']

$$$$
P131993
     RDKit          3D

 30 32  0  0  0  0  0  0  0  0999 V2000
  -19.6787    0.3054    4.9493 C   0  0  0  0  0  0  0  0  0  0  0  0
  -18.9218    0.2429    6.1772 N   0  0  0  0  0  0  0  0  0  0  0  0
  -17.5664    0.1941    6.3045 C   0  0  0  0  0  0  0  0  0  0  0  0
  -17.2851    0.2836    7.6602 C   0  0  0  0  0  0  0  0  0  0  0  0
  -15.9377    0.4127    8.2998 C   0  0  2  0  0  0  0  0  0  0  0  0
  -14.9098   -0.0061    7.4270 O   0  0  0  0  0  0  0  0  0  0  0  0
  -15.8653   -0.4023    9.4860 N   0  0  0  0  0  0  0  0  0  0  0  0
  -15.2447    0.2471   10.6341 C   0  0  0  0  0  0  0  0  0  0  0  0
  -13.7367    0.4865   10.5414 C   0  0  0  0  0  0  0  0  0  0  0  0
  -13.3501    1.7124    9.7120 C   0  0  0  0  0  0  0  0  0  0  0  0
  -11.8538    2.0222    9.7447 C   0  0  0  0  0  0  0  0  0  0  0  0
  -11.0525    1.4337    8.6598 N   0  0  0  0  0  0  0  0  0  0  0  0
  -11.1177   -0.0456    8.6249 C   0  0  0  0  0  0  0  0  0  0  0  0
  -10.1422   -0.7065    7.6239 C   0  0  0  0  0  0  0  0  0  0  0  0
   -8.7557   -0.2353    7.8399 N   0  0  0  0  0  0  0  0  0  0  0  0
   -7.7014   -0.9623    7.2862 C   0  0  0  0  0  0  0  0  0  0  0  0
   -7.8813   -2.1561    6.5682 C   0  0  0  0  0  0  0  0  0  0  0  0
   -6.8053   -2.8799    6.0452 C   0  0  0  0  0  0  0  0  0  0  0  0
   -5.5093   -2.4193    6.2200 C   0  0  0  0  0  0  0  0  0  0  0  0
   -5.2819   -1.2485    6.9443 C   0  0  0  0  0  0  0  0  0  0  0  0
   -3.8856   -0.7419    7.1404 C   0  0  0  0  0  0  0  0  0  0  0  0
   -3.2062   -1.4040    8.1126 F   0  0  0  0  0  0  0  0  0  0  0  0
   -3.8172    0.5805    7.4648 F   0  0  0  0  0  0  0  0  0  0  0  0
   -3.1446   -0.8742    6.0058 F   0  0  0  0  0  0  0  0  0  0  0  0
   -6.3736   -0.5573    7.4890 C   0  0  0  0  0  0  0  0  0  0  0  0
   -8.6827    1.2399    7.8053 C   0  0  0  0  0  0  0  0  0  0  0  0
   -9.6435    1.8410    8.8473 C   0  0  0  0  0  0  0  0  0  0  0  0
  -18.5729    0.3484    8.2505 C   0  0  0  0  0  0  0  0  0  0  0  0
  -18.9580    0.5399    9.8939 Cl  0  0  0  0  0  0  0  0  0  0  0  0
  -19.5656    0.2751    7.3576 N   0  0  0  0  0  0  0  0  0  0  0  0
  1  2  1  0
  2  3  1  0
  3  4  2  0
  4  5  1  0
  5  6  1  6
  5  7  1  0
  7  8  1  0
  8  9  1  0
  9 10  1  0
 10 11  1  0
 11 12  1  0
 12 13  1  0
 13 14  1  0
 14 15  1  0
 15 16  1  0
 16 17  2  0
 17 18  1  0
 18 19  2  0
 19 20  1  0
 20 21  1  0
 21 22  1  0
 21 23  1  0
 21 24  1  0
 20 25  2  0
 15 26  1  0
 26 27  1  0
  4 28  1  0
 28 29  1  0
 28 30  2  0
 30  2  1  0
 27 12  1  0
 25 16  1  0
M  END
>  <ref_mols>  (1835) 
B0426a

>  <gnina_score>  (1835) 
5.401

>  <smina_score_min>  (1835) 
-6.27

>  <ref_pdb>  (1835) 
B0426a

>  <inspiration_score>  (1835) 
None

>  <inchikey>  (1835) 
CFNSTYKSMFZJRU-IBGZPJMESA-N

>  <tags>  (1835) 
BulkDock Fragalysis export,openbind_d68ev3c_c2_elabs_scored,openbind_d68ev3c_c2_elabs_scored_4.5plus,openbind_d68ev3c_c2_elabs,openbind_d68ev3c_c2_elabs_scored_5plus,syndirella_product,openbind_d68ev3c_c2_elabs_scored_top80percent,syndirella_placed

>  <smiles>  (1835) 
Cn1cc([C@H](O)NCCCCN2CCN(c3cccc(C(F)(F)F)c3)CC2)c(Cl)n1

>  <subsites>  (1835) 
None

>  <rmsd(smina/fragmenstein)>  (1835) 
1.228

>  <alias>  (1835) 
None

>  <energy_score>  (1835) 
-42.626598

>  <HIPPO Pose ID>  (1835) 
131993

>  <distance_score>  (1835) 
0.527904

>  <HIPPO Compound ID>  (1835) 
157964

>  <gnina_score_min>  (1835) 
5.368

>  <name>  (1835) 
P131993

>  <exports>  (1835) 
['/opt/xchem-fragalysis-2/maxwin/BulkDock/OUTPUTS/openbind_d68ev3c_c2_elabs_1LOTQJ3.sdf', '/opt/xchem-fragalysis-2/maxwin/BulkDock/OUTPUTS/openbind_d68ev3c_c2_elabs_1LSYI5W.sdf']

$$$$
P131996
     RDKit          3D

 30 32  0  0  0  0  0  0  0  0999 V2000
  -16.7203    0.2685    9.0942 C   0  0  0  0  0  0  0  0  0  0  0  0
  -15.5483    0.7231    9.8507 N   0  0  0  0  0  0  0  0  0  0  0  0
  -14.3846    0.7333    8.9392 C   0  0  0  0  0  0  0  0  0  0  0  0
  -13.3536    1.7932    9.3588 C   0  0  0  0  0  0  0  0  0  0  0  0
  -12.4002    2.2099    8.2369 C   0  0  0  0  0  0  0  0  0  0  0  0
  -11.2245    1.3994    7.9449 N   0  0  0  0  0  0  0  0  0  0  0  0
  -11.4737   -0.0178    7.6586 C   0  0  0  0  0  0  0  0  0  0  0  0
  -10.2219   -0.7099    7.0778 C   0  0  0  0  0  0  0  0  0  0  0  0
   -9.0095   -0.5126    7.9193 N   0  0  0  0  0  0  0  0  0  0  0  0
   -7.8535   -1.1641    7.4384 C   0  0  0  0  0  0  0  0  0  0  0  0
   -7.9242   -2.4568    6.8887 C   0  0  0  0  0  0  0  0  0  0  0  0
   -6.8012   -3.1130    6.3781 C   0  0  0  0  0  0  0  0  0  0  0  0
   -5.5567   -2.5027    6.4343 C   0  0  0  0  0  0  0  0  0  0  0  0
   -5.4246   -1.2423    7.0202 C   0  0  0  0  0  0  0  0  0  0  0  0
   -4.0650   -0.6126    7.1297 C   0  0  0  0  0  0  0  0  0  0  0  0
   -3.3464   -0.7432    5.9785 F   0  0  0  0  0  0  0  0  0  0  0  0
   -3.3022   -1.1712    8.1079 F   0  0  0  0  0  0  0  0  0  0  0  0
   -4.0911    0.7242    7.3934 F   0  0  0  0  0  0  0  0  0  0  0  0
   -6.5694   -0.5950    7.5197 C   0  0  0  0  0  0  0  0  0  0  0  0
   -8.8498    0.8722    8.4228 C   0  0  0  0  0  0  0  0  0  0  0  0
  -10.1634    1.4814    8.9593 C   0  0  0  0  0  0  0  0  0  0  0  0
  -15.3411   -0.0722   11.0655 C   0  0  1  0  0  0  0  0  0  0  0  0
  -14.0413    0.1379   11.6107 O   0  0  0  0  0  0  0  0  0  0  0  0
  -16.3484    0.2548   12.1355 C   0  0  0  0  0  0  0  0  0  0  0  0
  -17.6855   -0.0964   12.2363 C   0  0  0  0  0  0  0  0  0  0  0  0
  -18.1382    0.3810   13.4339 N   0  0  0  0  0  0  0  0  0  0  0  0
  -19.4833    0.2779   13.9446 C   0  0  0  0  0  0  0  0  0  0  0  0
  -17.1789    0.9570   14.1773 N   0  0  0  0  0  0  0  0  0  0  0  0
  -16.1237    0.9061   13.3699 C   0  0  0  0  0  0  0  0  0  0  0  0
  -14.9819    1.3976   13.8579 O   0  0  0  0  0  0  0  0  0  0  0  0
  1  2  1  0
  2  3  1  0
  3  4  1  0
  4  5  1  0
  5  6  1  0
  6  7  1  0
  7  8  1  0
  8  9  1  0
  9 10  1  0
 10 11  2  0
 11 12  1  0
 12 13  2  0
 13 14  1  0
 14 15  1  0
 15 16  1  0
 15 17  1  0
 15 18  1  0
 14 19  2  0
  9 20  1  0
 20 21  1  0
  2 22  1  0
 22 23  1  1
 22 24  1  0
 24 25  2  0
 25 26  1  0
 26 27  1  0
 26 28  1  0
 28 29  2  0
 29 30  1  0
 21  6  1  0
 29 24  1  0
 19 10  1  0
M  END
>  <ref_mols>  (1836) 
B0426a

>  <gnina_score>  (1836) 
5.214

>  <smina_score_min>  (1836) 
-6.248

>  <ref_pdb>  (1836) 
B0426a

>  <inspiration_score>  (1836) 
None

>  <inchikey>  (1836) 
LONURFMPAXKIAU-IBGZPJMESA-N

>  <tags>  (1836) 
BulkDock Fragalysis export,openbind_d68ev3c_c2_elabs_scored,openbind_d68ev3c_c2_elabs_scored_4.5plus,openbind_d68ev3c_c2_elabs,openbind_d68ev3c_c2_elabs_scored_5plus,syndirella_product,openbind_d68ev3c_c2_elabs_scored_top80percent,syndirella_placed

>  <smiles>  (1836) 
CN(CCCN1CCN(c2cccc(C(F)(F)F)c2)CC1)[C@@H](O)c1cn(C)nc1O

>  <subsites>  (1836) 
None

>  <rmsd(smina/fragmenstein)>  (1836) 
0.665

>  <alias>  (1836) 
None

>  <energy_score>  (1836) 
-69.215459

>  <HIPPO Pose ID>  (1836) 
131996

>  <distance_score>  (1836) 
0.489453

>  <HIPPO Compound ID>  (1836) 
157965

>  <gnina_score_min>  (1836) 
5.224

>  <name>  (1836) 
P131996

>  <exports>  (1836) 
['/opt/xchem-fragalysis-2/maxwin/BulkDock/OUTPUTS/openbind_d68ev3c_c2_elabs_1LOTQJ3.sdf', '/opt/xchem-fragalysis-2/maxwin/BulkDock/OUTPUTS/openbind_d68ev3c_c2_elabs_1LSYI5W.sdf']

$$$$
P131997
     RDKit          3D

 30 32  0  0  0  0  0  0  0  0999 V2000
  -20.6994   -0.6854    9.7456 C   0  0  0  0  0  0  0  0  0  0  0  0
  -19.6998    0.4127    9.4108 C   0  0  0  0  0  0  0  0  0  0  0  0
  -18.6312   -0.0623    8.4816 C   0  0  0  0  0  0  0  0  0  0  0  0
  -17.2780   -0.3251    8.6915 C   0  0  0  0  0  0  0  0  0  0  0  0
  -16.4444   -0.2156    9.9367 C   0  0  0  0  0  0  0  0  0  0  0  0
  -15.8663    1.1005   10.2100 N   0  0  0  0  0  0  0  0  0  0  0  0
  -16.8621    2.1094   10.5514 C   0  0  0  0  0  0  0  0  0  0  0  0
  -14.9340    1.6032    9.2015 C   0  0  0  0  0  0  0  0  0  0  0  0
  -13.5671    0.9131    9.2179 C   0  0  0  0  0  0  0  0  0  0  0  0
  -12.6062    1.7429    8.3505 C   0  0  0  0  0  0  0  0  0  0  0  0
  -11.3154    1.1697    7.9898 N   0  0  0  0  0  0  0  0  0  0  0  0
  -10.3280    1.1304    9.0788 C   0  0  0  0  0  0  0  0  0  0  0  0
   -8.9410    0.6909    8.5436 C   0  0  0  0  0  0  0  0  0  0  0  0
   -9.0040   -0.6105    7.8423 N   0  0  0  0  0  0  0  0  0  0  0  0
   -7.8154   -1.2156    7.4078 C   0  0  0  0  0  0  0  0  0  0  0  0
   -7.8453   -2.5156    6.8709 C   0  0  0  0  0  0  0  0  0  0  0  0
   -6.7022   -3.1437    6.3796 C   0  0  0  0  0  0  0  0  0  0  0  0
   -5.4785   -2.4957    6.4516 C   0  0  0  0  0  0  0  0  0  0  0  0
   -5.3911   -1.2250    7.0292 C   0  0  0  0  0  0  0  0  0  0  0  0
   -4.0490   -0.5635    7.1435 C   0  0  0  0  0  0  0  0  0  0  0  0
   -4.1043    0.7737    7.3978 F   0  0  0  0  0  0  0  0  0  0  0  0
   -3.3245   -0.6875    5.9952 F   0  0  0  0  0  0  0  0  0  0  0  0
   -3.2770   -1.1001    8.1266 F   0  0  0  0  0  0  0  0  0  0  0  0
   -6.5583   -0.6016    7.5052 C   0  0  0  0  0  0  0  0  0  0  0  0
  -10.1050   -0.6867    6.8466 C   0  0  0  0  0  0  0  0  0  0  0  0
  -11.4376   -0.1850    7.4228 C   0  0  0  0  0  0  0  0  0  0  0  0
  -16.8511   -0.8854    7.4591 C   0  0  0  0  0  0  0  0  0  0  0  0
  -17.8328   -0.9670    6.5607 N   0  0  0  0  0  0  0  0  0  0  0  0
  -18.8540   -0.3278    7.1491 N   0  0  0  0  0  0  0  0  0  0  0  0
  -20.0368   -0.0699    6.3603 C   0  0  0  0  0  0  0  0  0  0  0  0
  1  2  1  0
  2  3  1  0
  3  4  2  0
  4  5  1  0
  5  6  1  0
  6  7  1  0
  6  8  1  0
  8  9  1  0
  9 10  1  0
 10 11  1  0
 11 12  1  0
 12 13  1  0
 13 14  1  0
 14 15  1  0
 15 16  2  0
 16 17  1  0
 17 18  2  0
 18 19  1  0
 19 20  1  0
 20 21  1  0
 20 22  1  0
 20 23  1  0
 19 24  2  0
 14 25  1  0
 25 26  1  0
  4 27  1  0
 27 28  2  0
 28 29  1  0
 29 30  1  0
 29  3  1  0
 26 11  1  0
 24 15  1  0
M  END
>  <ref_mols>  (1837) 
B0426a

>  <gnina_score>  (1837) 
5.5

>  <smina_score_min>  (1837) 
-5.495

>  <ref_pdb>  (1837) 
B0426a

>  <inspiration_score>  (1837) 
None

>  <inchikey>  (1837) 
VEILHUPGKLGJQD-UHFFFAOYSA-N

>  <tags>  (1837) 
BulkDock Fragalysis export,openbind_d68ev3c_c2_elabs_scored,openbind_d68ev3c_c2_elabs_scored_4.5plus,openbind_d68ev3c_c2_elabs,openbind_d68ev3c_c2_elabs_scored_5plus,syndirella_product,openbind_d68ev3c_c2_elabs_scored_top80percent,syndirella_placed

>  <smiles>  (1837) 
CCc1c(CN(C)CCCN2CCN(c3cccc(C(F)(F)F)c3)CC2)cnn1C

>  <subsites>  (1837) 
None

>  <rmsd(smina/fragmenstein)>  (1837) 
0.647

>  <alias>  (1837) 
None

>  <energy_score>  (1837) 
-48.927845

>  <HIPPO Pose ID>  (1837) 
131997

>  <distance_score>  (1837) 
0.615141

>  <HIPPO Compound ID>  (1837) 
157966

>  <gnina_score_min>  (1837) 
5.491

>  <name>  (1837) 
P131997

>  <exports>  (1837) 
['/opt/xchem-fragalysis-2/maxwin/BulkDock/OUTPUTS/openbind_d68ev3c_c2_elabs_1LOTQJ3.sdf', '/opt/xchem-fragalysis-2/maxwin/BulkDock/OUTPUTS/openbind_d68ev3c_c2_elabs_1LSYI5W.sdf']

$$$$
P131998
     RDKit          3D

 30 32  0  0  0  0  0  0  0  0999 V2000
  -16.5195    4.2948    9.1783 C   0  0  0  0  0  0  0  0  0  0  0  0
  -17.6005    2.8607    8.9584 S   0  0  0  0  0  0  0  0  0  0  0  0
  -16.4999    1.7241    8.2360 C   0  0  0  0  0  0  0  0  0  0  0  0
  -15.8720    0.6150    8.7760 C   0  0  0  0  0  0  0  0  0  0  0  0
  -15.9506    0.0294   10.1445 C   0  0  0  0  0  0  0  0  0  0  0  0
  -14.8797    0.3995   11.0750 N   0  0  0  0  0  0  0  0  0  0  0  0
  -15.1961    1.5326   11.9261 C   0  0  0  0  0  0  0  0  0  0  0  0
  -13.5268    0.4164   10.5107 C   0  0  0  0  0  0  0  0  0  0  0  0
  -13.0485    1.7578    9.9284 C   0  0  0  0  0  0  0  0  0  0  0  0
  -12.0025    1.6314    8.8157 C   0  0  0  0  0  0  0  0  0  0  0  0
  -10.9623    0.6771    9.1927 N   0  0  0  0  0  0  0  0  0  0  0  0
  -10.9215   -0.4832    8.2712 C   0  0  0  0  0  0  0  0  0  0  0  0
  -10.2902   -0.1802    6.9010 C   0  0  0  0  0  0  0  0  0  0  0  0
   -8.8978    0.2786    7.0922 N   0  0  0  0  0  0  0  0  0  0  0  0
   -7.8427   -0.6296    7.0484 C   0  0  0  0  0  0  0  0  0  0  0  0
   -8.0246   -2.0000    6.7800 C   0  0  0  0  0  0  0  0  0  0  0  0
   -6.9552   -2.8835    6.5979 C   0  0  0  0  0  0  0  0  0  0  0  0
   -5.6536   -2.4211    6.7070 C   0  0  0  0  0  0  0  0  0  0  0  0
   -5.4166   -1.0795    7.0123 C   0  0  0  0  0  0  0  0  0  0  0  0
   -4.0019   -0.5907    7.1295 C   0  0  0  0  0  0  0  0  0  0  0  0
   -3.8895    0.7366    7.4164 F   0  0  0  0  0  0  0  0  0  0  0  0
   -3.2945   -1.2406    8.0937 F   0  0  0  0  0  0  0  0  0  0  0  0
   -3.3071   -0.7766    5.9719 F   0  0  0  0  0  0  0  0  0  0  0  0
   -6.5089   -0.2043    7.1659 C   0  0  0  0  0  0  0  0  0  0  0  0
   -8.8575    1.4855    7.9532 C   0  0  0  0  0  0  0  0  0  0  0  0
   -9.6106    1.2614    9.2901 C   0  0  0  0  0  0  0  0  0  0  0  0
  -15.1857    0.0513    7.6713 C   0  0  0  0  0  0  0  0  0  0  0  0
  -15.3197    0.7630    6.5546 N   0  0  0  0  0  0  0  0  0  0  0  0
  -16.1634    1.7549    6.9037 N   0  0  0  0  0  0  0  0  0  0  0  0
  -16.6420    2.6299    5.8586 C   0  0  0  0  0  0  0  0  0  0  0  0
  1  2  1  0
  2  3  1  0
  3  4  2  0
  4  5  1  0
  5  6  1  0
  6  7  1  0
  6  8  1  0
  8  9  1  0
  9 10  1  0
 10 11  1  0
 11 12  1  0
 12 13  1  0
 13 14  1  0
 14 15  1  0
 15 16  2  0
 16 17  1  0
 17 18  2  0
 18 19  1  0
 19 20  1  0
 20 21  1  0
 20 22  1  0
 20 23  1  0
 19 24  2  0
 14 25  1  0
 25 26  1  0
  4 27  1  0
 27 28  2  0
 28 29  1  0
 29 30  1  0
 29  3  1  0
 26 11  1  0
 24 15  1  0
M  END
>  <ref_mols>  (1838) 
B0426a

>  <gnina_score>  (1838) 
5.822

>  <smina_score_min>  (1838) 
-5.327

>  <ref_pdb>  (1838) 
B0426a

>  <inspiration_score>  (1838) 
None

>  <inchikey>  (1838) 
SXEFSOIMMKKWNR-UHFFFAOYSA-N

>  <tags>  (1838) 
BulkDock Fragalysis export,openbind_d68ev3c_c2_elabs_scored,openbind_d68ev3c_c2_elabs_scored_4.5plus,openbind_d68ev3c_c2_elabs,openbind_d68ev3c_c2_elabs_scored_5plus,syndirella_product,openbind_d68ev3c_c2_elabs_scored_top80percent,syndirella_placed

>  <smiles>  (1838) 
CSc1c(CN(C)CCCN2CCN(c3cccc(C(F)(F)F)c3)CC2)cnn1C

>  <subsites>  (1838) 
None

>  <rmsd(smina/fragmenstein)>  (1838) 
1.235

>  <alias>  (1838) 
None

>  <energy_score>  (1838) 
-44.935752

>  <HIPPO Pose ID>  (1838) 
131998

>  <distance_score>  (1838) 
0.663327

>  <HIPPO Compound ID>  (1838) 
157967

>  <gnina_score_min>  (1838) 
5.603

>  <name>  (1838) 
P131998

>  <exports>  (1838) 
['/opt/xchem-fragalysis-2/maxwin/BulkDock/OUTPUTS/openbind_d68ev3c_c2_elabs_1LOTQJ3.sdf', '/opt/xchem-fragalysis-2/maxwin/BulkDock/OUTPUTS/openbind_d68ev3c_c2_elabs_1LSYI5W.sdf']

$$$$
P131999
     RDKit          3D

 30 32  0  0  0  0  0  0  0  0999 V2000
  -21.2369    1.7177    5.5478 C   0  0  0  0  0  0  0  0  0  0  0  0
  -19.7900    1.6664    5.0796 C   0  0  0  0  0  0  0  0  0  0  0  0
  -19.0311    0.4571    5.6216 C   0  0  0  0  0  0  0  0  0  0  0  0
  -18.7856    0.5315    7.0510 N   0  0  0  0  0  0  0  0  0  0  0  0
  -17.8410    1.3022    7.6672 C   0  0  0  0  0  0  0  0  0  0  0  0
  -17.9289    1.0355    9.0189 C   0  0  0  0  0  0  0  0  0  0  0  0
  -17.1225    1.5970   10.1435 C   0  0  0  0  0  0  0  0  0  0  0  0
  -15.7846    0.9945   10.2925 N   0  0  0  0  0  0  0  0  0  0  0  0
  -15.8486   -0.4306   10.5657 C   0  0  0  0  0  0  0  0  0  0  0  0
  -14.8916    1.3198    9.1760 C   0  0  0  0  0  0  0  0  0  0  0  0
  -13.4060    1.0863    9.4851 C   0  0  0  0  0  0  0  0  0  0  0  0
  -12.5618    1.8184    8.4307 C   0  0  0  0  0  0  0  0  0  0  0  0
  -11.2765    1.2458    8.0468 N   0  0  0  0  0  0  0  0  0  0  0  0
  -10.2751    1.1915    9.1212 C   0  0  0  0  0  0  0  0  0  0  0  0
   -8.9019    0.7347    8.5668 C   0  0  0  0  0  0  0  0  0  0  0  0
   -8.9898   -0.5647    7.8636 N   0  0  0  0  0  0  0  0  0  0  0  0
   -7.8122   -1.1839    7.4189 C   0  0  0  0  0  0  0  0  0  0  0  0
   -7.8598   -2.4834    6.8822 C   0  0  0  0  0  0  0  0  0  0  0  0
   -6.7255   -3.1252    6.3870 C   0  0  0  0  0  0  0  0  0  0  0  0
   -5.4939   -2.4909    6.4525 C   0  0  0  0  0  0  0  0  0  0  0  0
   -5.3895   -1.2205    7.0278 C   0  0  0  0  0  0  0  0  0  0  0  0
   -4.0407   -0.5715    7.1364 C   0  0  0  0  0  0  0  0  0  0  0  0
   -4.0831    0.7664    7.3898 F   0  0  0  0  0  0  0  0  0  0  0  0
   -3.2701   -1.1142    8.1173 F   0  0  0  0  0  0  0  0  0  0  0  0
   -3.3216   -0.7029    5.9855 F   0  0  0  0  0  0  0  0  0  0  0  0
   -6.5475   -0.5841    7.5084 C   0  0  0  0  0  0  0  0  0  0  0  0
  -10.1005   -0.6221    6.8783 C   0  0  0  0  0  0  0  0  0  0  0  0
  -11.4213   -0.1059    7.4712 C   0  0  0  0  0  0  0  0  0  0  0  0
  -18.9981    0.1125    9.1047 C   0  0  0  0  0  0  0  0  0  0  0  0
  -19.5148   -0.2061    7.9152 N   0  0  0  0  0  0  0  0  0  0  0  0
  1  2  1  0
  2  3  1  0
  3  4  1  0
  4  5  1  0
  5  6  2  0
  6  7  1  0
  7  8  1  0
  8  9  1  0
  8 10  1  0
 10 11  1  0
 11 12  1  0
 12 13  1  0
 13 14  1  0
 14 15  1  0
 15 16  1  0
 16 17  1  0
 17 18  2  0
 18 19  1  0
 19 20  2  0
 20 21  1  0
 21 22  1  0
 22 23  1  0
 22 24  1  0
 22 25  1  0
 21 26  2  0
 16 27  1  0
 27 28  1  0
  6 29  1  0
 29 30  2  0
 30  4  1  0
 28 13  1  0
 26 17  1  0
M  END
>  <ref_mols>  (1839) 
B0426a

>  <gnina_score>  (1839) 
5.393

>  <smina_score_min>  (1839) 
-5.271

>  <ref_pdb>  (1839) 
B0426a

>  <inspiration_score>  (1839) 
None

>  <inchikey>  (1839) 
FTVPAEUIIOPGMH-UHFFFAOYSA-N

>  <tags>  (1839) 
BulkDock Fragalysis export,openbind_d68ev3c_c2_elabs_scored,openbind_d68ev3c_c2_elabs_scored_4.5plus,openbind_d68ev3c_c2_elabs,openbind_d68ev3c_c2_elabs_scored_5plus,syndirella_product,openbind_d68ev3c_c2_elabs_scored_top80percent,syndirella_placed

>  <smiles>  (1839) 
CCCn1cc(CN(C)CCCN2CCN(c3cccc(C(F)(F)F)c3)CC2)cn1

>  <subsites>  (1839) 
None

>  <rmsd(smina/fragmenstein)>  (1839) 
0.992

>  <alias>  (1839) 
None

>  <energy_score>  (1839) 
-51.17833

>  <HIPPO Pose ID>  (1839) 
131999

>  <distance_score>  (1839) 
0.587272

>  <HIPPO Compound ID>  (1839) 
157968

>  <gnina_score_min>  (1839) 
5.45

>  <name>  (1839) 
P131999

>  <exports>  (1839) 
['/opt/xchem-fragalysis-2/maxwin/BulkDock/OUTPUTS/openbind_d68ev3c_c2_elabs_1LOTQJ3.sdf', '/opt/xchem-fragalysis-2/maxwin/BulkDock/OUTPUTS/openbind_d68ev3c_c2_elabs_1LSYI5W.sdf']

$$$$
P132000
     RDKit          3D

 30 32  0  0  0  0  0  0  0  0999 V2000
  -19.8176    0.3474    7.9183 C   0  0  0  0  0  0  0  0  0  0  0  0
  -19.4526    0.2142    9.3505 C   0  0  0  0  0  0  0  0  0  0  0  0
  -20.4080    0.2218   10.2854 N   0  0  0  0  0  0  0  0  0  0  0  0
  -19.7359    0.1026   11.4432 N   0  0  0  0  0  0  0  0  0  0  0  0
  -20.4704    0.1117   12.6867 C   0  0  0  0  0  0  0  0  0  0  0  0
  -18.3839   -0.0351   11.2800 C   0  0  0  0  0  0  0  0  0  0  0  0
  -17.4421   -0.2271   12.4157 C   0  0  0  0  0  0  0  0  0  0  0  0
  -18.1524    0.0610    9.9127 C   0  0  0  0  0  0  0  0  0  0  0  0
  -16.8576   -0.0195    9.1507 C   0  0  0  0  0  0  0  0  0  0  0  0
  -15.7522    0.6395    9.8692 N   0  0  0  0  0  0  0  0  0  0  0  0
  -15.9893    2.0810    9.9182 C   0  0  0  0  0  0  0  0  0  0  0  0
  -14.4710    0.3240    9.2058 C   0  0  0  0  0  0  0  0  0  0  0  0
  -13.2455    0.8883    9.9477 C   0  0  0  0  0  0  0  0  0  0  0  0
  -12.4440    1.8791    9.0888 C   0  0  0  0  0  0  0  0  0  0  0  0
  -11.2473    1.3759    8.4034 N   0  0  0  0  0  0  0  0  0  0  0  0
  -10.1040    1.2472    9.3289 C   0  0  0  0  0  0  0  0  0  0  0  0
   -8.8111    0.8311    8.6001 C   0  0  0  0  0  0  0  0  0  0  0  0
   -8.9927   -0.4328    7.8660 N   0  0  0  0  0  0  0  0  0  0  0  0
   -7.8645   -1.0937    7.3672 C   0  0  0  0  0  0  0  0  0  0  0  0
   -7.9768   -2.3929    6.8450 C   0  0  0  0  0  0  0  0  0  0  0  0
   -6.8738   -3.0879    6.3449 C   0  0  0  0  0  0  0  0  0  0  0  0
   -5.6150   -2.5031    6.3764 C   0  0  0  0  0  0  0  0  0  0  0  0
   -5.4488   -1.2280    6.9229 C   0  0  0  0  0  0  0  0  0  0  0  0
   -4.0753   -0.6252    6.9994 C   0  0  0  0  0  0  0  0  0  0  0  0
   -3.2916   -1.2137    7.9436 F   0  0  0  0  0  0  0  0  0  0  0  0
   -3.3953   -0.7496    5.8239 F   0  0  0  0  0  0  0  0  0  0  0  0
   -4.0669    0.7073    7.2864 F   0  0  0  0  0  0  0  0  0  0  0  0
   -6.5736   -0.5415    7.4120 C   0  0  0  0  0  0  0  0  0  0  0  0
  -10.1804   -0.4191    6.9765 C   0  0  0  0  0  0  0  0  0  0  0  0
  -11.4446    0.0798    7.7177 C   0  0  0  0  0  0  0  0  0  0  0  0
  1  2  1  0
  2  3  2  0
  3  4  1  0
  4  5  1  0
  4  6  1  0
  6  7  1  0
  6  8  2  0
  8  9  1  0
  9 10  1  0
 10 11  1  0
 10 12  1  0
 12 13  1  0
 13 14  1  0
 14 15  1  0
 15 16  1  0
 16 17  1  0
 17 18  1  0
 18 19  1  0
 19 20  2  0
 20 21  1  0
 21 22  2  0
 22 23  1  0
 23 24  1  0
 24 25  1  0
 24 26  1  0
 24 27  1  0
 23 28  2  0
 18 29  1  0
 29 30  1  0
  8  2  1  0
 30 15  1  0
 28 19  1  0
M  END
>  <ref_mols>  (1840) 
B0426a

>  <gnina_score>  (1840) 
5.51

>  <smina_score_min>  (1840) 
-6.05

>  <ref_pdb>  (1840) 
B0426a

>  <inspiration_score>  (1840) 
None

>  <inchikey>  (1840) 
ACHLYISZJXGDLH-UHFFFAOYSA-N

>  <tags>  (1840) 
BulkDock Fragalysis export,openbind_d68ev3c_c2_elabs_scored,openbind_d68ev3c_c2_elabs_scored_4.5plus,openbind_d68ev3c_c2_elabs,openbind_d68ev3c_c2_elabs_scored_5plus,syndirella_product,openbind_d68ev3c_c2_elabs_scored_top80percent,syndirella_placed

>  <smiles>  (1840) 
Cc1nn(C)c(C)c1CN(C)CCCN1CCN(c2cccc(C(F)(F)F)c2)CC1

>  <subsites>  (1840) 
None

>  <rmsd(smina/fragmenstein)>  (1840) 
1.318

>  <alias>  (1840) 
None

>  <energy_score>  (1840) 
-59.18075

>  <HIPPO Pose ID>  (1840) 
132000

>  <distance_score>  (1840) 
0.741962

>  <HIPPO Compound ID>  (1840) 
157969

>  <gnina_score_min>  (1840) 
5.564

>  <name>  (1840) 
P132000

>  <exports>  (1840) 
['/opt/xchem-fragalysis-2/maxwin/BulkDock/OUTPUTS/openbind_d68ev3c_c2_elabs_1LOTQJ3.sdf', '/opt/xchem-fragalysis-2/maxwin/BulkDock/OUTPUTS/openbind_d68ev3c_c2_elabs_1LSYI5W.sdf']

$$$$
P132001
     RDKit          3D

 30 32  0  0  0  0  0  0  0  0999 V2000
  -17.3350    0.8989   14.1744 C   0  0  0  0  0  0  0  0  0  0  0  0
  -15.9293    1.2225   13.8238 C   0  0  0  0  0  0  0  0  0  0  0  0
  -14.9947    1.3027   14.7889 N   0  0  0  0  0  0  0  0  0  0  0  0
  -13.8535    1.4890   14.0907 N   0  0  0  0  0  0  0  0  0  0  0  0
  -12.5721    1.1090   14.6087 C   0  0  0  0  0  0  0  0  0  0  0  0
  -14.0631    1.7390   12.7809 C   0  0  0  0  0  0  0  0  0  0  0  0
  -13.1224    2.0496   11.8825 F   0  0  0  0  0  0  0  0  0  0  0  0
  -15.3698    1.4190   12.5295 C   0  0  0  0  0  0  0  0  0  0  0  0
  -15.9837    1.3002   11.1989 C   0  0  0  0  0  0  0  0  0  0  0  0
  -15.5677    0.0351   10.5964 N   0  0  0  0  0  0  0  0  0  0  0  0
  -15.6720    0.1188    9.1403 C   0  0  0  0  0  0  0  0  0  0  0  0
  -14.3155    0.2735    8.4422 C   0  0  0  0  0  0  0  0  0  0  0  0
  -13.4209    1.3652    9.0450 C   0  0  0  0  0  0  0  0  0  0  0  0
  -12.4031    1.9924    8.0932 C   0  0  0  0  0  0  0  0  0  0  0  0
  -11.1689    1.2798    7.7965 N   0  0  0  0  0  0  0  0  0  0  0  0
  -11.3505   -0.1262    7.4197 C   0  0  0  0  0  0  0  0  0  0  0  0
  -10.0516   -0.7404    6.8793 C   0  0  0  0  0  0  0  0  0  0  0  0
   -8.9226   -0.5894    7.8323 N   0  0  0  0  0  0  0  0  0  0  0  0
   -7.7432   -1.2244    7.3996 C   0  0  0  0  0  0  0  0  0  0  0  0
   -7.7884   -2.5242    6.8632 C   0  0  0  0  0  0  0  0  0  0  0  0
   -6.6539   -3.1619    6.3644 C   0  0  0  0  0  0  0  0  0  0  0  0
   -5.4228   -2.5285    6.4337 C   0  0  0  0  0  0  0  0  0  0  0  0
   -5.3181   -1.2649    7.0204 C   0  0  0  0  0  0  0  0  0  0  0  0
   -3.9708   -0.6158    7.1351 C   0  0  0  0  0  0  0  0  0  0  0  0
   -4.0158    0.7177    7.4099 F   0  0  0  0  0  0  0  0  0  0  0  0
   -3.2603   -0.7293    5.9786 F   0  0  0  0  0  0  0  0  0  0  0  0
   -3.1966   -1.1729    8.1043 F   0  0  0  0  0  0  0  0  0  0  0  0
   -6.4755   -0.6312    7.5010 C   0  0  0  0  0  0  0  0  0  0  0  0
   -8.8103    0.7761    8.3983 C   0  0  0  0  0  0  0  0  0  0  0  0
  -10.1695    1.3365    8.8776 C   0  0  0  0  0  0  0  0  0  0  0  0
  1  2  1  0
  2  3  2  0
  3  4  1  0
  4  5  1  0
  4  6  1  0
  6  7  1  0
  6  8  2  0
  8  9  1  0
  9 10  1  0
 10 11  1  0
 11 12  1  0
 12 13  1  0
 13 14  1  0
 14 15  1  0
 15 16  1  0
 16 17  1  0
 17 18  1  0
 18 19  1  0
 19 20  2  0
 20 21  1  0
 21 22  2  0
 22 23  1  0
 23 24  1  0
 24 25  1  0
 24 26  1  0
 24 27  1  0
 23 28  2  0
 18 29  1  0
 29 30  1  0
  8  2  1  0
 30 15  1  0
 28 19  1  0
M  END
>  <ref_mols>  (1841) 
B0426a

>  <gnina_score>  (1841) 
5.889

>  <smina_score_min>  (1841) 
-6.572

>  <ref_pdb>  (1841) 
B0426a

>  <inspiration_score>  (1841) 
None

>  <inchikey>  (1841) 
ZOYJPPWRNBUEIS-UHFFFAOYSA-N

>  <tags>  (1841) 
BulkDock Fragalysis export,openbind_d68ev3c_c2_elabs_scored,openbind_d68ev3c_c2_elabs_scored_4.5plus,openbind_d68ev3c_c2_elabs,openbind_d68ev3c_c2_elabs_scored_5plus,syndirella_product,openbind_d68ev3c_c2_elabs_scored_top80percent,syndirella_placed

>  <smiles>  (1841) 
Cc1nn(C)c(F)c1CNCCCCN1CCN(c2cccc(C(F)(F)F)c2)CC1

>  <subsites>  (1841) 
None

>  <rmsd(smina/fragmenstein)>  (1841) 
0.923

>  <alias>  (1841) 
None

>  <energy_score>  (1841) 
-20.189011

>  <HIPPO Pose ID>  (1841) 
132001

>  <distance_score>  (1841) 
0.713715

>  <HIPPO Compound ID>  (1841) 
157970

>  <gnina_score_min>  (1841) 
5.688

>  <name>  (1841) 
P132001

>  <exports>  (1841) 
['/opt/xchem-fragalysis-2/maxwin/BulkDock/OUTPUTS/openbind_d68ev3c_c2_elabs_1LOTQJ3.sdf', '/opt/xchem-fragalysis-2/maxwin/BulkDock/OUTPUTS/openbind_d68ev3c_c2_elabs_1LSYI5W.sdf']

$$$$
P132002
     RDKit          3D

 30 32  0  0  0  0  0  0  0  0999 V2000
  -12.3100    0.2003   11.8041 C   0  0  0  0  0  0  0  0  0  0  0  0
  -13.4495    1.0662   12.1658 C   0  0  0  0  0  0  0  0  0  0  0  0
  -13.2092    2.1313   12.9376 N   0  0  0  0  0  0  0  0  0  0  0  0
  -14.4070    2.7154   13.0669 N   0  0  0  0  0  0  0  0  0  0  0  0
  -14.5119    4.0004   13.7035 C   0  0  0  0  0  0  0  0  0  0  0  0
  -15.4061    1.9983   12.4917 C   0  0  0  0  0  0  0  0  0  0  0  0
  -16.7131    2.2828   12.5333 F   0  0  0  0  0  0  0  0  0  0  0  0
  -14.8239    0.9598   11.8010 C   0  0  0  0  0  0  0  0  0  0  0  0
  -15.4789   -0.0356   10.9069 C   0  0  0  0  0  0  0  0  0  0  0  0
  -15.9568    0.5165    9.6208 N   0  0  0  0  0  0  0  0  0  0  0  0
  -17.2731    1.1405    9.7417 C   0  0  0  0  0  0  0  0  0  0  0  0
  -15.0125    1.4335    8.9579 C   0  0  0  0  0  0  0  0  0  0  0  0
  -13.7620    0.7293    8.4562 C   0  0  0  0  0  0  0  0  0  0  0  0
  -12.5095    1.6190    8.5059 C   0  0  0  0  0  0  0  0  0  0  0  0
  -11.3406    1.0079    7.8526 N   0  0  0  0  0  0  0  0  0  0  0  0
  -11.2235   -0.4403    8.1102 C   0  0  0  0  0  0  0  0  0  0  0  0
  -10.0526   -1.0729    7.3647 C   0  0  0  0  0  0  0  0  0  0  0  0
   -8.7714   -0.4414    7.7222 N   0  0  0  0  0  0  0  0  0  0  0  0
   -7.6282   -1.0954    7.2338 C   0  0  0  0  0  0  0  0  0  0  0  0
   -7.6882   -2.3232    6.5409 C   0  0  0  0  0  0  0  0  0  0  0  0
   -6.5509   -2.9834    6.0807 C   0  0  0  0  0  0  0  0  0  0  0  0
   -5.3057   -2.4289    6.3054 C   0  0  0  0  0  0  0  0  0  0  0  0
   -5.1953   -1.2228    7.0031 C   0  0  0  0  0  0  0  0  0  0  0  0
   -3.8387   -0.6407    7.2401 C   0  0  0  0  0  0  0  0  0  0  0  0
   -3.1780   -1.2265    8.2706 F   0  0  0  0  0  0  0  0  0  0  0  0
   -3.0462   -0.8011    6.1464 F   0  0  0  0  0  0  0  0  0  0  0  0
   -3.8435    0.6964    7.4968 F   0  0  0  0  0  0  0  0  0  0  0  0
   -6.3497   -0.5813    7.4749 C   0  0  0  0  0  0  0  0  0  0  0  0
   -8.8148    1.0398    7.6243 C   0  0  0  0  0  0  0  0  0  0  0  0
  -10.0777    1.6393    8.3039 C   0  0  0  0  0  0  0  0  0  0  0  0
  1  2  1  0
  2  3  2  0
  3  4  1  0
  4  5  1  0
  4  6  1  0
  6  7  1  0
  6  8  2  0
  8  9  1  0
  9 10  1  0
 10 11  1  0
 10 12  1  0
 12 13  1  0
 13 14  1  0
 14 15  1  0
 15 16  1  0
 16 17  1  0
 17 18  1  0
 18 19  1  0
 19 20  2  0
 20 21  1  0
 21 22  2  0
 22 23  1  0
 23 24  1  0
 24 25  1  0
 24 26  1  0
 24 27  1  0
 23 28  2  0
 18 29  1  0
 29 30  1  0
  8  2  1  0
 30 15  1  0
 28 19  1  0
M  END
>  <ref_mols>  (1842) 
B0426a

>  <gnina_score>  (1842) 
6.021

>  <smina_score_min>  (1842) 
-6.352

>  <ref_pdb>  (1842) 
B0426a

>  <inspiration_score>  (1842) 
None

>  <inchikey>  (1842) 
YPFITOYTPZAEMP-UHFFFAOYSA-N

>  <tags>  (1842) 
BulkDock Fragalysis export,openbind_d68ev3c_c2_elabs_scored,openbind_d68ev3c_c2_elabs_scored_4.5plus,openbind_d68ev3c_c2_elabs,openbind_d68ev3c_c2_elabs_scored_5plus,syndirella_product,openbind_d68ev3c_c2_elabs_scored_top80percent,syndirella_placed

>  <smiles>  (1842) 
Cc1nn(C)c(F)c1CN(C)CCCN1CCN(c2cccc(C(F)(F)F)c2)CC1

>  <subsites>  (1842) 
None

>  <rmsd(smina/fragmenstein)>  (1842) 
0.514

>  <alias>  (1842) 
None

>  <energy_score>  (1842) 
-39.853266

>  <HIPPO Pose ID>  (1842) 
132002

>  <distance_score>  (1842) 
0.658767

>  <HIPPO Compound ID>  (1842) 
157971

>  <gnina_score_min>  (1842) 
6.008

>  <name>  (1842) 
P132002

>  <exports>  (1842) 
['/opt/xchem-fragalysis-2/maxwin/BulkDock/OUTPUTS/openbind_d68ev3c_c2_elabs_1LOTQJ3.sdf', '/opt/xchem-fragalysis-2/maxwin/BulkDock/OUTPUTS/openbind_d68ev3c_c2_elabs_1LSYI5W.sdf']

$$$$
P132003
     RDKit          3D

 30 32  0  0  0  0  0  0  0  0999 V2000
  -20.2040    1.0777    4.9624 C   0  0  0  0  0  0  0  0  0  0  0  0
  -20.3373   -0.0398    5.9821 C   0  0  0  0  0  0  0  0  0  0  0  0
  -19.0633   -0.4257    6.5514 N   0  0  0  0  0  0  0  0  0  0  0  0
  -18.5678   -1.6712    6.3534 N   0  0  0  0  0  0  0  0  0  0  0  0
  -17.3504   -1.5945    6.9119 C   0  0  0  0  0  0  0  0  0  0  0  0
  -17.0917   -0.3448    7.5302 C   0  0  0  0  0  0  0  0  0  0  0  0
  -15.8390    0.0917    8.1951 C   0  0  0  0  0  0  0  0  0  0  0  0
  -16.0723    0.1595    9.6364 N   0  0  0  0  0  0  0  0  0  0  0  0
  -14.8792   -0.1217   10.4197 C   0  0  0  0  0  0  0  0  0  0  0  0
  -13.8824    1.0138   10.6425 C   0  0  0  0  0  0  0  0  0  0  0  0
  -13.4083    1.6902    9.3568 C   0  0  0  0  0  0  0  0  0  0  0  0
  -11.9678    2.1982    9.4352 C   0  0  0  0  0  0  0  0  0  0  0  0
  -11.0713    1.4282    8.5626 N   0  0  0  0  0  0  0  0  0  0  0  0
  -10.9569    0.0062    8.9681 C   0  0  0  0  0  0  0  0  0  0  0  0
  -10.0035   -0.7884    8.0547 C   0  0  0  0  0  0  0  0  0  0  0  0
   -8.6665   -0.1657    8.0021 N   0  0  0  0  0  0  0  0  0  0  0  0
   -7.6456   -0.9118    7.4012 C   0  0  0  0  0  0  0  0  0  0  0  0
   -7.8617   -2.1301    6.7344 C   0  0  0  0  0  0  0  0  0  0  0  0
   -6.8116   -2.8662    6.1809 C   0  0  0  0  0  0  0  0  0  0  0  0
   -5.5107   -2.3970    6.2856 C   0  0  0  0  0  0  0  0  0  0  0  0
   -5.2533   -1.1988    6.9576 C   0  0  0  0  0  0  0  0  0  0  0  0
   -3.8482   -0.7009    7.0913 C   0  0  0  0  0  0  0  0  0  0  0  0
   -3.7564    0.6268    7.3851 F   0  0  0  0  0  0  0  0  0  0  0  0
   -3.1405   -1.3495    8.0528 F   0  0  0  0  0  0  0  0  0  0  0  0
   -3.1515   -0.8659    5.9335 F   0  0  0  0  0  0  0  0  0  0  0  0
   -6.3187   -0.4806    7.5154 C   0  0  0  0  0  0  0  0  0  0  0  0
   -8.7256    1.2685    7.6533 C   0  0  0  0  0  0  0  0  0  0  0  0
   -9.7172    2.0188    8.5712 C   0  0  0  0  0  0  0  0  0  0  0  0
  -18.2410    0.3670    7.2933 C   0  0  0  0  0  0  0  0  0  0  0  0
  -18.4834    1.6298    7.6716 F   0  0  0  0  0  0  0  0  0  0  0  0
  1  2  1  0
  2  3  1  0
  3  4  1  0
  4  5  2  0
  5  6  1  0
  6  7  1  0
  7  8  1  0
  8  9  1  0
  9 10  1  0
 10 11  1  0
 11 12  1  0
 12 13  1  0
 13 14  1  0
 14 15  1  0
 15 16  1  0
 16 17  1  0
 17 18  2  0
 18 19  1  0
 19 20  2  0
 20 21  1  0
 21 22  1  0
 22 23  1  0
 22 24  1  0
 22 25  1  0
 21 26  2  0
 16 27  1  0
 27 28  1  0
  6 29  2  0
 29 30  1  0
 29  3  1  0
 28 13  1  0
 26 17  1  0
M  END
>  <ref_mols>  (1843) 
B0426a

>  <gnina_score>  (1843) 
5.448

>  <smina_score_min>  (1843) 
-5.403

>  <ref_pdb>  (1843) 
B0426a

>  <inspiration_score>  (1843) 
None

>  <inchikey>  (1843) 
BXKUHHBXINOVEB-UHFFFAOYSA-N

>  <tags>  (1843) 
BulkDock Fragalysis export,openbind_d68ev3c_c2_elabs_scored,openbind_d68ev3c_c2_elabs_scored_4.5plus,openbind_d68ev3c_c2_elabs,openbind_d68ev3c_c2_elabs_scored_5plus,syndirella_product,openbind_d68ev3c_c2_elabs_scored_top80percent,syndirella_placed

>  <smiles>  (1843) 
CCn1ncc(CNCCCCN2CCN(c3cccc(C(F)(F)F)c3)CC2)c1F

>  <subsites>  (1843) 
None

>  <rmsd(smina/fragmenstein)>  (1843) 
0.522

>  <alias>  (1843) 
None

>  <energy_score>  (1843) 
-42.862

>  <HIPPO Pose ID>  (1843) 
132003

>  <distance_score>  (1843) 
0.565297

>  <HIPPO Compound ID>  (1843) 
157972

>  <gnina_score_min>  (1843) 
5.421

>  <name>  (1843) 
P132003

>  <exports>  (1843) 
['/opt/xchem-fragalysis-2/maxwin/BulkDock/OUTPUTS/openbind_d68ev3c_c2_elabs_1LOTQJ3.sdf', '/opt/xchem-fragalysis-2/maxwin/BulkDock/OUTPUTS/openbind_d68ev3c_c2_elabs_1LSYI5W.sdf']

$$$$
P132004
     RDKit          3D

 30 32  0  0  0  0  0  0  0  0999 V2000
  -14.7111   -0.5868    4.4721 C   0  0  0  0  0  0  0  0  0  0  0  0
  -14.8002    0.6835    5.2950 C   0  0  0  0  0  0  0  0  0  0  0  0
  -15.5034    0.5054    6.5469 N   0  0  0  0  0  0  0  0  0  0  0  0
  -16.6562    1.1620    6.8076 N   0  0  0  0  0  0  0  0  0  0  0  0
  -16.8248    0.9674    8.1231 C   0  0  0  0  0  0  0  0  0  0  0  0
  -15.8113    0.1653    8.7016 C   0  0  0  0  0  0  0  0  0  0  0  0
  -15.6017   -0.2092   10.1249 C   0  0  0  0  0  0  0  0  0  0  0  0
  -15.2956    0.9657   10.9536 N   0  0  0  0  0  0  0  0  0  0  0  0
  -15.0347    0.6001   12.3397 C   0  0  0  0  0  0  0  0  0  0  0  0
  -14.2247    1.8257   10.4315 C   0  0  0  0  0  0  0  0  0  0  0  0
  -12.8952    1.1670   10.0505 C   0  0  0  0  0  0  0  0  0  0  0  0
  -12.2157    1.9915    8.9465 C   0  0  0  0  0  0  0  0  0  0  0  0
  -11.0040    1.4368    8.3417 N   0  0  0  0  0  0  0  0  0  0  0  0
   -9.8957    1.3056    9.2994 C   0  0  0  0  0  0  0  0  0  0  0  0
   -8.6066    0.8304    8.6010 C   0  0  0  0  0  0  0  0  0  0  0  0
   -8.8097   -0.4466    7.8896 N   0  0  0  0  0  0  0  0  0  0  0  0
   -7.6927   -1.1210    7.3850 C   0  0  0  0  0  0  0  0  0  0  0  0
   -7.8246   -2.4106    6.8432 C   0  0  0  0  0  0  0  0  0  0  0  0
   -6.7360   -3.1050    6.3160 C   0  0  0  0  0  0  0  0  0  0  0  0
   -5.4732   -2.5308    6.3470 C   0  0  0  0  0  0  0  0  0  0  0  0
   -5.2897   -1.2713    6.9220 C   0  0  0  0  0  0  0  0  0  0  0  0
   -3.9146   -0.6802    6.9961 C   0  0  0  0  0  0  0  0  0  0  0  0
   -3.1336   -1.2708    7.9398 F   0  0  0  0  0  0  0  0  0  0  0  0
   -3.8938    0.6538    7.2747 F   0  0  0  0  0  0  0  0  0  0  0  0
   -3.2467   -0.8169    5.8168 F   0  0  0  0  0  0  0  0  0  0  0  0
   -6.3986   -0.5838    7.4344 C   0  0  0  0  0  0  0  0  0  0  0  0
   -9.9856   -0.4278    6.9904 C   0  0  0  0  0  0  0  0  0  0  0  0
  -11.2315    0.1207    7.7092 C   0  0  0  0  0  0  0  0  0  0  0  0
  -15.0303   -0.1700    7.6242 C   0  0  0  0  0  0  0  0  0  0  0  0
  -13.9433   -0.9484    7.6476 F   0  0  0  0  0  0  0  0  0  0  0  0
  1  2  1  0
  2  3  1  0
  3  4  1  0
  4  5  2  0
  5  6  1  0
  6  7  1  0
  7  8  1  0
  8  9  1  0
  8 10  1  0
 10 11  1  0
 11 12  1  0
 12 13  1  0
 13 14  1  0
 14 15  1  0
 15 16  1  0
 16 17  1  0
 17 18  2  0
 18 19  1  0
 19 20  2  0
 20 21  1  0
 21 22  1  0
 22 23  1  0
 22 24  1  0
 22 25  1  0
 21 26  2  0
 16 27  1  0
 27 28  1  0
  6 29  2  0
 29 30  1  0
 29  3  1  0
 28 13  1  0
 26 17  1  0
M  END
>  <ref_mols>  (1844) 
B0426a

>  <gnina_score>  (1844) 
5.949

>  <smina_score_min>  (1844) 
-6.119

>  <ref_pdb>  (1844) 
B0426a

>  <inspiration_score>  (1844) 
None

>  <inchikey>  (1844) 
SZFSFQXONRRZAR-UHFFFAOYSA-N

>  <tags>  (1844) 
BulkDock Fragalysis export,openbind_d68ev3c_c2_elabs_scored,openbind_d68ev3c_c2_elabs_scored_4.5plus,openbind_d68ev3c_c2_elabs,openbind_d68ev3c_c2_elabs_scored_5plus,syndirella_product,openbind_d68ev3c_c2_elabs_scored_top80percent,syndirella_placed

>  <smiles>  (1844) 
CCn1ncc(CN(C)CCCN2CCN(c3cccc(C(F)(F)F)c3)CC2)c1F

>  <subsites>  (1844) 
None

>  <rmsd(smina/fragmenstein)>  (1844) 
2.28

>  <alias>  (1844) 
None

>  <energy_score>  (1844) 
-62.136804

>  <HIPPO Pose ID>  (1844) 
132004

>  <distance_score>  (1844) 
0.629408

>  <HIPPO Compound ID>  (1844) 
157973

>  <gnina_score_min>  (1844) 
5.759

>  <name>  (1844) 
P132004

>  <exports>  (1844) 
['/opt/xchem-fragalysis-2/maxwin/BulkDock/OUTPUTS/openbind_d68ev3c_c2_elabs_1LOTQJ3.sdf', '/opt/xchem-fragalysis-2/maxwin/BulkDock/OUTPUTS/openbind_d68ev3c_c2_elabs_1LSYI5W.sdf']

$$$$
P132006
     RDKit          3D

 30 32  0  0  0  0  0  0  0  0999 V2000
  -15.1851    0.1729    5.4972 C   0  0  0  0  0  0  0  0  0  0  0  0
  -14.9320   -0.4365    6.7548 O   0  0  0  0  0  0  0  0  0  0  0  0
  -15.6810    0.1398    7.8228 C   0  0  2  0  0  0  0  0  0  0  0  0
  -14.9962   -0.1887    9.0545 N   0  0  0  0  0  0  0  0  0  0  0  0
  -15.2855    0.6575   10.1856 C   0  0  0  0  0  0  0  0  0  0  0  0
  -14.0880    0.7907   11.1264 C   0  0  0  0  0  0  0  0  0  0  0  0
  -12.7064    0.7071   10.4767 C   0  0  0  0  0  0  0  0  0  0  0  0
  -12.4300    1.6778    9.3150 C   0  0  0  0  0  0  0  0  0  0  0  0
  -11.2295    1.3789    8.5090 N   0  0  0  0  0  0  0  0  0  0  0  0
  -11.3925    0.1060    7.7586 C   0  0  0  0  0  0  0  0  0  0  0  0
  -10.1494   -0.3028    6.9366 C   0  0  0  0  0  0  0  0  0  0  0  0
   -8.9298   -0.3053    7.7790 N   0  0  0  0  0  0  0  0  0  0  0  0
   -7.8227   -1.0026    7.3016 C   0  0  0  0  0  0  0  0  0  0  0  0
   -7.9610   -2.3118    6.8113 C   0  0  0  0  0  0  0  0  0  0  0  0
   -6.8702   -3.0483    6.3448 C   0  0  0  0  0  0  0  0  0  0  0  0
   -5.5979   -2.4942    6.3796 C   0  0  0  0  0  0  0  0  0  0  0  0
   -5.4079   -1.2087    6.8926 C   0  0  0  0  0  0  0  0  0  0  0  0
   -4.0225   -0.6364    6.9686 C   0  0  0  0  0  0  0  0  0  0  0  0
   -3.3462   -0.7853    5.7942 F   0  0  0  0  0  0  0  0  0  0  0  0
   -3.9833    0.6977    7.2455 F   0  0  0  0  0  0  0  0  0  0  0  0
   -3.2530   -1.2359    7.9176 F   0  0  0  0  0  0  0  0  0  0  0  0
   -6.5206   -0.4804    7.3445 C   0  0  0  0  0  0  0  0  0  0  0  0
   -8.7478    0.9603    8.5081 C   0  0  0  0  0  0  0  0  0  0  0  0
  -10.0068    1.3021    9.3300 C   0  0  0  0  0  0  0  0  0  0  0  0
  -17.0848   -0.3917    7.8665 C   0  0  0  0  0  0  0  0  0  0  0  0
  -18.2244    0.2031    8.4572 C   0  0  0  0  0  0  0  0  0  0  0  0
  -19.3343   -0.5253    8.2991 N   0  0  0  0  0  0  0  0  0  0  0  0
  -18.9208   -1.5637    7.5521 N   0  0  0  0  0  0  0  0  0  0  0  0
  -19.8768   -2.5486    7.1119 C   0  0  0  0  0  0  0  0  0  0  0  0
  -17.5852   -1.5541    7.3045 C   0  0  0  0  0  0  0  0  0  0  0  0
  1  2  1  0
  2  3  1  0
  3  4  1  1
  4  5  1  0
  5  6  1  0
  6  7  1  0
  7  8  1  0
  8  9  1  0
  9 10  1  0
 10 11  1  0
 11 12  1  0
 12 13  1  0
 13 14  2  0
 14 15  1  0
 15 16  2  0
 16 17  1  0
 17 18  1  0
 18 19  1  0
 18 20  1  0
 18 21  1  0
 17 22  2  0
 12 23  1  0
 23 24  1  0
  3 25  1  0
 25 26  1  0
 26 27  2  0
 27 28  1  0
 28 29  1  0
 28 30  1  0
 24  9  1  0
 30 25  2  0
 22 13  1  0
M  END
>  <ref_mols>  (1845) 
B0426a

>  <gnina_score>  (1845) 
5.485

>  <smina_score_min>  (1845) 
-5.987

>  <ref_pdb>  (1845) 
B0426a

>  <inspiration_score>  (1845) 
None

>  <inchikey>  (1845) 
NLNQTUGNSIHUKE-FQEVSTJZSA-N

>  <tags>  (1845) 
BulkDock Fragalysis export,openbind_d68ev3c_c2_elabs_scored,openbind_d68ev3c_c2_elabs_scored_4.5plus,openbind_d68ev3c_c2_elabs,openbind_d68ev3c_c2_elabs_scored_5plus,syndirella_product,openbind_d68ev3c_c2_elabs_scored_top80percent,syndirella_placed

>  <smiles>  (1845) 
CO[C@H](NCCCCN1CCN(c2cccc(C(F)(F)F)c2)CC1)c1cnn(C)c1

>  <subsites>  (1845) 
None

>  <rmsd(smina/fragmenstein)>  (1845) 
0.671

>  <alias>  (1845) 
None

>  <energy_score>  (1845) 
-63.385574

>  <HIPPO Pose ID>  (1845) 
132006

>  <distance_score>  (1845) 
0.605939

>  <HIPPO Compound ID>  (1845) 
157974

>  <gnina_score_min>  (1845) 
5.437

>  <name>  (1845) 
P132006

>  <exports>  (1845) 
['/opt/xchem-fragalysis-2/maxwin/BulkDock/OUTPUTS/openbind_d68ev3c_c2_elabs_1LOTQJ3.sdf', '/opt/xchem-fragalysis-2/maxwin/BulkDock/OUTPUTS/openbind_d68ev3c_c2_elabs_1LSYI5W.sdf']

$$$$
P132007
     RDKit          3D

 30 32  0  0  0  0  0  0  0  0999 V2000
  -19.5705   -0.1442   12.0729 C   0  0  0  0  0  0  0  0  0  0  0  0
  -19.4197   -0.1041   10.5960 C   0  0  0  0  0  0  0  0  0  0  0  0
  -20.2723   -0.7790    9.8168 N   0  0  0  0  0  0  0  0  0  0  0  0
  -19.8732   -0.4922    8.5665 N   0  0  0  0  0  0  0  0  0  0  0  0
  -20.6160   -1.0303    7.4504 C   0  0  0  0  0  0  0  0  0  0  0  0
  -18.7617    0.3074    8.5142 C   0  0  0  0  0  0  0  0  0  0  0  0
  -18.1308    0.7317    7.2361 C   0  0  0  0  0  0  0  0  0  0  0  0
  -18.4214    0.5699    9.8345 C   0  0  0  0  0  0  0  0  0  0  0  0
  -17.2786    1.3818   10.3564 C   0  0  0  0  0  0  0  0  0  0  0  0
  -16.2200    0.5180   10.8882 N   0  0  0  0  0  0  0  0  0  0  0  0
  -15.4982   -0.2432    9.8683 C   0  0  0  0  0  0  0  0  0  0  0  0
  -14.5696    0.5608    8.9580 C   0  0  0  0  0  0  0  0  0  0  0  0
  -13.4309    1.2473    9.7210 C   0  0  0  0  0  0  0  0  0  0  0  0
  -12.5020    2.0544    8.7989 C   0  0  0  0  0  0  0  0  0  0  0  0
  -11.2927    1.4172    8.2697 N   0  0  0  0  0  0  0  0  0  0  0  0
  -10.2056    1.3291    9.2620 C   0  0  0  0  0  0  0  0  0  0  0  0
   -8.8884    0.8407    8.6179 C   0  0  0  0  0  0  0  0  0  0  0  0
   -9.0536   -0.4581    7.9343 N   0  0  0  0  0  0  0  0  0  0  0  0
   -7.9090   -1.1072    7.4423 C   0  0  0  0  0  0  0  0  0  0  0  0
   -8.0016   -2.4070    6.9148 C   0  0  0  0  0  0  0  0  0  0  0  0
   -6.8906   -3.0835    6.4057 C   0  0  0  0  0  0  0  0  0  0  0  0
   -5.6398   -2.4824    6.4384 C   0  0  0  0  0  0  0  0  0  0  0  0
   -5.4897   -1.2093    6.9952 C   0  0  0  0  0  0  0  0  0  0  0  0
   -4.1212   -0.5927    7.0790 C   0  0  0  0  0  0  0  0  0  0  0  0
   -3.3456   -1.1602    8.0423 F   0  0  0  0  0  0  0  0  0  0  0  0
   -3.4236   -0.7271    5.9147 F   0  0  0  0  0  0  0  0  0  0  0  0
   -4.1291    0.7437    7.3466 F   0  0  0  0  0  0  0  0  0  0  0  0
   -6.6237   -0.5405    7.4923 C   0  0  0  0  0  0  0  0  0  0  0  0
  -10.2266   -0.4910    7.0257 C   0  0  0  0  0  0  0  0  0  0  0  0
  -11.5005    0.0781    7.6933 C   0  0  0  0  0  0  0  0  0  0  0  0
  1  2  1  0
  2  3  2  0
  3  4  1  0
  4  5  1  0
  4  6  1  0
  6  7  1  0
  6  8  2  0
  8  9  1  0
  9 10  1  0
 10 11  1  0
 11 12  1  0
 12 13  1  0
 13 14  1  0
 14 15  1  0
 15 16  1  0
 16 17  1  0
 17 18  1  0
 18 19  1  0
 19 20  2  0
 20 21  1  0
 21 22  2  0
 22 23  1  0
 23 24  1  0
 24 25  1  0
 24 26  1  0
 24 27  1  0
 23 28  2  0
 18 29  1  0
 29 30  1  0
  8  2  1  0
 30 15  1  0
 28 19  1  0
M  END
>  <ref_mols>  (1846) 
B0426a

>  <gnina_score>  (1846) 
5.415

>  <smina_score_min>  (1846) 
-5.982

>  <ref_pdb>  (1846) 
B0426a

>  <inspiration_score>  (1846) 
None

>  <inchikey>  (1846) 
BDTVHYTZBZTKLC-UHFFFAOYSA-N

>  <tags>  (1846) 
BulkDock Fragalysis export,openbind_d68ev3c_c2_elabs_scored,openbind_d68ev3c_c2_elabs_scored_4.5plus,openbind_d68ev3c_c2_elabs,openbind_d68ev3c_c2_elabs_scored_5plus,syndirella_product,openbind_d68ev3c_c2_elabs_scored_top80percent,syndirella_placed

>  <smiles>  (1846) 
Cc1nn(C)c(C)c1CNCCCCN1CCN(c2cccc(C(F)(F)F)c2)CC1

>  <subsites>  (1846) 
None

>  <rmsd(smina/fragmenstein)>  (1846) 
1.422

>  <alias>  (1846) 
None

>  <energy_score>  (1846) 
-61.434562

>  <HIPPO Pose ID>  (1846) 
132007

>  <distance_score>  (1846) 
0.566366

>  <HIPPO Compound ID>  (1846) 
157975

>  <gnina_score_min>  (1846) 
5.54

>  <name>  (1846) 
P132007

>  <exports>  (1846) 
['/opt/xchem-fragalysis-2/maxwin/BulkDock/OUTPUTS/openbind_d68ev3c_c2_elabs_1LOTQJ3.sdf', '/opt/xchem-fragalysis-2/maxwin/BulkDock/OUTPUTS/openbind_d68ev3c_c2_elabs_1LSYI5W.sdf']

$$$$
P132008
     RDKit          3D

 30 32  0  0  0  0  0  0  0  0999 V2000
  -13.2204    0.7667   12.8499 C   0  0  0  0  0  0  0  0  0  0  0  0
  -13.9763    0.1527   11.8114 O   0  0  0  0  0  0  0  0  0  0  0  0
  -15.0938    0.9353   11.3939 C   0  0  2  0  0  0  0  0  0  0  0  0
  -16.2837    0.7134   12.2874 C   0  0  0  0  0  0  0  0  0  0  0  0
  -17.2849   -0.2684   12.1502 C   0  0  0  0  0  0  0  0  0  0  0  0
  -18.2780   -0.1480   13.0314 N   0  0  0  0  0  0  0  0  0  0  0  0
  -17.8973    0.8988   13.7801 N   0  0  0  0  0  0  0  0  0  0  0  0
  -18.7808    1.3899   14.8084 C   0  0  0  0  0  0  0  0  0  0  0  0
  -16.6995    1.4330   13.3948 C   0  0  0  0  0  0  0  0  0  0  0  0
  -15.4471    0.6216    9.9901 N   0  0  0  0  0  0  0  0  0  0  0  0
  -16.4208    1.5769    9.4480 C   0  0  0  0  0  0  0  0  0  0  0  0
  -14.2525    0.5645    9.1208 C   0  0  0  0  0  0  0  0  0  0  0  0
  -13.2803    1.7466    9.2772 C   0  0  0  0  0  0  0  0  0  0  0  0
  -12.4223    2.0375    8.0495 C   0  0  0  0  0  0  0  0  0  0  0  0
  -11.2213    1.2568    7.7999 N   0  0  0  0  0  0  0  0  0  0  0  0
  -10.1302    1.4949    8.7568 C   0  0  0  0  0  0  0  0  0  0  0  0
   -8.8115    0.8717    8.2487 C   0  0  0  0  0  0  0  0  0  0  0  0
   -8.9329   -0.5591    7.8789 N   0  0  0  0  0  0  0  0  0  0  0  0
   -7.7726   -1.2049    7.4025 C   0  0  0  0  0  0  0  0  0  0  0  0
   -7.8258   -2.4878    6.8266 C   0  0  0  0  0  0  0  0  0  0  0  0
   -6.6935   -3.1279    6.3189 C   0  0  0  0  0  0  0  0  0  0  0  0
   -5.4548   -2.5129    6.4048 C   0  0  0  0  0  0  0  0  0  0  0  0
   -5.3393   -1.2648    7.0182 C   0  0  0  0  0  0  0  0  0  0  0  0
   -3.9869   -0.6294    7.1523 C   0  0  0  0  0  0  0  0  0  0  0  0
   -4.0239    0.7046    7.4294 F   0  0  0  0  0  0  0  0  0  0  0  0
   -3.2293   -1.1944    8.1297 F   0  0  0  0  0  0  0  0  0  0  0  0
   -3.2612   -0.7440    6.0048 F   0  0  0  0  0  0  0  0  0  0  0  0
   -6.4928   -0.6333    7.5147 C   0  0  0  0  0  0  0  0  0  0  0  0
  -10.1830   -0.8976    7.1477 C   0  0  0  0  0  0  0  0  0  0  0  0
  -11.4275   -0.1938    7.7181 C   0  0  0  0  0  0  0  0  0  0  0  0
  1  2  1  0
  3  2  1  1
  3  4  1  0
  4  5  1  0
  5  6  2  0
  6  7  1  0
  7  8  1  0
  7  9  1  0
  3 10  1  0
 10 11  1  0
 10 12  1  0
 12 13  1  0
 13 14  1  0
 14 15  1  0
 15 16  1  0
 16 17  1  0
 17 18  1  0
 18 19  1  0
 19 20  2  0
 20 21  1  0
 21 22  2  0
 22 23  1  0
 23 24  1  0
 24 25  1  0
 24 26  1  0
 24 27  1  0
 23 28  2  0
 18 29  1  0
 29 30  1  0
  9  4  2  0
 30 15  1  0
 28 19  1  0
M  END
>  <ref_mols>  (1847) 
B0426a

>  <gnina_score>  (1847) 
5.585

>  <smina_score_min>  (1847) 
-6.185

>  <ref_pdb>  (1847) 
B0426a

>  <inspiration_score>  (1847) 
None

>  <inchikey>  (1847) 
WMSCKXZMRYONSX-HXUWFJFHSA-N

>  <tags>  (1847) 
BulkDock Fragalysis export,openbind_d68ev3c_c2_elabs_scored,openbind_d68ev3c_c2_elabs_scored_4.5plus,openbind_d68ev3c_c2_elabs,openbind_d68ev3c_c2_elabs_scored_5plus,syndirella_product,openbind_d68ev3c_c2_elabs_scored_top80percent,syndirella_placed

>  <smiles>  (1847) 
CO[C@H](c1cnn(C)c1)N(C)CCCN1CCN(c2cccc(C(F)(F)F)c2)CC1

>  <subsites>  (1847) 
None

>  <rmsd(smina/fragmenstein)>  (1847) 
1.245

>  <alias>  (1847) 
None

>  <energy_score>  (1847) 
-73.969117

>  <HIPPO Pose ID>  (1847) 
132008

>  <distance_score>  (1847) 
0.574406

>  <HIPPO Compound ID>  (1847) 
157976

>  <gnina_score_min>  (1847) 
5.766

>  <name>  (1847) 
P132008

>  <exports>  (1847) 
['/opt/xchem-fragalysis-2/maxwin/BulkDock/OUTPUTS/openbind_d68ev3c_c2_elabs_1LOTQJ3.sdf', '/opt/xchem-fragalysis-2/maxwin/BulkDock/OUTPUTS/openbind_d68ev3c_c2_elabs_1LSYI5W.sdf']

$$$$
P132010
     RDKit          3D

 30 32  0  0  0  0  0  0  0  0999 V2000
  -19.8210    0.1736    5.4270 C   0  0  0  0  0  0  0  0  0  0  0  0
  -18.6794   -0.2560    6.2019 N   0  0  0  0  0  0  0  0  0  0  0  0
  -18.3940   -1.5765    6.2797 N   0  0  0  0  0  0  0  0  0  0  0  0
  -17.2113   -1.5864    6.9037 C   0  0  0  0  0  0  0  0  0  0  0  0
  -16.7790   -0.3063    7.3365 C   0  0  0  0  0  0  0  0  0  0  0  0
  -15.5179    0.0223    8.0766 C   0  0  2  0  0  0  0  0  0  0  0  0
  -14.4438   -0.8029    7.6857 O   0  0  0  0  0  0  0  0  0  0  0  0
  -15.7591   -0.1700    9.4945 N   0  0  0  0  0  0  0  0  0  0  0  0
  -15.3654    0.9666   10.3157 C   0  0  0  0  0  0  0  0  0  0  0  0
  -14.0515    0.8184   11.0773 C   0  0  0  0  0  0  0  0  0  0  0  0
  -12.8186    0.5078   10.2412 C   0  0  0  0  0  0  0  0  0  0  0  0
  -12.4080    1.6075    9.2499 C   0  0  0  0  0  0  0  0  0  0  0  0
  -11.1929    1.3363    8.4626 N   0  0  0  0  0  0  0  0  0  0  0  0
   -9.9859    1.2493    9.3076 C   0  0  0  0  0  0  0  0  0  0  0  0
   -8.7048    0.9305    8.5097 C   0  0  0  0  0  0  0  0  0  0  0  0
   -8.8739   -0.3137    7.7427 N   0  0  0  0  0  0  0  0  0  0  0  0
   -7.7619   -1.0105    7.2803 C   0  0  0  0  0  0  0  0  0  0  0  0
   -7.9003   -2.3144    6.7760 C   0  0  0  0  0  0  0  0  0  0  0  0
   -6.8074   -3.0506    6.3170 C   0  0  0  0  0  0  0  0  0  0  0  0
   -5.5348   -2.5002    6.3738 C   0  0  0  0  0  0  0  0  0  0  0  0
   -5.3473   -1.2200    6.9017 C   0  0  0  0  0  0  0  0  0  0  0  0
   -3.9623   -0.6521    6.9924 C   0  0  0  0  0  0  0  0  0  0  0  0
   -3.9212    0.6803    7.2764 F   0  0  0  0  0  0  0  0  0  0  0  0
   -3.2015   -1.2593    7.9429 F   0  0  0  0  0  0  0  0  0  0  0  0
   -3.2816   -0.7975    5.8210 F   0  0  0  0  0  0  0  0  0  0  0  0
   -6.4611   -0.4920    7.3472 C   0  0  0  0  0  0  0  0  0  0  0  0
  -10.0573   -0.2688    6.8550 C   0  0  0  0  0  0  0  0  0  0  0  0
  -11.3227    0.0957    7.6589 C   0  0  0  0  0  0  0  0  0  0  0  0
  -17.7794    0.5300    6.8702 C   0  0  0  0  0  0  0  0  0  0  0  0
  -17.8719    2.6054    7.0905 I   0  0  0  0  0  0  0  0  0  0  0  0
  1  2  1  0
  2  3  1  0
  3  4  2  0
  4  5  1  0
  5  6  1  0
  6  7  1  6
  6  8  1  0
  8  9  1  0
  9 10  1  0
 10 11  1  0
 11 12  1  0
 12 13  1  0
 13 14  1  0
 14 15  1  0
 15 16  1  0
 16 17  1  0
 17 18  2  0
 18 19  1  0
 19 20  2  0
 20 21  1  0
 21 22  1  0
 22 23  1  0
 22 24  1  0
 22 25  1  0
 21 26  2  0
 16 27  1  0
 27 28  1  0
  5 29  2  0
 29 30  1  0
 29  2  1  0
 28 13  1  0
 26 17  1  0
M  END
>  <ref_mols>  (1848) 
B0426a

>  <gnina_score>  (1848) 
5.533

>  <smina_score_min>  (1848) 
-6.425

>  <ref_pdb>  (1848) 
B0426a

>  <inspiration_score>  (1848) 
None

>  <inchikey>  (1848) 
ISHWQKNYQPKSLI-IBGZPJMESA-N

>  <tags>  (1848) 
BulkDock Fragalysis export,openbind_d68ev3c_c2_elabs_scored,openbind_d68ev3c_c2_elabs_scored_4.5plus,openbind_d68ev3c_c2_elabs,openbind_d68ev3c_c2_elabs_scored_5plus,syndirella_product,openbind_d68ev3c_c2_elabs_scored_top80percent,syndirella_placed

>  <smiles>  (1848) 
Cn1ncc([C@H](O)NCCCCN2CCN(c3cccc(C(F)(F)F)c3)CC2)c1I

>  <subsites>  (1848) 
None

>  <rmsd(smina/fragmenstein)>  (1848) 
0.515

>  <alias>  (1848) 
None

>  <energy_score>  (1848) 
-47.000679

>  <HIPPO Pose ID>  (1848) 
132010

>  <distance_score>  (1848) 
0.589183

>  <HIPPO Compound ID>  (1848) 
157977

>  <gnina_score_min>  (1848) 
5.393

>  <name>  (1848) 
P132010

>  <exports>  (1848) 
['/opt/xchem-fragalysis-2/maxwin/BulkDock/OUTPUTS/openbind_d68ev3c_c2_elabs_1LOTQJ3.sdf', '/opt/xchem-fragalysis-2/maxwin/BulkDock/OUTPUTS/openbind_d68ev3c_c2_elabs_1LSYI5W.sdf']

$$$$
P132012
     RDKit          3D

 30 32  0  0  0  0  0  0  0  0999 V2000
  -16.4998   -0.0677    8.4199 C   0  0  0  0  0  0  0  0  0  0  0  0
  -15.6023    0.5809    9.3838 N   0  0  0  0  0  0  0  0  0  0  0  0
  -14.2046    0.3033    9.0219 C   0  0  0  0  0  0  0  0  0  0  0  0
  -13.2609    1.4033    9.5392 C   0  0  0  0  0  0  0  0  0  0  0  0
  -12.3691    2.0325    8.4652 C   0  0  0  0  0  0  0  0  0  0  0  0
  -11.1599    1.3344    8.0399 N   0  0  0  0  0  0  0  0  0  0  0  0
  -10.0923    1.3433    9.0561 C   0  0  0  0  0  0  0  0  0  0  0  0
   -8.7698    0.8012    8.4735 C   0  0  0  0  0  0  0  0  0  0  0  0
   -8.9212   -0.5477    7.8857 N   0  0  0  0  0  0  0  0  0  0  0  0
   -7.7673   -1.1926    7.4061 C   0  0  0  0  0  0  0  0  0  0  0  0
   -7.8415   -2.4923    6.8749 C   0  0  0  0  0  0  0  0  0  0  0  0
   -6.7248   -3.1469    6.3544 C   0  0  0  0  0  0  0  0  0  0  0  0
   -5.4844   -2.5271    6.3870 C   0  0  0  0  0  0  0  0  0  0  0  0
   -5.3511   -1.2599    6.9583 C   0  0  0  0  0  0  0  0  0  0  0  0
   -3.9955   -0.6209    7.0329 C   0  0  0  0  0  0  0  0  0  0  0  0
   -4.0228    0.7126    7.3127 F   0  0  0  0  0  0  0  0  0  0  0  0
   -3.3193   -0.7337    5.8550 F   0  0  0  0  0  0  0  0  0  0  0  0
   -3.1947   -1.1846    7.9769 F   0  0  0  0  0  0  0  0  0  0  0  0
   -6.4899   -0.6118    7.4644 C   0  0  0  0  0  0  0  0  0  0  0  0
  -10.1024   -0.6762    6.9972 C   0  0  0  0  0  0  0  0  0  0  0  0
  -11.3706   -0.0569    7.6146 C   0  0  0  0  0  0  0  0  0  0  0  0
  -15.9467    0.2215   10.7667 C   0  0  1  0  0  0  0  0  0  0  0  0
  -14.8903    0.5231   11.6630 O   0  0  0  0  0  0  0  0  0  0  0  0
  -17.1955    0.9885   11.1578 C   0  0  0  0  0  0  0  0  0  0  0  0
  -17.7205    2.1444   10.5097 C   0  0  0  0  0  0  0  0  0  0  0  0
  -18.8932    2.5455   10.9995 N   0  0  0  0  0  0  0  0  0  0  0  0
  -19.1179    1.6861   12.0080 N   0  0  0  0  0  0  0  0  0  0  0  0
  -20.3471    1.7926   12.7605 C   0  0  0  0  0  0  0  0  0  0  0  0
  -18.1015    0.7865   12.1852 C   0  0  0  0  0  0  0  0  0  0  0  0
  -17.9770   -0.5891   13.7299 I   0  0  0  0  0  0  0  0  0  0  0  0
  1  2  1  0
  2  3  1  0
  3  4  1  0
  4  5  1  0
  5  6  1  0
  6  7  1  0
  7  8  1  0
  8  9  1  0
  9 10  1  0
 10 11  2  0
 11 12  1  0
 12 13  2  0
 13 14  1  0
 14 15  1  0
 15 16  1  0
 15 17  1  0
 15 18  1  0
 14 19  2  0
  9 20  1  0
 20 21  1  0
  2 22  1  0
 22 23  1  1
 22 24  1  0
 24 25  1  0
 25 26  2  0
 26 27  1  0
 27 28  1  0
 27 29  1  0
 29 30  1  0
 21  6  1  0
 29 24  2  0
 19 10  1  0
M  END
>  <ref_mols>  (1849) 
B0426a

>  <gnina_score>  (1849) 
5.37

>  <smina_score_min>  (1849) 
-6.057

>  <ref_pdb>  (1849) 
B0426a

>  <inspiration_score>  (1849) 
None

>  <inchikey>  (1849) 
PLMPDLDSEDVVDI-IBGZPJMESA-N

>  <tags>  (1849) 
BulkDock Fragalysis export,openbind_d68ev3c_c2_elabs_scored,openbind_d68ev3c_c2_elabs_scored_4.5plus,openbind_d68ev3c_c2_elabs,openbind_d68ev3c_c2_elabs_scored_5plus,syndirella_product,openbind_d68ev3c_c2_elabs_scored_top80percent,syndirella_placed

>  <smiles>  (1849) 
CN(CCCN1CCN(c2cccc(C(F)(F)F)c2)CC1)[C@@H](O)c1cnn(C)c1I

>  <subsites>  (1849) 
None

>  <rmsd(smina/fragmenstein)>  (1849) 
1.393

>  <alias>  (1849) 
None

>  <energy_score>  (1849) 
-44.815848

>  <HIPPO Pose ID>  (1849) 
132012

>  <distance_score>  (1849) 
0.565666

>  <HIPPO Compound ID>  (1849) 
157978

>  <gnina_score_min>  (1849) 
5.54

>  <name>  (1849) 
P132012

>  <exports>  (1849) 
['/opt/xchem-fragalysis-2/maxwin/BulkDock/OUTPUTS/openbind_d68ev3c_c2_elabs_1LOTQJ3.sdf', '/opt/xchem-fragalysis-2/maxwin/BulkDock/OUTPUTS/openbind_d68ev3c_c2_elabs_1LSYI5W.sdf']

$$$$
P132013
     RDKit          3D

 30 33  0  0  0  0  0  0  0  0999 V2000
   -3.1351   -0.8695    6.0063 F   0  0  0  0  0  0  0  0  0  0  0  0
   -3.8733   -0.7316    7.1415 C   0  0  0  0  0  0  0  0  0  0  0  0
   -3.8077    0.5926    7.4582 F   0  0  0  0  0  0  0  0  0  0  0  0
   -3.1923   -1.3872    8.1165 F   0  0  0  0  0  0  0  0  0  0  0  0
   -5.2687   -1.2415    6.9495 C   0  0  0  0  0  0  0  0  0  0  0  0
   -5.4921   -2.4234    6.2415 C   0  0  0  0  0  0  0  0  0  0  0  0
   -6.7860   -2.8918    6.0715 C   0  0  0  0  0  0  0  0  0  0  0  0
   -7.8640   -2.1650    6.5845 C   0  0  0  0  0  0  0  0  0  0  0  0
   -7.6868   -0.9601    7.2848 C   0  0  0  0  0  0  0  0  0  0  0  0
   -8.7417   -0.2270    7.8296 N   0  0  0  0  0  0  0  0  0  0  0  0
  -10.1163   -0.7400    7.6744 C   0  0  0  0  0  0  0  0  0  0  0  0
  -11.0840   -0.0473    8.6604 C   0  0  0  0  0  0  0  0  0  0  0  0
  -11.0632    1.4320    8.5954 N   0  0  0  0  0  0  0  0  0  0  0  0
  -11.8470    2.0699    9.6675 C   0  0  0  0  0  0  0  0  0  0  0  0
  -13.3388    1.7408    9.6844 C   0  0  0  0  0  0  0  0  0  0  0  0
  -13.6888    0.5499   10.5751 C   0  0  0  0  0  0  0  0  0  0  0  0
  -15.1904    0.3158   10.7255 C   0  0  0  0  0  0  0  0  0  0  0  0
  -15.8390   -0.4080    9.6389 N   0  0  0  0  0  0  0  0  0  0  0  0
  -15.9934    0.2870    8.3659 C   0  0  0  0  0  0  0  0  0  0  0  0
  -16.7927    1.5325    8.5063 C   0  0  0  0  0  0  0  0  0  0  0  0
  -16.4604    2.8429    8.0330 C   0  0  0  0  0  0  0  0  0  0  0  0
  -17.3896    3.7705    8.3232 N   0  0  0  0  0  0  0  0  0  0  0  0
  -18.2998    3.0464    8.9601 N   0  0  0  0  0  0  0  0  0  0  0  0
  -18.0193    1.7308    9.0907 C   0  0  0  0  0  0  0  0  0  0  0  0
  -19.1001    1.0374    9.8104 C   0  0  0  0  0  0  0  0  0  0  0  0
  -19.8995    2.2277   10.4105 C   0  0  0  0  0  0  0  0  0  0  0  0
  -19.5537    3.4608    9.5526 C   0  0  0  0  0  0  0  0  0  0  0  0
   -9.6582    1.8871    8.7272 C   0  0  0  0  0  0  0  0  0  0  0  0
   -8.6958    1.2443    7.7112 C   0  0  0  0  0  0  0  0  0  0  0  0
   -6.3622   -0.5442    7.4813 C   0  0  0  0  0  0  0  0  0  0  0  0
  1  2  1  0
  2  3  1  0
  2  4  1  0
  2  5  1  0
  5  6  2  0
  6  7  1  0
  7  8  2  0
  8  9  1  0
  9 10  1  0
 10 11  1  0
 11 12  1  0
 12 13  1  0
 13 14  1  0
 14 15  1  0
 15 16  1  0
 16 17  1  0
 17 18  1  0
 18 19  1  0
 19 20  1  0
 20 21  1  0
 21 22  2  0
 22 23  1  0
 23 24  1  0
 24 25  1  0
 25 26  1  0
 26 27  1  0
 13 28  1  0
 28 29  1  0
  9 30  2  0
 30  5  1  0
 29 10  1  0
 24 20  2  0
 27 23  1  0
M  END
>  <ref_mols>  (1850) 
B0426a

>  <gnina_score>  (1850) 
5.578

>  <smina_score_min>  (1850) 
-5.374

>  <ref_pdb>  (1850) 
B0426a

>  <inspiration_score>  (1850) 
None

>  <inchikey>  (1850) 
WEBMUBHLVNLJMM-UHFFFAOYSA-N

>  <tags>  (1850) 
BulkDock Fragalysis export,openbind_d68ev3c_c2_elabs_scored,openbind_d68ev3c_c2_elabs_scored_4.5plus,openbind_d68ev3c_c2_elabs,openbind_d68ev3c_c2_elabs_scored_5plus,syndirella_product,openbind_d68ev3c_c2_elabs_scored_top80percent,syndirella_placed

>  <smiles>  (1850) 
FC(F)(F)c1cccc(N2CCN(CCCCNCc3cnn4c3CCC4)CC2)c1

>  <subsites>  (1850) 
None

>  <rmsd(smina/fragmenstein)>  (1850) 
1.442

>  <alias>  (1850) 
None

>  <energy_score>  (1850) 
-44.627038

>  <HIPPO Pose ID>  (1850) 
132013

>  <distance_score>  (1850) 
0.535413

>  <HIPPO Compound ID>  (1850) 
157979

>  <gnina_score_min>  (1850) 
5.545

>  <name>  (1850) 
P132013

>  <exports>  (1850) 
['/opt/xchem-fragalysis-2/maxwin/BulkDock/OUTPUTS/openbind_d68ev3c_c2_elabs_1LOTQJ3.sdf', '/opt/xchem-fragalysis-2/maxwin/BulkDock/OUTPUTS/openbind_d68ev3c_c2_elabs_1LSYI5W.sdf']

$$$$
P132014
     RDKit          3D

 30 33  0  0  0  0  0  0  0  0999 V2000
  -15.9945   -0.3143   11.5041 C   0  0  0  0  0  0  0  0  0  0  0  0
  -15.4179    0.4943   10.4425 N   0  0  0  0  0  0  0  0  0  0  0  0
  -13.9570    0.6216   10.5579 C   0  0  0  0  0  0  0  0  0  0  0  0
  -13.4108    1.7038    9.6198 C   0  0  0  0  0  0  0  0  0  0  0  0
  -11.9135    1.9496    9.7816 C   0  0  0  0  0  0  0  0  0  0  0  0
  -11.0868    1.3692    8.7097 N   0  0  0  0  0  0  0  0  0  0  0  0
  -11.1252   -0.1131    8.7086 C   0  0  0  0  0  0  0  0  0  0  0  0
  -10.1540   -0.7550    7.6898 C   0  0  0  0  0  0  0  0  0  0  0  0
   -8.7710   -0.2614    7.8807 N   0  0  0  0  0  0  0  0  0  0  0  0
   -7.7152   -0.9730    7.3092 C   0  0  0  0  0  0  0  0  0  0  0  0
   -7.8920   -2.1645    6.5860 C   0  0  0  0  0  0  0  0  0  0  0  0
   -6.8156   -2.8787    6.0507 C   0  0  0  0  0  0  0  0  0  0  0  0
   -5.5213   -2.4113    6.2184 C   0  0  0  0  0  0  0  0  0  0  0  0
   -5.2957   -1.2416    6.9452 C   0  0  0  0  0  0  0  0  0  0  0  0
   -3.8994   -0.7325    7.1383 C   0  0  0  0  0  0  0  0  0  0  0  0
   -3.2175   -1.3919    8.1107 F   0  0  0  0  0  0  0  0  0  0  0  0
   -3.8325    0.5905    7.4601 F   0  0  0  0  0  0  0  0  0  0  0  0
   -3.1591   -0.8659    6.0030 F   0  0  0  0  0  0  0  0  0  0  0  0
   -6.3882   -0.5577    7.4995 C   0  0  0  0  0  0  0  0  0  0  0  0
   -8.7144    1.2146    7.8642 C   0  0  0  0  0  0  0  0  0  0  0  0
   -9.6855    1.7987    8.9077 C   0  0  0  0  0  0  0  0  0  0  0  0
  -15.8291   -0.0083    9.1216 C   0  0  0  0  0  0  0  0  0  0  0  0
  -16.2582    1.1441    8.2824 C   0  0  0  0  0  0  0  0  0  0  0  0
  -17.1848    2.1843    8.6207 C   0  0  0  0  0  0  0  0  0  0  0  0
  -17.3280    3.1144    7.6601 N   0  0  0  0  0  0  0  0  0  0  0  0
  -16.5017    2.6583    6.7257 N   0  0  0  0  0  0  0  0  0  0  0  0
  -15.8638    1.5006    7.0176 C   0  0  0  0  0  0  0  0  0  0  0  0
  -14.9522    1.1284    5.9198 C   0  0  0  0  0  0  0  0  0  0  0  0
  -14.7981    2.4844    5.1781 C   0  0  0  0  0  0  0  0  0  0  0  0
  -16.0773    3.2861    5.4901 C   0  0  0  0  0  0  0  0  0  0  0  0
  1  2  1  0
  2  3  1  0
  3  4  1  0
  4  5  1  0
  5  6  1  0
  6  7  1  0
  7  8  1  0
  8  9  1  0
  9 10  1  0
 10 11  2  0
 11 12  1  0
 12 13  2  0
 13 14  1  0
 14 15  1  0
 15 16  1  0
 15 17  1  0
 15 18  1  0
 14 19  2  0
  9 20  1  0
 20 21  1  0
  2 22  1  0
 22 23  1  0
 23 24  1  0
 24 25  2  0
 25 26  1  0
 26 27  1  0
 27 28  1  0
 28 29  1  0
 29 30  1  0
 21  6  1  0
 27 23  2  0
 19 10  1  0
 30 26  1  0
M  END
>  <ref_mols>  (1851) 
B0426a

>  <gnina_score>  (1851) 
5.674

>  <smina_score_min>  (1851) 
-5.611

>  <ref_pdb>  (1851) 
B0426a

>  <inspiration_score>  (1851) 
None

>  <inchikey>  (1851) 
PTNIRWSQHAGVKN-UHFFFAOYSA-N

>  <tags>  (1851) 
BulkDock Fragalysis export,openbind_d68ev3c_c2_elabs_scored,openbind_d68ev3c_c2_elabs_scored_4.5plus,openbind_d68ev3c_c2_elabs,openbind_d68ev3c_c2_elabs_scored_5plus,syndirella_product,openbind_d68ev3c_c2_elabs_scored_top80percent,syndirella_placed

>  <smiles>  (1851) 
CN(CCCN1CCN(c2cccc(C(F)(F)F)c2)CC1)Cc1cnn2c1CCC2

>  <subsites>  (1851) 
None

>  <rmsd(smina/fragmenstein)>  (1851) 
1.076

>  <alias>  (1851) 
None

>  <energy_score>  (1851) 
-60.792925

>  <HIPPO Pose ID>  (1851) 
132014

>  <distance_score>  (1851) 
0.619559

>  <HIPPO Compound ID>  (1851) 
157980

>  <gnina_score_min>  (1851) 
5.523

>  <name>  (1851) 
P132014

>  <exports>  (1851) 
['/opt/xchem-fragalysis-2/maxwin/BulkDock/OUTPUTS/openbind_d68ev3c_c2_elabs_1LOTQJ3.sdf', '/opt/xchem-fragalysis-2/maxwin/BulkDock/OUTPUTS/openbind_d68ev3c_c2_elabs_1LSYI5W.sdf']

$$$$
P132015
     RDKit          3D

 30 32  0  0  0  0  0  0  0  0999 V2000
  -20.3438   -1.2650   14.3543 C   0  0  0  0  0  0  0  0  0  0  0  0
  -20.0171    0.1800   14.0185 C   0  0  0  0  0  0  0  0  0  0  0  0
  -18.6504    0.3349   13.5521 N   0  0  0  0  0  0  0  0  0  0  0  0
  -17.6796    0.5780   14.4551 N   0  0  0  0  0  0  0  0  0  0  0  0
  -16.5716    0.6060   13.7137 C   0  0  0  0  0  0  0  0  0  0  0  0
  -16.8118    0.4090   12.3340 C   0  0  0  0  0  0  0  0  0  0  0  0
  -15.8092    0.3698   11.2170 C   0  0  0  0  0  0  0  0  0  0  0  0
  -14.5616    1.0495   11.5856 N   0  0  0  0  0  0  0  0  0  0  0  0
  -14.7347    2.5021   11.7473 C   0  0  0  0  0  0  0  0  0  0  0  0
  -13.4493    0.7763   10.6569 C   0  0  0  0  0  0  0  0  0  0  0  0
  -13.6998    1.1602    9.1954 C   0  0  0  0  0  0  0  0  0  0  0  0
  -12.5521    1.9394    8.5376 C   0  0  0  0  0  0  0  0  0  0  0  0
  -11.3206    1.2612    8.1519 N   0  0  0  0  0  0  0  0  0  0  0  0
  -11.5026   -0.1081    7.6518 C   0  0  0  0  0  0  0  0  0  0  0  0
  -10.2127   -0.6770    7.0261 C   0  0  0  0  0  0  0  0  0  0  0  0
   -9.0402   -0.5612    7.9297 N   0  0  0  0  0  0  0  0  0  0  0  0
   -7.8732   -1.1800    7.4472 C   0  0  0  0  0  0  0  0  0  0  0  0
   -7.9263   -2.4776    6.9067 C   0  0  0  0  0  0  0  0  0  0  0  0
   -6.7971   -3.1182    6.3934 C   0  0  0  0  0  0  0  0  0  0  0  0
   -5.5635   -2.4857    6.4405 C   0  0  0  0  0  0  0  0  0  0  0  0
   -5.4501   -1.2170    7.0157 C   0  0  0  0  0  0  0  0  0  0  0  0
   -4.0974   -0.5703    7.1146 C   0  0  0  0  0  0  0  0  0  0  0  0
   -4.1371    0.7676    7.3692 F   0  0  0  0  0  0  0  0  0  0  0  0
   -3.3227   -1.1137    8.0920 F   0  0  0  0  0  0  0  0  0  0  0  0
   -3.3828   -0.7008    5.9604 F   0  0  0  0  0  0  0  0  0  0  0  0
   -6.6031   -0.5826    7.5147 C   0  0  0  0  0  0  0  0  0  0  0  0
   -8.9219    0.7657    8.5744 C   0  0  0  0  0  0  0  0  0  0  0  0
  -10.2639    1.2507    9.1738 C   0  0  0  0  0  0  0  0  0  0  0  0
  -18.1894    0.2552   12.2592 C   0  0  0  0  0  0  0  0  0  0  0  0
  -19.0775    0.0326   11.0915 C   0  0  0  0  0  0  0  0  0  0  0  0
  1  2  1  0
  2  3  1  0
  3  4  1  0
  4  5  2  0
  5  6  1  0
  6  7  1  0
  7  8  1  0
  8  9  1  0
  8 10  1  0
 10 11  1  0
 11 12  1  0
 12 13  1  0
 13 14  1  0
 14 15  1  0
 15 16  1  0
 16 17  1  0
 17 18  2  0
 18 19  1  0
 19 20  2  0
 20 21  1  0
 21 22  1  0
 22 23  1  0
 22 24  1  0
 22 25  1  0
 21 26  2  0
 16 27  1  0
 27 28  1  0
  6 29  2  0
 29 30  1  0
 29  3  1  0
 28 13  1  0
 26 17  1  0
M  END
>  <ref_mols>  (1852) 
B0426a

>  <gnina_score>  (1852) 
5.464

>  <smina_score_min>  (1852) 
-6.226

>  <ref_pdb>  (1852) 
B0426a

>  <inspiration_score>  (1852) 
None

>  <inchikey>  (1852) 
NTZKZSUWMMOSSU-UHFFFAOYSA-N

>  <tags>  (1852) 
BulkDock Fragalysis export,openbind_d68ev3c_c2_elabs_scored,openbind_d68ev3c_c2_elabs_scored_4.5plus,openbind_d68ev3c_c2_elabs,openbind_d68ev3c_c2_elabs_scored_5plus,syndirella_product,openbind_d68ev3c_c2_elabs_scored_top80percent,syndirella_placed

>  <smiles>  (1852) 
CCn1ncc(CN(C)CCCN2CCN(c3cccc(C(F)(F)F)c3)CC2)c1C

>  <subsites>  (1852) 
None

>  <rmsd(smina/fragmenstein)>  (1852) 
0.446

>  <alias>  (1852) 
None

>  <energy_score>  (1852) 
-38.928757

>  <HIPPO Pose ID>  (1852) 
132015

>  <distance_score>  (1852) 
0.555427

>  <HIPPO Compound ID>  (1852) 
157981

>  <gnina_score_min>  (1852) 
5.521

>  <name>  (1852) 
P132015

>  <exports>  (1852) 
['/opt/xchem-fragalysis-2/maxwin/BulkDock/OUTPUTS/openbind_d68ev3c_c2_elabs_1LOTQJ3.sdf', '/opt/xchem-fragalysis-2/maxwin/BulkDock/OUTPUTS/openbind_d68ev3c_c2_elabs_1LSYI5W.sdf']

$$$$
P132016
     RDKit          3D

 30 32  0  0  0  0  0  0  0  0999 V2000
  -17.6941    3.3812    8.5810 C   0  0  0  0  0  0  0  0  0  0  0  0
  -17.8627    2.1239    7.8099 C   0  0  0  0  0  0  0  0  0  0  0  0
  -18.9151    1.9789    6.9922 N   0  0  0  0  0  0  0  0  0  0  0  0
  -18.7340    0.7558    6.4452 N   0  0  0  0  0  0  0  0  0  0  0  0
  -19.6340    0.3156    5.4062 C   0  0  0  0  0  0  0  0  0  0  0  0
  -17.6486    0.1119    6.9580 C   0  0  0  0  0  0  0  0  0  0  0  0
  -17.2716   -1.4871    6.5206 Cl  0  0  0  0  0  0  0  0  0  0  0  0
  -17.0042    0.9840    7.8004 C   0  0  0  0  0  0  0  0  0  0  0  0
  -15.7057    0.8220    8.5064 C   0  0  0  0  0  0  0  0  0  0  0  0
  -15.8838   -0.0808    9.6328 N   0  0  0  0  0  0  0  0  0  0  0  0
  -15.0181    0.2286   10.7667 C   0  0  0  0  0  0  0  0  0  0  0  0
  -13.5146    0.2360   10.4644 C   0  0  0  0  0  0  0  0  0  0  0  0
  -12.9216    1.6220   10.1933 C   0  0  0  0  0  0  0  0  0  0  0  0
  -12.4153    1.9360    8.7769 C   0  0  0  0  0  0  0  0  0  0  0  0
  -11.2184    1.2886    8.2506 N   0  0  0  0  0  0  0  0  0  0  0  0
  -11.3823   -0.1386    7.9380 C   0  0  0  0  0  0  0  0  0  0  0  0
  -10.1783   -0.7022    7.1596 C   0  0  0  0  0  0  0  0  0  0  0  0
   -8.9043   -0.4755    7.8921 N   0  0  0  0  0  0  0  0  0  0  0  0
   -7.7756   -1.1357    7.3825 C   0  0  0  0  0  0  0  0  0  0  0  0
   -7.8647   -2.4387    6.8608 C   0  0  0  0  0  0  0  0  0  0  0  0
   -6.7575   -3.1138    6.3419 C   0  0  0  0  0  0  0  0  0  0  0  0
   -5.5090   -2.5119    6.3636 C   0  0  0  0  0  0  0  0  0  0  0  0
   -5.3592   -1.2401    6.9182 C   0  0  0  0  0  0  0  0  0  0  0  0
   -3.9955   -0.6188    6.9871 C   0  0  0  0  0  0  0  0  0  0  0  0
   -3.2039   -1.1834    7.9388 F   0  0  0  0  0  0  0  0  0  0  0  0
   -4.0036    0.7179    7.2529 F   0  0  0  0  0  0  0  0  0  0  0  0
   -3.3186   -0.7541    5.8119 F   0  0  0  0  0  0  0  0  0  0  0  0
   -6.4891   -0.5715    7.4192 C   0  0  0  0  0  0  0  0  0  0  0  0
   -8.7534    0.9159    8.3758 C   0  0  0  0  0  0  0  0  0  0  0  0
  -10.0208    1.4427    9.0880 C   0  0  0  0  0  0  0  0  0  0  0  0
  1  2  1  0
  2  3  2  0
  3  4  1  0
  4  5  1  0
  4  6  1  0
  6  7  1  0
  6  8  2  0
  8  9  1  0
  9 10  1  0
 10 11  1  0
 11 12  1  0
 12 13  1  0
 13 14  1  0
 14 15  1  0
 15 16  1  0
 16 17  1  0
 17 18  1  0
 18 19  1  0
 19 20  2  0
 20 21  1  0
 21 22  2  0
 22 23  1  0
 23 24  1  0
 24 25  1  0
 24 26  1  0
 24 27  1  0
 23 28  2  0
 18 29  1  0
 29 30  1  0
  8  2  1  0
 30 15  1  0
 28 19  1  0
M  END
>  <ref_mols>  (1853) 
B0426a

>  <gnina_score>  (1853) 
5.551

>  <smina_score_min>  (1853) 
-5.823

>  <ref_pdb>  (1853) 
B0426a

>  <inspiration_score>  (1853) 
None

>  <inchikey>  (1853) 
NCWOXGLNTXQDPU-UHFFFAOYSA-N

>  <tags>  (1853) 
BulkDock Fragalysis export,openbind_d68ev3c_c2_elabs_scored,openbind_d68ev3c_c2_elabs_scored_4.5plus,openbind_d68ev3c_c2_elabs,openbind_d68ev3c_c2_elabs_scored_5plus,syndirella_product,openbind_d68ev3c_c2_elabs_scored_top80percent,syndirella_placed

>  <smiles>  (1853) 
Cc1nn(C)c(Cl)c1CNCCCCN1CCN(c2cccc(C(F)(F)F)c2)CC1

>  <subsites>  (1853) 
None

>  <rmsd(smina/fragmenstein)>  (1853) 
0.568

>  <alias>  (1853) 
None

>  <energy_score>  (1853) 
-45.735151

>  <HIPPO Pose ID>  (1853) 
132016

>  <distance_score>  (1853) 
0.446769

>  <HIPPO Compound ID>  (1853) 
157982

>  <gnina_score_min>  (1853) 
5.532

>  <name>  (1853) 
P132016

>  <exports>  (1853) 
['/opt/xchem-fragalysis-2/maxwin/BulkDock/OUTPUTS/openbind_d68ev3c_c2_elabs_1LOTQJ3.sdf', '/opt/xchem-fragalysis-2/maxwin/BulkDock/OUTPUTS/openbind_d68ev3c_c2_elabs_1LSYI5W.sdf']

$$$$
P132017
     RDKit          3D

 30 32  0  0  0  0  0  0  0  0999 V2000
  -17.7388    2.6175    9.9122 C   0  0  0  0  0  0  0  0  0  0  0  0
  -17.0897    2.3012    8.6144 C   0  0  0  0  0  0  0  0  0  0  0  0
  -17.2427    3.1402    7.5792 N   0  0  0  0  0  0  0  0  0  0  0  0
  -16.5179    2.5727    6.5890 N   0  0  0  0  0  0  0  0  0  0  0  0
  -16.4241    3.2707    5.3305 C   0  0  0  0  0  0  0  0  0  0  0  0
  -15.9738    1.3821    6.9603 C   0  0  0  0  0  0  0  0  0  0  0  0
  -15.0837    0.4306    5.8633 Cl  0  0  0  0  0  0  0  0  0  0  0  0
  -16.2751    1.1733    8.2863 C   0  0  0  0  0  0  0  0  0  0  0  0
  -15.8807    0.0213    9.1490 C   0  0  0  0  0  0  0  0  0  0  0  0
  -15.4230    0.5110   10.4598 N   0  0  0  0  0  0  0  0  0  0  0  0
  -15.9692   -0.3091   11.5297 C   0  0  0  0  0  0  0  0  0  0  0  0
  -13.9576    0.6247   10.5312 C   0  0  0  0  0  0  0  0  0  0  0  0
  -13.4257    1.7044    9.5819 C   0  0  0  0  0  0  0  0  0  0  0  0
  -11.9295    1.9635    9.7406 C   0  0  0  0  0  0  0  0  0  0  0  0
  -11.0929    1.3743    8.6836 N   0  0  0  0  0  0  0  0  0  0  0  0
  -11.1377   -0.1067    8.6799 C   0  0  0  0  0  0  0  0  0  0  0  0
  -10.1586   -0.7515    7.6705 C   0  0  0  0  0  0  0  0  0  0  0  0
   -8.7746   -0.2662    7.8811 N   0  0  0  0  0  0  0  0  0  0  0  0
   -7.7176   -0.9775    7.3093 C   0  0  0  0  0  0  0  0  0  0  0  0
   -7.8936   -2.1654    6.5803 C   0  0  0  0  0  0  0  0  0  0  0  0
   -6.8164   -2.8773    6.0436 C   0  0  0  0  0  0  0  0  0  0  0  0
   -5.5221   -2.4110    6.2151 C   0  0  0  0  0  0  0  0  0  0  0  0
   -5.2973   -1.2447    6.9476 C   0  0  0  0  0  0  0  0  0  0  0  0
   -3.9015   -0.7349    7.1432 C   0  0  0  0  0  0  0  0  0  0  0  0
   -3.8360    0.5877    7.4669 F   0  0  0  0  0  0  0  0  0  0  0  0
   -3.2213   -1.3951    8.1162 F   0  0  0  0  0  0  0  0  0  0  0  0
   -3.1588   -0.8667    6.0093 F   0  0  0  0  0  0  0  0  0  0  0  0
   -6.3906   -0.5642    7.5046 C   0  0  0  0  0  0  0  0  0  0  0  0
   -8.7133    1.2104    7.8599 C   0  0  0  0  0  0  0  0  0  0  0  0
   -9.6926    1.8010    8.8920 C   0  0  0  0  0  0  0  0  0  0  0  0
  1  2  1  0
  2  3  2  0
  3  4  1  0
  4  5  1  0
  4  6  1  0
  6  7  1  0
  6  8  2  0
  8  9  1  0
  9 10  1  0
 10 11  1  0
 10 12  1  0
 12 13  1  0
 13 14  1  0
 14 15  1  0
 15 16  1  0
 16 17  1  0
 17 18  1  0
 18 19  1  0
 19 20  2  0
 20 21  1  0
 21 22  2  0
 22 23  1  0
 23 24  1  0
 24 25  1  0
 24 26  1  0
 24 27  1  0
 23 28  2  0
 18 29  1  0
 29 30  1  0
  8  2  1  0
 30 15  1  0
 28 19  1  0
M  END
>  <ref_mols>  (1854) 
B0426a

>  <gnina_score>  (1854) 
5.737

>  <smina_score_min>  (1854) 
-6.26

>  <ref_pdb>  (1854) 
B0426a

>  <inspiration_score>  (1854) 
None

>  <inchikey>  (1854) 
SIQGABDYTIOHSD-UHFFFAOYSA-N

>  <tags>  (1854) 
BulkDock Fragalysis export,openbind_d68ev3c_c2_elabs_scored,openbind_d68ev3c_c2_elabs_scored_4.5plus,openbind_d68ev3c_c2_elabs,openbind_d68ev3c_c2_elabs_scored_5plus,syndirella_product,openbind_d68ev3c_c2_elabs_scored_top80percent,syndirella_placed

>  <smiles>  (1854) 
Cc1nn(C)c(Cl)c1CN(C)CCCN1CCN(c2cccc(C(F)(F)F)c2)CC1

>  <subsites>  (1854) 
None

>  <rmsd(smina/fragmenstein)>  (1854) 
2.591

>  <alias>  (1854) 
None

>  <energy_score>  (1854) 
-63.371621

>  <HIPPO Pose ID>  (1854) 
132017

>  <distance_score>  (1854) 
0.621221

>  <HIPPO Compound ID>  (1854) 
157983

>  <gnina_score_min>  (1854) 
5.779

>  <name>  (1854) 
P132017

>  <exports>  (1854) 
['/opt/xchem-fragalysis-2/maxwin/BulkDock/OUTPUTS/openbind_d68ev3c_c2_elabs_1LOTQJ3.sdf', '/opt/xchem-fragalysis-2/maxwin/BulkDock/OUTPUTS/openbind_d68ev3c_c2_elabs_1LSYI5W.sdf']

$$$$
P132019
     RDKit          3D

 30 32  0  0  0  0  0  0  0  0999 V2000
  -13.3553   -1.9128    6.1484 C   0  0  0  0  0  0  0  0  0  0  0  0
  -14.5594   -1.0395    6.1934 C   0  0  0  0  0  0  0  0  0  0  0  0
  -15.1096   -0.2786    7.2182 C   0  0  0  0  0  0  0  0  0  0  0  0
  -14.4699   -0.0068    8.5201 C   0  0  2  0  0  0  0  0  0  0  0  0
  -13.7452   -1.1115    8.9745 O   0  0  0  0  0  0  0  0  0  0  0  0
  -15.3524    0.4830    9.5495 N   0  0  0  0  0  0  0  0  0  0  0  0
  -14.6808    0.5315   10.8533 C   0  0  0  0  0  0  0  0  0  0  0  0
  -13.1687    0.8531   10.9538 C   0  0  0  0  0  0  0  0  0  0  0  0
  -12.7186    2.2384   10.4898 C   0  0  0  0  0  0  0  0  0  0  0  0
  -12.1450    2.5018    9.0780 C   0  0  0  0  0  0  0  0  0  0  0  0
  -10.9740    1.8086    8.5354 N   0  0  0  0  0  0  0  0  0  0  0  0
  -11.2511    0.5546    7.8209 C   0  0  0  0  0  0  0  0  0  0  0  0
  -10.0252   -0.0251    7.0825 C   0  0  0  0  0  0  0  0  0  0  0  0
   -8.8857   -0.1934    8.0043 N   0  0  0  0  0  0  0  0  0  0  0  0
   -7.8095   -0.9204    7.4823 C   0  0  0  0  0  0  0  0  0  0  0  0
   -8.0182   -2.2070    6.9566 C   0  0  0  0  0  0  0  0  0  0  0  0
   -6.9746   -2.9660    6.4227 C   0  0  0  0  0  0  0  0  0  0  0  0
   -5.6819   -2.4572    6.4220 C   0  0  0  0  0  0  0  0  0  0  0  0
   -5.4235   -1.1965    6.9692 C   0  0  0  0  0  0  0  0  0  0  0  0
   -4.0164   -0.6718    7.0076 C   0  0  0  0  0  0  0  0  0  0  0  0
   -3.9266    0.6575    7.2967 F   0  0  0  0  0  0  0  0  0  0  0  0
   -3.3781   -0.8274    5.8126 F   0  0  0  0  0  0  0  0  0  0  0  0
   -3.2405   -1.3054    7.9284 F   0  0  0  0  0  0  0  0  0  0  0  0
   -6.4893   -0.4467    7.4950 C   0  0  0  0  0  0  0  0  0  0  0  0
   -8.6173    1.0188    8.7987 C   0  0  0  0  0  0  0  0  0  0  0  0
   -9.8904    1.5664    9.4937 C   0  0  0  0  0  0  0  0  0  0  0  0
  -16.3158    0.2067    6.6852 C   0  0  0  0  0  0  0  0  0  0  0  0
  -16.4790   -0.1377    5.4100 N   0  0  0  0  0  0  0  0  0  0  0  0
  -15.3539   -0.8122    5.1090 N   0  0  0  0  0  0  0  0  0  0  0  0
  -14.9888   -1.0762    3.7415 C   0  0  0  0  0  0  0  0  0  0  0  0
  1  2  1  0
  2  3  2  0
  3  4  1  0
  4  5  1  1
  4  6  1  0
  6  7  1  0
  7  8  1  0
  8  9  1  0
  9 10  1  0
 10 11  1  0
 11 12  1  0
 12 13  1  0
 13 14  1  0
 14 15  1  0
 15 16  2  0
 16 17  1  0
 17 18  2  0
 18 19  1  0
 19 20  1  0
 20 21  1  0
 20 22  1  0
 20 23  1  0
 19 24  2  0
 14 25  1  0
 25 26  1  0
  3 27  1  0
 27 28  2  0
 28 29  1  0
 29 30  1  0
 29  2  1  0
 26 11  1  0
 24 15  1  0
M  END
>  <ref_mols>  (1855) 
B0426a

>  <gnina_score>  (1855) 
5.625

>  <smina_score_min>  (1855) 
-6.234

>  <ref_pdb>  (1855) 
B0426a

>  <inspiration_score>  (1855) 
None

>  <inchikey>  (1855) 
ZNPISPQASKROAM-FQEVSTJZSA-N

>  <tags>  (1855) 
BulkDock Fragalysis export,openbind_d68ev3c_c2_elabs_scored,openbind_d68ev3c_c2_elabs_scored_4.5plus,openbind_d68ev3c_c2_elabs,openbind_d68ev3c_c2_elabs_scored_5plus,syndirella_product,openbind_d68ev3c_c2_elabs_scored_top80percent,syndirella_placed

>  <smiles>  (1855) 
Cc1c([C@H](O)NCCCCN2CCN(c3cccc(C(F)(F)F)c3)CC2)cnn1C

>  <subsites>  (1855) 
None

>  <rmsd(smina/fragmenstein)>  (1855) 
1.577

>  <alias>  (1855) 
None

>  <energy_score>  (1855) 
-23.874071

>  <HIPPO Pose ID>  (1855) 
132019

>  <distance_score>  (1855) 
0.624455

>  <HIPPO Compound ID>  (1855) 
157984

>  <gnina_score_min>  (1855) 
5.47

>  <name>  (1855) 
P132019

>  <exports>  (1855) 
['/opt/xchem-fragalysis-2/maxwin/BulkDock/OUTPUTS/openbind_d68ev3c_c2_elabs_1LOTQJ3.sdf', '/opt/xchem-fragalysis-2/maxwin/BulkDock/OUTPUTS/openbind_d68ev3c_c2_elabs_1LSYI5W.sdf']

$$$$
P132020
     RDKit          3D

 30 32  0  0  0  0  0  0  0  0999 V2000
   -3.1014   -0.8346    6.0386 F   0  0  0  0  0  0  0  0  0  0  0  0
   -3.8495   -0.7065    7.1676 C   0  0  0  0  0  0  0  0  0  0  0  0
   -3.1503   -1.3226    8.1553 F   0  0  0  0  0  0  0  0  0  0  0  0
   -3.8367    0.6230    7.4656 F   0  0  0  0  0  0  0  0  0  0  0  0
   -5.2203   -1.2755    6.9734 C   0  0  0  0  0  0  0  0  0  0  0  0
   -5.3790   -2.4734    6.2764 C   0  0  0  0  0  0  0  0  0  0  0  0
   -6.6439   -3.0078    6.1075 C   0  0  0  0  0  0  0  0  0  0  0  0
   -7.7561   -2.3307    6.6114 C   0  0  0  0  0  0  0  0  0  0  0  0
   -7.6508   -1.1023    7.2918 C   0  0  0  0  0  0  0  0  0  0  0  0
   -8.7648   -0.4203    7.8051 N   0  0  0  0  0  0  0  0  0  0  0  0
  -10.0925   -0.8855    7.3513 C   0  0  0  0  0  0  0  0  0  0  0  0
  -11.2358   -0.2439    8.1525 C   0  0  0  0  0  0  0  0  0  0  0  0
  -11.1981    1.2316    8.1822 N   0  0  0  0  0  0  0  0  0  0  0  0
  -12.2393    1.7909    9.0576 C   0  0  0  0  0  0  0  0  0  0  0  0
  -13.6786    1.6009    8.5687 C   0  0  0  0  0  0  0  0  0  0  0  0
  -14.3207    0.2298    8.8154 C   0  0  0  0  0  0  0  0  0  0  0  0
  -15.5949    0.3024    9.6564 C   0  0  0  0  0  0  0  0  0  0  0  0
  -15.4599    0.0009   11.0825 N   0  0  0  0  0  0  0  0  0  0  0  0
  -14.3343    0.6009   11.7951 C   0  0  0  0  0  0  0  0  0  0  0  0
  -14.3993    2.0792   11.9161 C   0  0  0  0  0  0  0  0  0  0  0  0
  -15.4889    2.9600   11.7457 C   0  0  0  0  0  0  0  0  0  0  0  0
  -15.1546    4.2404   11.9161 N   0  0  0  0  0  0  0  0  0  0  0  0
  -13.8561    4.1925   12.2609 N   0  0  0  0  0  0  0  0  0  0  0  0
  -13.1007    5.4064   12.5155 C   0  0  0  0  0  0  0  0  0  0  0  0
  -13.8392    6.4353   13.3571 C   0  0  0  0  0  0  0  0  0  0  0  0
  -14.7726    7.5760   12.3427 Cl  0  0  0  0  0  0  0  0  0  0  0  0
  -13.3628    2.9186   12.2811 C   0  0  0  0  0  0  0  0  0  0  0  0
   -9.8705    1.6338    8.7044 C   0  0  0  0  0  0  0  0  0  0  0  0
   -8.6934    1.0571    7.8917 C   0  0  0  0  0  0  0  0  0  0  0  0
   -6.3486   -0.6213    7.4890 C   0  0  0  0  0  0  0  0  0  0  0  0
  1  2  1  0
  2  3  1  0
  2  4  1  0
  2  5  1  0
  5  6  2  0
  6  7  1  0
  7  8  2  0
  8  9  1  0
  9 10  1  0
 10 11  1  0
 11 12  1  0
 12 13  1  0
 13 14  1  0
 14 15  1  0
 15 16  1  0
 16 17  1  0
 17 18  1  0
 18 19  1  0
 19 20  1  0
 20 21  1  0
 21 22  2  0
 22 23  1  0
 23 24  1  0
 24 25  1  0
 25 26  1  0
 23 27  1  0
 13 28  1  0
 28 29  1  0
  9 30  2  0
 30  5  1  0
 29 10  1  0
 27 20  2  0
M  END
>  <ref_mols>  (1856) 
B0426a

>  <gnina_score>  (1856) 
5.83

>  <smina_score_min>  (1856) 
-5.954

>  <ref_pdb>  (1856) 
B0426a

>  <inspiration_score>  (1856) 
None

>  <inchikey>  (1856) 
LCYAOLVTPOLEJT-UHFFFAOYSA-N

>  <tags>  (1856) 
BulkDock Fragalysis export,openbind_d68ev3c_c2_elabs_scored,openbind_d68ev3c_c2_elabs_scored_4.5plus,openbind_d68ev3c_c2_elabs,openbind_d68ev3c_c2_elabs_scored_5plus,syndirella_product,openbind_d68ev3c_c2_elabs_scored_top80percent,syndirella_placed

>  <smiles>  (1856) 
FC(F)(F)c1cccc(N2CCN(CCCCNCc3cnn(CCCl)c3)CC2)c1

>  <subsites>  (1856) 
None

>  <rmsd(smina/fragmenstein)>  (1856) 
0.971

>  <alias>  (1856) 
None

>  <energy_score>  (1856) 
-28.591015

>  <HIPPO Pose ID>  (1856) 
132020

>  <distance_score>  (1856) 
0.48005

>  <HIPPO Compound ID>  (1856) 
157985

>  <gnina_score_min>  (1856) 
5.579

>  <name>  (1856) 
P132020

>  <exports>  (1856) 
['/opt/xchem-fragalysis-2/maxwin/BulkDock/OUTPUTS/openbind_d68ev3c_c2_elabs_1LOTQJ3.sdf', '/opt/xchem-fragalysis-2/maxwin/BulkDock/OUTPUTS/openbind_d68ev3c_c2_elabs_1LSYI5W.sdf']

$$$$
P132021
     RDKit          3D

 30 32  0  0  0  0  0  0  0  0999 V2000
  -15.9240    0.1801   11.9947 C   0  0  0  0  0  0  0  0  0  0  0  0
  -15.1744    0.1401   10.7339 N   0  0  0  0  0  0  0  0  0  0  0  0
  -14.1942    1.2362   10.6943 C   0  0  0  0  0  0  0  0  0  0  0  0
  -12.9057    0.7415   10.0390 C   0  0  0  0  0  0  0  0  0  0  0  0
  -12.2713    1.8071    9.1381 C   0  0  0  0  0  0  0  0  0  0  0  0
  -11.0423    1.4169    8.4318 N   0  0  0  0  0  0  0  0  0  0  0  0
   -9.9127    1.2223    9.3566 C   0  0  0  0  0  0  0  0  0  0  0  0
   -8.6152    0.8476    8.6153 C   0  0  0  0  0  0  0  0  0  0  0  0
   -8.8071   -0.3676    7.8060 N   0  0  0  0  0  0  0  0  0  0  0  0
   -7.6967   -1.0554    7.3222 C   0  0  0  0  0  0  0  0  0  0  0  0
   -7.8443   -2.3423    6.7793 C   0  0  0  0  0  0  0  0  0  0  0  0
   -6.7571   -3.0637    6.2874 C   0  0  0  0  0  0  0  0  0  0  0  0
   -5.4839   -2.5147    6.3491 C   0  0  0  0  0  0  0  0  0  0  0  0
   -5.2899   -1.2528    6.9174 C   0  0  0  0  0  0  0  0  0  0  0  0
   -3.9064   -0.6860    7.0138 C   0  0  0  0  0  0  0  0  0  0  0  0
   -3.2280   -0.8244    5.8408 F   0  0  0  0  0  0  0  0  0  0  0  0
   -3.8652    0.6449    7.3046 F   0  0  0  0  0  0  0  0  0  0  0  0
   -3.1463   -1.2987    7.9605 F   0  0  0  0  0  0  0  0  0  0  0  0
   -6.3965   -0.5398    7.3974 C   0  0  0  0  0  0  0  0  0  0  0  0
   -9.9531   -0.2554    6.8768 C   0  0  0  0  0  0  0  0  0  0  0  0
  -11.2235    0.1834    7.6297 C   0  0  0  0  0  0  0  0  0  0  0  0
  -16.1477    0.1789    9.6196 C   0  0  0  0  0  0  0  0  0  0  0  0
  -15.5980    0.4654    8.2619 C   0  0  0  0  0  0  0  0  0  0  0  0
  -14.8484   -0.3684    7.4012 C   0  0  0  0  0  0  0  0  0  0  0  0
  -14.5671    0.2108    6.2314 N   0  0  0  0  0  0  0  0  0  0  0  0
  -15.1285    1.4244    6.3332 N   0  0  0  0  0  0  0  0  0  0  0  0
  -14.9804    2.3663    5.2432 C   0  0  0  0  0  0  0  0  0  0  0  0
  -13.7804    3.2800    5.4219 C   0  0  0  0  0  0  0  0  0  0  0  0
  -14.1142    4.6033    6.5761 Cl  0  0  0  0  0  0  0  0  0  0  0  0
  -15.7888    1.6132    7.5110 C   0  0  0  0  0  0  0  0  0  0  0  0
  1  2  1  0
  2  3  1  0
  3  4  1  0
  4  5  1  0
  5  6  1  0
  6  7  1  0
  7  8  1  0
  8  9  1  0
  9 10  1  0
 10 11  2  0
 11 12  1  0
 12 13  2  0
 13 14  1  0
 14 15  1  0
 15 16  1  0
 15 17  1  0
 15 18  1  0
 14 19  2  0
  9 20  1  0
 20 21  1  0
  2 22  1  0
 22 23  1  0
 23 24  1  0
 24 25  2  0
 25 26  1  0
 26 27  1  0
 27 28  1  0
 28 29  1  0
 26 30  1  0
 21  6  1  0
 30 23  2  0
 19 10  1  0
M  END
>  <ref_mols>  (1857) 
B0426a

>  <gnina_score>  (1857) 
5.779

>  <smina_score_min>  (1857) 
-5.949

>  <ref_pdb>  (1857) 
B0426a

>  <inspiration_score>  (1857) 
None

>  <inchikey>  (1857) 
DJZBLJMKNYTRHT-UHFFFAOYSA-N

>  <tags>  (1857) 
BulkDock Fragalysis export,openbind_d68ev3c_c2_elabs_scored,openbind_d68ev3c_c2_elabs_scored_4.5plus,openbind_d68ev3c_c2_elabs,openbind_d68ev3c_c2_elabs_scored_5plus,syndirella_product,openbind_d68ev3c_c2_elabs_scored_top80percent,syndirella_placed

>  <smiles>  (1857) 
CN(CCCN1CCN(c2cccc(C(F)(F)F)c2)CC1)Cc1cnn(CCCl)c1

>  <subsites>  (1857) 
None

>  <rmsd(smina/fragmenstein)>  (1857) 
1.635

>  <alias>  (1857) 
None

>  <energy_score>  (1857) 
-65.90378

>  <HIPPO Pose ID>  (1857) 
132021

>  <distance_score>  (1857) 
0.54607

>  <HIPPO Compound ID>  (1857) 
157986

>  <gnina_score_min>  (1857) 
5.674

>  <name>  (1857) 
P132021

>  <exports>  (1857) 
['/opt/xchem-fragalysis-2/maxwin/BulkDock/OUTPUTS/openbind_d68ev3c_c2_elabs_1LOTQJ3.sdf', '/opt/xchem-fragalysis-2/maxwin/BulkDock/OUTPUTS/openbind_d68ev3c_c2_elabs_1LSYI5W.sdf']

$$$$
P132022
     RDKit          3D

 30 32  0  0  0  0  0  0  0  0999 V2000
  -14.9387    2.7910    6.4331 C   0  0  0  0  0  0  0  0  0  0  0  0
  -14.9042    1.3642    6.0304 C   0  0  0  0  0  0  0  0  0  0  0  0
  -14.4184    1.0490    4.8225 N   0  0  0  0  0  0  0  0  0  0  0  0
  -14.6099   -0.2809    4.7387 N   0  0  0  0  0  0  0  0  0  0  0  0
  -14.2596   -0.9812    3.5285 C   0  0  0  0  0  0  0  0  0  0  0  0
  -15.0848   -0.8353    5.8901 C   0  0  0  0  0  0  0  0  0  0  0  0
  -15.2983    0.2084    6.7730 C   0  0  0  0  0  0  0  0  0  0  0  0
  -15.7752    0.1472    8.1891 C   0  0  1  0  0  0  0  0  0  0  0  0
  -16.6985   -0.9028    8.3973 O   0  0  0  0  0  0  0  0  0  0  0  0
  -14.6136   -0.0824    9.0003 N   0  0  0  0  0  0  0  0  0  0  0  0
  -14.7643    0.1794   10.4093 C   0  0  0  0  0  0  0  0  0  0  0  0
  -13.3777    0.4649   10.9921 C   0  0  0  0  0  0  0  0  0  0  0  0
  -12.7834    1.8146   10.5806 C   0  0  0  0  0  0  0  0  0  0  0  0
  -12.3699    2.0725    9.1221 C   0  0  0  0  0  0  0  0  0  0  0  0
  -11.2059    1.4164    8.5316 N   0  0  0  0  0  0  0  0  0  0  0  0
  -10.0124    1.4013    9.3788 C   0  0  0  0  0  0  0  0  0  0  0  0
   -8.7751    0.9007    8.6057 C   0  0  0  0  0  0  0  0  0  0  0  0
   -8.9874   -0.4327    8.0063 N   0  0  0  0  0  0  0  0  0  0  0  0
   -7.8824   -1.0964    7.4502 C   0  0  0  0  0  0  0  0  0  0  0  0
   -8.0107   -2.3888    6.9144 C   0  0  0  0  0  0  0  0  0  0  0  0
   -6.9249   -3.0795    6.3681 C   0  0  0  0  0  0  0  0  0  0  0  0
   -5.6628   -2.5014    6.3678 C   0  0  0  0  0  0  0  0  0  0  0  0
   -5.4753   -1.2363    6.9278 C   0  0  0  0  0  0  0  0  0  0  0  0
   -4.0966   -0.6415    6.9852 C   0  0  0  0  0  0  0  0  0  0  0  0
   -4.0757    0.6917    7.2688 F   0  0  0  0  0  0  0  0  0  0  0  0
   -3.3066   -1.2322    7.9236 F   0  0  0  0  0  0  0  0  0  0  0  0
   -3.4274   -0.7733    5.8039 F   0  0  0  0  0  0  0  0  0  0  0  0
   -6.5843   -0.5533    7.4588 C   0  0  0  0  0  0  0  0  0  0  0  0
  -10.2608   -0.5245    7.2416 C   0  0  0  0  0  0  0  0  0  0  0  0
  -11.4598    0.0576    8.0291 C   0  0  0  0  0  0  0  0  0  0  0  0
  1  2  1  0
  2  3  2  0
  3  4  1  0
  4  5  1  0
  4  6  1  0
  6  7  2  0
  7  8  1  0
  8  9  1  6
  8 10  1  0
 10 11  1  0
 11 12  1  0
 12 13  1  0
 13 14  1  0
 14 15  1  0
 15 16  1  0
 16 17  1  0
 17 18  1  0
 18 19  1  0
 19 20  2  0
 20 21  1  0
 21 22  2  0
 22 23  1  0
 23 24  1  0
 24 25  1  0
 24 26  1  0
 24 27  1  0
 23 28  2  0
 18 29  1  0
 29 30  1  0
  7  2  1  0
 30 15  1  0
 28 19  1  0
M  END
>  <ref_mols>  (1858) 
B0426a

>  <gnina_score>  (1858) 
5.579

>  <smina_score_min>  (1858) 
-6.273

>  <ref_pdb>  (1858) 
B0426a

>  <inspiration_score>  (1858) 
None

>  <inchikey>  (1858) 
DDUMAPICNGTXGA-HXUWFJFHSA-N

>  <tags>  (1858) 
BulkDock Fragalysis export,openbind_d68ev3c_c2_elabs_scored,openbind_d68ev3c_c2_elabs_scored_4.5plus,openbind_d68ev3c_c2_elabs,openbind_d68ev3c_c2_elabs_scored_5plus,syndirella_product,openbind_d68ev3c_c2_elabs_scored_top80percent,syndirella_placed

>  <smiles>  (1858) 
Cc1nn(C)cc1[C@@H](O)NCCCCN1CCN(c2cccc(C(F)(F)F)c2)CC1

>  <subsites>  (1858) 
None

>  <rmsd(smina/fragmenstein)>  (1858) 
0.414

>  <alias>  (1858) 
None

>  <energy_score>  (1858) 
-65.924476

>  <HIPPO Pose ID>  (1858) 
132022

>  <distance_score>  (1858) 
0.555805

>  <HIPPO Compound ID>  (1858) 
157987

>  <gnina_score_min>  (1858) 
5.557

>  <name>  (1858) 
P132022

>  <exports>  (1858) 
['/opt/xchem-fragalysis-2/maxwin/BulkDock/OUTPUTS/openbind_d68ev3c_c2_elabs_1LOTQJ3.sdf', '/opt/xchem-fragalysis-2/maxwin/BulkDock/OUTPUTS/openbind_d68ev3c_c2_elabs_1LSYI5W.sdf']

$$$$
P132024
     RDKit          3D

 30 32  0  0  0  0  0  0  0  0999 V2000
  -16.3619    3.1173    8.5790 C   0  0  0  0  0  0  0  0  0  0  0  0
  -15.8757    1.8966    7.8868 C   0  0  0  0  0  0  0  0  0  0  0  0
  -15.5890    1.9559    6.5814 N   0  0  0  0  0  0  0  0  0  0  0  0
  -15.1454    0.7272    6.2860 N   0  0  0  0  0  0  0  0  0  0  0  0
  -14.6884    0.4254    4.9525 C   0  0  0  0  0  0  0  0  0  0  0  0
  -15.1774   -0.1300    7.3429 C   0  0  0  0  0  0  0  0  0  0  0  0
  -15.6264    0.5973    8.4302 C   0  0  0  0  0  0  0  0  0  0  0  0
  -15.8363    0.1110    9.8335 C   0  0  2  0  0  0  0  0  0  0  0  0
  -17.2322   -0.0946   10.0358 O   0  0  0  0  0  0  0  0  0  0  0  0
  -15.2756    1.0868   10.7731 N   0  0  0  0  0  0  0  0  0  0  0  0
  -16.0947    1.2522   11.9798 C   0  0  0  0  0  0  0  0  0  0  0  0
  -13.8976    0.7829   11.1916 C   0  0  0  0  0  0  0  0  0  0  0  0
  -12.8501    0.4448   10.1334 C   0  0  0  0  0  0  0  0  0  0  0  0
  -12.3688    1.6217    9.2743 C   0  0  0  0  0  0  0  0  0  0  0  0
  -11.1697    1.3413    8.4573 N   0  0  0  0  0  0  0  0  0  0  0  0
  -11.2921    0.0804    7.6926 C   0  0  0  0  0  0  0  0  0  0  0  0
  -10.0393   -0.2681    6.8655 C   0  0  0  0  0  0  0  0  0  0  0  0
   -8.8497   -0.3018    7.7398 N   0  0  0  0  0  0  0  0  0  0  0  0
   -7.7417   -1.0057    7.2796 C   0  0  0  0  0  0  0  0  0  0  0  0
   -7.8839   -2.3138    6.7868 C   0  0  0  0  0  0  0  0  0  0  0  0
   -6.7940   -3.0549    6.3288 C   0  0  0  0  0  0  0  0  0  0  0  0
   -5.5204   -2.5063    6.3786 C   0  0  0  0  0  0  0  0  0  0  0  0
   -5.3289   -1.2237    6.8983 C   0  0  0  0  0  0  0  0  0  0  0  0
   -3.9427   -0.6586    6.9854 C   0  0  0  0  0  0  0  0  0  0  0  0
   -3.2666   -0.8085    5.8124 F   0  0  0  0  0  0  0  0  0  0  0  0
   -3.8989    0.6743    7.2655 F   0  0  0  0  0  0  0  0  0  0  0  0
   -3.1818   -1.2650    7.9358 F   0  0  0  0  0  0  0  0  0  0  0  0
   -6.4398   -0.4898    7.3396 C   0  0  0  0  0  0  0  0  0  0  0  0
   -8.6722    0.9564    8.4848 C   0  0  0  0  0  0  0  0  0  0  0  0
   -9.9461    1.3012    9.2845 C   0  0  0  0  0  0  0  0  0  0  0  0
  1  2  1  0
  2  3  2  0
  3  4  1  0
  4  5  1  0
  4  6  1  0
  6  7  2  0
  7  8  1  0
  8  9  1  1
  8 10  1  0
 10 11  1  0
 10 12  1  0
 12 13  1  0
 13 14  1  0
 14 15  1  0
 15 16  1  0
 16 17  1  0
 17 18  1  0
 18 19  1  0
 19 20  2  0
 20 21  1  0
 21 22  2  0
 22 23  1  0
 23 24  1  0
 24 25  1  0
 24 26  1  0
 24 27  1  0
 23 28  2  0
 18 29  1  0
 29 30  1  0
  7  2  1  0
 30 15  1  0
 28 19  1  0
M  END
>  <ref_mols>  (1859) 
B0426a

>  <gnina_score>  (1859) 
5.538

>  <smina_score_min>  (1859) 
-5.832

>  <ref_pdb>  (1859) 
B0426a

>  <inspiration_score>  (1859) 
None

>  <inchikey>  (1859) 
BTWXAHHZPDGWIW-FQEVSTJZSA-N

>  <tags>  (1859) 
BulkDock Fragalysis export,openbind_d68ev3c_c2_elabs_scored,openbind_d68ev3c_c2_elabs_scored_4.5plus,openbind_d68ev3c_c2_elabs,openbind_d68ev3c_c2_elabs_scored_5plus,syndirella_product,openbind_d68ev3c_c2_elabs_scored_top80percent,syndirella_placed

>  <smiles>  (1859) 
Cc1nn(C)cc1[C@H](O)N(C)CCCN1CCN(c2cccc(C(F)(F)F)c2)CC1

>  <subsites>  (1859) 
None

>  <rmsd(smina/fragmenstein)>  (1859) 
0.552

>  <alias>  (1859) 
None

>  <energy_score>  (1859) 
-50.0712

>  <HIPPO Pose ID>  (1859) 
132024

>  <distance_score>  (1859) 
0.57669

>  <HIPPO Compound ID>  (1859) 
157988

>  <gnina_score_min>  (1859) 
5.572

>  <name>  (1859) 
P132024

>  <exports>  (1859) 
['/opt/xchem-fragalysis-2/maxwin/BulkDock/OUTPUTS/openbind_d68ev3c_c2_elabs_1LOTQJ3.sdf', '/opt/xchem-fragalysis-2/maxwin/BulkDock/OUTPUTS/openbind_d68ev3c_c2_elabs_1LSYI5W.sdf']

$$$$
P132026
     RDKit          3D

 30 32  0  0  0  0  0  0  0  0999 V2000
  -14.1985    7.4980   12.5174 F   0  0  0  0  0  0  0  0  0  0  0  0
  -13.6153    6.6183   13.3824 C   0  0  0  0  0  0  0  0  0  0  0  0
  -12.9117    5.5325   12.5921 C   0  0  0  0  0  0  0  0  0  0  0  0
  -13.7468    4.3671   12.3588 N   0  0  0  0  0  0  0  0  0  0  0  0
  -13.4225    3.0634   12.6203 C   0  0  0  0  0  0  0  0  0  0  0  0
  -14.4704    2.2889   12.1577 C   0  0  0  0  0  0  0  0  0  0  0  0
  -14.5856    0.8030   12.1874 C   0  0  0  0  0  0  0  0  0  0  0  0
  -15.6911    0.3428   11.3537 N   0  0  0  0  0  0  0  0  0  0  0  0
  -15.3368   -0.1021   10.0098 C   0  0  0  0  0  0  0  0  0  0  0  0
  -14.6668    0.9060    9.0782 C   0  0  0  0  0  0  0  0  0  0  0  0
  -13.1573    0.9711    9.2884 C   0  0  0  0  0  0  0  0  0  0  0  0
  -12.4733    1.8526    8.2444 C   0  0  0  0  0  0  0  0  0  0  0  0
  -11.1487    1.3946    7.8193 N   0  0  0  0  0  0  0  0  0  0  0  0
  -10.1769    1.2873    8.9265 C   0  0  0  0  0  0  0  0  0  0  0  0
   -8.7832    0.8299    8.4344 C   0  0  0  0  0  0  0  0  0  0  0  0
   -8.8796   -0.4392    7.6837 N   0  0  0  0  0  0  0  0  0  0  0  0
   -7.7093   -1.1152    7.3239 C   0  0  0  0  0  0  0  0  0  0  0  0
   -7.7943   -2.4268    6.8235 C   0  0  0  0  0  0  0  0  0  0  0  0
   -6.6705   -3.1233    6.3877 C   0  0  0  0  0  0  0  0  0  0  0  0
   -5.4204   -2.5289    6.4802 C   0  0  0  0  0  0  0  0  0  0  0  0
   -5.2873   -1.2476    7.0256 C   0  0  0  0  0  0  0  0  0  0  0  0
   -3.9222   -0.6397    7.1449 C   0  0  0  0  0  0  0  0  0  0  0  0
   -3.2233   -0.7588    5.9824 F   0  0  0  0  0  0  0  0  0  0  0  0
   -3.1601   -1.2328    8.1017 F   0  0  0  0  0  0  0  0  0  0  0  0
   -3.9262    0.6907    7.4377 F   0  0  0  0  0  0  0  0  0  0  0  0
   -6.4324   -0.5557    7.4463 C   0  0  0  0  0  0  0  0  0  0  0  0
   -9.8657   -0.3649    6.5820 C   0  0  0  0  0  0  0  0  0  0  0  0
  -11.2297    0.1006    7.1085 C   0  0  0  0  0  0  0  0  0  0  0  0
  -15.3920    3.2448   11.6702 C   0  0  0  0  0  0  0  0  0  0  0  0
  -14.9495    4.4985   11.7723 N   0  0  0  0  0  0  0  0  0  0  0  0
  1  2  1  0
  2  3  1  0
  3  4  1  0
  4  5  1  0
  5  6  2  0
  6  7  1  0
  7  8  1  0
  8  9  1  0
  9 10  1  0
 10 11  1  0
 11 12  1  0
 12 13  1  0
 13 14  1  0
 14 15  1  0
 15 16  1  0
 16 17  1  0
 17 18  2  0
 18 19  1  0
 19 20  2  0
 20 21  1  0
 21 22  1  0
 22 23  1  0
 22 24  1  0
 22 25  1  0
 21 26  2  0
 16 27  1  0
 27 28  1  0
  6 29  1  0
 29 30  2  0
 30  4  1  0
 28 13  1  0
 26 17  1  0
M  END
>  <ref_mols>  (1860) 
B0426a

>  <gnina_score>  (1860) 
5.723

>  <smina_score_min>  (1860) 
-5.878

>  <ref_pdb>  (1860) 
B0426a

>  <inspiration_score>  (1860) 
None

>  <inchikey>  (1860) 
NJGNRSFAGOCVQF-UHFFFAOYSA-N

>  <tags>  (1860) 
BulkDock Fragalysis export,openbind_d68ev3c_c2_elabs_scored,openbind_d68ev3c_c2_elabs_scored_4.5plus,openbind_d68ev3c_c2_elabs,openbind_d68ev3c_c2_elabs_scored_5plus,syndirella_product,openbind_d68ev3c_c2_elabs_scored_top80percent,syndirella_placed

>  <smiles>  (1860) 
FCCn1cc(CNCCCCN2CCN(c3cccc(C(F)(F)F)c3)CC2)cn1

>  <subsites>  (1860) 
None

>  <rmsd(smina/fragmenstein)>  (1860) 
1.524

>  <alias>  (1860) 
None

>  <energy_score>  (1860) 
-30.306751

>  <HIPPO Pose ID>  (1860) 
132026

>  <distance_score>  (1860) 
0.652402

>  <HIPPO Compound ID>  (1860) 
157989

>  <gnina_score_min>  (1860) 
5.694

>  <name>  (1860) 
P132026

>  <exports>  (1860) 
['/opt/xchem-fragalysis-2/maxwin/BulkDock/OUTPUTS/openbind_d68ev3c_c2_elabs_1LOTQJ3.sdf', '/opt/xchem-fragalysis-2/maxwin/BulkDock/OUTPUTS/openbind_d68ev3c_c2_elabs_1LSYI5W.sdf']

$$$$
P132027
     RDKit          3D

 30 32  0  0  0  0  0  0  0  0999 V2000
  -15.6166    1.0497   11.8781 C   0  0  0  0  0  0  0  0  0  0  0  0
  -15.4167    1.0619   10.4320 N   0  0  0  0  0  0  0  0  0  0  0  0
  -14.1657    1.7313   10.0419 C   0  0  0  0  0  0  0  0  0  0  0  0
  -12.8922    1.2001   10.6797 C   0  0  0  0  0  0  0  0  0  0  0  0
  -11.6273    1.8302   10.0869 C   0  0  0  0  0  0  0  0  0  0  0  0
  -11.1168    1.2915    8.8096 N   0  0  0  0  0  0  0  0  0  0  0  0
  -11.0009   -0.1906    8.8571 C   0  0  0  0  0  0  0  0  0  0  0  0
  -10.1815   -0.8250    7.7129 C   0  0  0  0  0  0  0  0  0  0  0  0
   -8.8450   -0.2101    7.6651 N   0  0  0  0  0  0  0  0  0  0  0  0
   -7.7682   -0.9223    7.1602 C   0  0  0  0  0  0  0  0  0  0  0  0
   -7.9057   -2.1492    6.4920 C   0  0  0  0  0  0  0  0  0  0  0  0
   -6.8009   -2.8802    6.0494 C   0  0  0  0  0  0  0  0  0  0  0  0
   -5.5200   -2.3923    6.2609 C   0  0  0  0  0  0  0  0  0  0  0  0
   -5.3370   -1.1778    6.9276 C   0  0  0  0  0  0  0  0  0  0  0  0
   -3.9497   -0.6633    7.1669 C   0  0  0  0  0  0  0  0  0  0  0  0
   -3.8927    0.6650    7.4656 F   0  0  0  0  0  0  0  0  0  0  0  0
   -3.3072   -1.3053    8.1777 F   0  0  0  0  0  0  0  0  0  0  0  0
   -3.1645   -0.8223    6.0653 F   0  0  0  0  0  0  0  0  0  0  0  0
   -6.4597   -0.4669    7.3779 C   0  0  0  0  0  0  0  0  0  0  0  0
   -8.9359    1.2425    7.4498 C   0  0  0  0  0  0  0  0  0  0  0  0
   -9.7658    1.8791    8.5861 C   0  0  0  0  0  0  0  0  0  0  0  0
  -15.5308   -0.2808    9.8730 C   0  0  0  0  0  0  0  0  0  0  0  0
  -15.7937   -0.2515    8.4075 C   0  0  0  0  0  0  0  0  0  0  0  0
  -17.0387   -0.4158    7.7595 C   0  0  0  0  0  0  0  0  0  0  0  0
  -16.9272   -0.5385    6.4345 N   0  0  0  0  0  0  0  0  0  0  0  0
  -15.6039   -0.3707    6.2158 N   0  0  0  0  0  0  0  0  0  0  0  0
  -15.0853   -0.4184    4.8613 C   0  0  0  0  0  0  0  0  0  0  0  0
  -13.7705   -1.1671    4.7443 C   0  0  0  0  0  0  0  0  0  0  0  0
  -12.7431   -0.3214    5.0463 F   0  0  0  0  0  0  0  0  0  0  0  0
  -14.8920   -0.1934    7.3647 C   0  0  0  0  0  0  0  0  0  0  0  0
  1  2  1  0
  2  3  1  0
  3  4  1  0
  4  5  1  0
  5  6  1  0
  6  7  1  0
  7  8  1  0
  8  9  1  0
  9 10  1  0
 10 11  2  0
 11 12  1  0
 12 13  2  0
 13 14  1  0
 14 15  1  0
 15 16  1  0
 15 17  1  0
 15 18  1  0
 14 19  2  0
  9 20  1  0
 20 21  1  0
  2 22  1  0
 22 23  1  0
 23 24  1  0
 24 25  2  0
 25 26  1  0
 26 27  1  0
 27 28  1  0
 28 29  1  0
 26 30  1  0
 21  6  1  0
 30 23  2  0
 19 10  1  0
M  END
>  <ref_mols>  (1861) 
B0426a

>  <gnina_score>  (1861) 
5.824

>  <smina_score_min>  (1861) 
-5.546

>  <ref_pdb>  (1861) 
B0426a

>  <inspiration_score>  (1861) 
None

>  <inchikey>  (1861) 
OCQBWUDABFJLBV-UHFFFAOYSA-N

>  <tags>  (1861) 
BulkDock Fragalysis export,openbind_d68ev3c_c2_elabs_scored,openbind_d68ev3c_c2_elabs_scored_4.5plus,openbind_d68ev3c_c2_elabs,openbind_d68ev3c_c2_elabs_scored_5plus,syndirella_product,openbind_d68ev3c_c2_elabs_scored_top80percent,syndirella_placed

>  <smiles>  (1861) 
CN(CCCN1CCN(c2cccc(C(F)(F)F)c2)CC1)Cc1cnn(CCF)c1

>  <subsites>  (1861) 
None

>  <rmsd(smina/fragmenstein)>  (1861) 
1.832

>  <alias>  (1861) 
None

>  <energy_score>  (1861) 
-58.095408

>  <HIPPO Pose ID>  (1861) 
132027

>  <distance_score>  (1861) 
0.778043

>  <HIPPO Compound ID>  (1861) 
157990

>  <gnina_score_min>  (1861) 
5.746

>  <name>  (1861) 
P132027

>  <exports>  (1861) 
['/opt/xchem-fragalysis-2/maxwin/BulkDock/OUTPUTS/openbind_d68ev3c_c2_elabs_1LOTQJ3.sdf', '/opt/xchem-fragalysis-2/maxwin/BulkDock/OUTPUTS/openbind_d68ev3c_c2_elabs_1LSYI5W.sdf']

$$$$
P132028
     RDKit          3D

 30 32  0  0  0  0  0  0  0  0999 V2000
  -20.8611   -0.3373    5.1425 C   0  0  0  0  0  0  0  0  0  0  0  0
  -20.6094   -1.4698    6.1190 C   0  0  0  0  0  0  0  0  0  0  0  0
  -19.3623   -1.2992    6.8445 N   0  0  0  0  0  0  0  0  0  0  0  0
  -18.2629   -1.9681    6.4281 N   0  0  0  0  0  0  0  0  0  0  0  0
  -17.2939   -1.4750    7.2024 C   0  0  0  0  0  0  0  0  0  0  0  0
  -17.7768   -0.6058    8.2065 C   0  0  0  0  0  0  0  0  0  0  0  0
  -16.9799    0.0216    9.2993 C   0  0  0  0  0  0  0  0  0  0  0  0
  -16.6856    1.4211    9.0129 N   0  0  0  0  0  0  0  0  0  0  0  0
  -15.6967    1.6410    7.9551 C   0  0  0  0  0  0  0  0  0  0  0  0
  -14.3347    0.9580    8.1380 C   0  0  0  0  0  0  0  0  0  0  0  0
  -13.6521    1.2480    9.4808 C   0  0  0  0  0  0  0  0  0  0  0  0
  -12.2572    1.8879    9.3636 C   0  0  0  0  0  0  0  0  0  0  0  0
  -11.2968    1.2267    8.4678 N   0  0  0  0  0  0  0  0  0  0  0  0
   -9.9611    1.8611    8.5919 C   0  0  0  0  0  0  0  0  0  0  0  0
   -8.8779    1.2199    7.6853 C   0  0  0  0  0  0  0  0  0  0  0  0
   -8.8002   -0.2411    7.8965 N   0  0  0  0  0  0  0  0  0  0  0  0
   -7.7236   -0.9301    7.3236 C   0  0  0  0  0  0  0  0  0  0  0  0
   -7.8701   -2.1451    6.6272 C   0  0  0  0  0  0  0  0  0  0  0  0
   -6.7782   -2.8515    6.1181 C   0  0  0  0  0  0  0  0  0  0  0  0
   -5.4973   -2.3541    6.2916 C   0  0  0  0  0  0  0  0  0  0  0  0
   -5.3034   -1.1543    6.9829 C   0  0  0  0  0  0  0  0  0  0  0  0
   -3.9124   -0.6345    7.1833 C   0  0  0  0  0  0  0  0  0  0  0  0
   -3.8535    0.6988    7.4566 F   0  0  0  0  0  0  0  0  0  0  0  0
   -3.1515   -0.8124    6.0681 F   0  0  0  0  0  0  0  0  0  0  0  0
   -3.2493   -1.2581    8.1917 F   0  0  0  0  0  0  0  0  0  0  0  0
   -6.4134   -0.4657    7.4988 C   0  0  0  0  0  0  0  0  0  0  0  0
  -10.1238   -0.8880    7.8188 C   0  0  0  0  0  0  0  0  0  0  0  0
  -11.1431   -0.2141    8.7564 C   0  0  0  0  0  0  0  0  0  0  0  0
  -19.1388   -0.5256    7.9590 C   0  0  0  0  0  0  0  0  0  0  0  0
  -20.2087    0.2281    8.6608 C   0  0  0  0  0  0  0  0  0  0  0  0
  1  2  1  0
  2  3  1  0
  3  4  1  0
  4  5  2  0
  5  6  1  0
  6  7  1  0
  7  8  1  0
  8  9  1  0
  9 10  1  0
 10 11  1  0
 11 12  1  0
 12 13  1  0
 13 14  1  0
 14 15  1  0
 15 16  1  0
 16 17  1  0
 17 18  2  0
 18 19  1  0
 19 20  2  0
 20 21  1  0
 21 22  1  0
 22 23  1  0
 22 24  1  0
 22 25  1  0
 21 26  2  0
 16 27  1  0
 27 28  1  0
  6 29  2  0
 29 30  1  0
 29  3  1  0
 28 13  1  0
 26 17  1  0
M  END
>  <ref_mols>  (1862) 
B0426a

>  <gnina_score>  (1862) 
5.402

>  <smina_score_min>  (1862) 
-5.626

>  <ref_pdb>  (1862) 
B0426a

>  <inspiration_score>  (1862) 
None

>  <inchikey>  (1862) 
DAQRCUGFVNWYFO-UHFFFAOYSA-N

>  <tags>  (1862) 
BulkDock Fragalysis export,openbind_d68ev3c_c2_elabs_scored,openbind_d68ev3c_c2_elabs_scored_4.5plus,openbind_d68ev3c_c2_elabs,openbind_d68ev3c_c2_elabs_scored_5plus,syndirella_product,openbind_d68ev3c_c2_elabs_scored_top80percent,syndirella_placed

>  <smiles>  (1862) 
CCn1ncc(CNCCCCN2CCN(c3cccc(C(F)(F)F)c3)CC2)c1C

>  <subsites>  (1862) 
None

>  <rmsd(smina/fragmenstein)>  (1862) 
1.217

>  <alias>  (1862) 
None

>  <energy_score>  (1862) 
-45.485098

>  <HIPPO Pose ID>  (1862) 
132028

>  <distance_score>  (1862) 
0.648314

>  <HIPPO Compound ID>  (1862) 
157991

>  <gnina_score_min>  (1862) 
5.363

>  <name>  (1862) 
P132028

>  <exports>  (1862) 
['/opt/xchem-fragalysis-2/maxwin/BulkDock/OUTPUTS/openbind_d68ev3c_c2_elabs_1LOTQJ3.sdf', '/opt/xchem-fragalysis-2/maxwin/BulkDock/OUTPUTS/openbind_d68ev3c_c2_elabs_1LSYI5W.sdf']

$$$$
P132029
     RDKit          3D

 30 32  0  0  0  0  0  0  0  0999 V2000
  -14.4495   -1.1156    3.6026 C   0  0  0  0  0  0  0  0  0  0  0  0
  -14.7714   -0.3320    4.7648 N   0  0  0  0  0  0  0  0  0  0  0  0
  -14.3348    0.9439    4.8589 N   0  0  0  0  0  0  0  0  0  0  0  0
  -14.7315    1.3015    6.0845 C   0  0  0  0  0  0  0  0  0  0  0  0
  -15.3873    0.2620    6.7970 C   0  0  0  0  0  0  0  0  0  0  0  0
  -15.8460    0.2561    8.2120 C   0  0  2  0  0  0  0  0  0  0  0  0
  -16.3769    1.5170    8.5675 O   0  0  0  0  0  0  0  0  0  0  0  0
  -14.6778   -0.0244    9.0054 N   0  0  0  0  0  0  0  0  0  0  0  0
  -14.7903    0.1313   10.4376 C   0  0  0  0  0  0  0  0  0  0  0  0
  -13.3895    0.4149   10.9909 C   0  0  0  0  0  0  0  0  0  0  0  0
  -12.8080    1.7765   10.5977 C   0  0  0  0  0  0  0  0  0  0  0  0
  -12.3868    2.0620    9.1452 C   0  0  0  0  0  0  0  0  0  0  0  0
  -11.2294    1.4076    8.5402 N   0  0  0  0  0  0  0  0  0  0  0  0
  -10.0247    1.4087    9.3750 C   0  0  0  0  0  0  0  0  0  0  0  0
   -8.7895    0.9114    8.5957 C   0  0  0  0  0  0  0  0  0  0  0  0
   -8.9981   -0.4264    8.0054 N   0  0  0  0  0  0  0  0  0  0  0  0
   -7.8928   -1.0906    7.4505 C   0  0  0  0  0  0  0  0  0  0  0  0
   -8.0190   -2.3847    6.9179 C   0  0  0  0  0  0  0  0  0  0  0  0
   -6.9323   -3.0760    6.3740 C   0  0  0  0  0  0  0  0  0  0  0  0
   -5.6705   -2.4974    6.3736 C   0  0  0  0  0  0  0  0  0  0  0  0
   -5.4844   -1.2308    6.9305 C   0  0  0  0  0  0  0  0  0  0  0  0
   -4.1054   -0.6360    6.9890 C   0  0  0  0  0  0  0  0  0  0  0  0
   -3.3169   -1.2256    7.9291 F   0  0  0  0  0  0  0  0  0  0  0  0
   -3.4346   -0.7688    5.8088 F   0  0  0  0  0  0  0  0  0  0  0  0
   -4.0854    0.6975    7.2714 F   0  0  0  0  0  0  0  0  0  0  0  0
   -6.5948   -0.5469    7.4584 C   0  0  0  0  0  0  0  0  0  0  0  0
  -10.2772   -0.5323    7.2534 C   0  0  0  0  0  0  0  0  0  0  0  0
  -11.4735    0.0414    8.0526 C   0  0  0  0  0  0  0  0  0  0  0  0
  -15.4325   -0.7576    5.8768 C   0  0  0  0  0  0  0  0  0  0  0  0
  -15.9820   -1.9650    6.0662 F   0  0  0  0  0  0  0  0  0  0  0  0
  1  2  1  0
  2  3  1  0
  3  4  2  0
  4  5  1  0
  5  6  1  0
  6  7  1  1
  6  8  1  0
  8  9  1  0
  9 10  1  0
 10 11  1  0
 11 12  1  0
 12 13  1  0
 13 14  1  0
 14 15  1  0
 15 16  1  0
 16 17  1  0
 17 18  2  0
 18 19  1  0
 19 20  2  0
 20 21  1  0
 21 22  1  0
 22 23  1  0
 22 24  1  0
 22 25  1  0
 21 26  2  0
 16 27  1  0
 27 28  1  0
  5 29  2  0
 29 30  1  0
 29  2  1  0
 28 13  1  0
 26 17  1  0
M  END
>  <ref_mols>  (1863) 
B0426a

>  <gnina_score>  (1863) 
5.554

>  <smina_score_min>  (1863) 
-6.214

>  <ref_pdb>  (1863) 
B0426a

>  <inspiration_score>  (1863) 
None

>  <inchikey>  (1863) 
DQTJMYSZCWZPDZ-IBGZPJMESA-N

>  <tags>  (1863) 
BulkDock Fragalysis export,openbind_d68ev3c_c2_elabs_scored,openbind_d68ev3c_c2_elabs_scored_4.5plus,openbind_d68ev3c_c2_elabs,openbind_d68ev3c_c2_elabs_scored_5plus,syndirella_product,openbind_d68ev3c_c2_elabs_scored_top80percent,syndirella_placed

>  <smiles>  (1863) 
Cn1ncc([C@H](O)NCCCCN2CCN(c3cccc(C(F)(F)F)c3)CC2)c1F

>  <subsites>  (1863) 
None

>  <rmsd(smina/fragmenstein)>  (1863) 
0.455

>  <alias>  (1863) 
None

>  <energy_score>  (1863) 
-52.316434

>  <HIPPO Pose ID>  (1863) 
132029

>  <distance_score>  (1863) 
0.550861

>  <HIPPO Compound ID>  (1863) 
157992

>  <gnina_score_min>  (1863) 
5.516

>  <name>  (1863) 
P132029

>  <exports>  (1863) 
['/opt/xchem-fragalysis-2/maxwin/BulkDock/OUTPUTS/openbind_d68ev3c_c2_elabs_1LOTQJ3.sdf', '/opt/xchem-fragalysis-2/maxwin/BulkDock/OUTPUTS/openbind_d68ev3c_c2_elabs_1LSYI5W.sdf']

$$$$
P132032
     RDKit          3D

 30 32  0  0  0  0  0  0  0  0999 V2000
  -16.5900   -0.0106    8.7004 C   0  0  0  0  0  0  0  0  0  0  0  0
  -15.5826    0.5865    9.5910 N   0  0  0  0  0  0  0  0  0  0  0  0
  -14.2598    0.4576    8.9452 C   0  0  0  0  0  0  0  0  0  0  0  0
  -13.2778    1.5250    9.4555 C   0  0  0  0  0  0  0  0  0  0  0  0
  -12.3508    2.0946    8.3794 C   0  0  0  0  0  0  0  0  0  0  0  0
  -11.1573    1.3508    7.9942 N   0  0  0  0  0  0  0  0  0  0  0  0
  -10.0884    1.3901    9.0059 C   0  0  0  0  0  0  0  0  0  0  0  0
   -8.7749    0.8174    8.4350 C   0  0  0  0  0  0  0  0  0  0  0  0
   -8.9312   -0.5483    7.8875 N   0  0  0  0  0  0  0  0  0  0  0  0
   -7.7794   -1.1961    7.4032 C   0  0  0  0  0  0  0  0  0  0  0  0
   -7.8539   -2.4892    6.8566 C   0  0  0  0  0  0  0  0  0  0  0  0
   -6.7352   -3.1431    6.3374 C   0  0  0  0  0  0  0  0  0  0  0  0
   -5.4925   -2.5292    6.3834 C   0  0  0  0  0  0  0  0  0  0  0  0
   -5.3580   -1.2688    6.9684 C   0  0  0  0  0  0  0  0  0  0  0  0
   -4.0009   -0.6349    7.0576 C   0  0  0  0  0  0  0  0  0  0  0  0
   -3.2050   -1.2160    7.9955 F   0  0  0  0  0  0  0  0  0  0  0  0
   -4.0241    0.6942    7.3578 F   0  0  0  0  0  0  0  0  0  0  0  0
   -3.3199   -0.7322    5.8808 F   0  0  0  0  0  0  0  0  0  0  0  0
   -6.4981   -0.6228    7.4750 C   0  0  0  0  0  0  0  0  0  0  0  0
  -10.1390   -0.7182    7.0360 C   0  0  0  0  0  0  0  0  0  0  0  0
  -11.3920   -0.0585    7.6447 C   0  0  0  0  0  0  0  0  0  0  0  0
  -15.6318   -0.0140   10.9297 C   0  0  1  0  0  0  0  0  0  0  0  0
  -14.4898    0.3355   11.6910 O   0  0  0  0  0  0  0  0  0  0  0  0
  -16.8555    0.4691   11.6517 C   0  0  0  0  0  0  0  0  0  0  0  0
  -17.6389    1.6291   11.4040 C   0  0  0  0  0  0  0  0  0  0  0  0
  -18.7096    1.7265   12.1991 N   0  0  0  0  0  0  0  0  0  0  0  0
  -18.6005    0.6453   12.9922 N   0  0  0  0  0  0  0  0  0  0  0  0
  -19.6181    0.3708   13.9728 C   0  0  0  0  0  0  0  0  0  0  0  0
  -17.4911   -0.0957   12.7334 C   0  0  0  0  0  0  0  0  0  0  0  0
  -17.1027   -1.1850   13.4059 F   0  0  0  0  0  0  0  0  0  0  0  0
  1  2  1  0
  2  3  1  0
  3  4  1  0
  4  5  1  0
  5  6  1  0
  6  7  1  0
  7  8  1  0
  8  9  1  0
  9 10  1  0
 10 11  2  0
 11 12  1  0
 12 13  2  0
 13 14  1  0
 14 15  1  0
 15 16  1  0
 15 17  1  0
 15 18  1  0
 14 19  2  0
  9 20  1  0
 20 21  1  0
  2 22  1  0
 22 23  1  1
 22 24  1  0
 24 25  1  0
 25 26  2  0
 26 27  1  0
 27 28  1  0
 27 29  1  0
 29 30  1  0
 21  6  1  0
 29 24  2  0
 19 10  1  0
M  END
>  <ref_mols>  (1864) 
B0426a

>  <gnina_score>  (1864) 
5.329

>  <smina_score_min>  (1864) 
-6.177

>  <ref_pdb>  (1864) 
B0426a

>  <inspiration_score>  (1864) 
None

>  <inchikey>  (1864) 
TVXHWGKIAAPXKQ-IBGZPJMESA-N

>  <tags>  (1864) 
BulkDock Fragalysis export,openbind_d68ev3c_c2_elabs_scored,openbind_d68ev3c_c2_elabs_scored_4.5plus,openbind_d68ev3c_c2_elabs,openbind_d68ev3c_c2_elabs_scored_5plus,syndirella_product,openbind_d68ev3c_c2_elabs_scored_top80percent,syndirella_placed

>  <smiles>  (1864) 
CN(CCCN1CCN(c2cccc(C(F)(F)F)c2)CC1)[C@@H](O)c1cnn(C)c1F

>  <subsites>  (1864) 
None

>  <rmsd(smina/fragmenstein)>  (1864) 
1.232

>  <alias>  (1864) 
None

>  <energy_score>  (1864) 
-47.040298

>  <HIPPO Pose ID>  (1864) 
132032

>  <distance_score>  (1864) 
0.495586

>  <HIPPO Compound ID>  (1864) 
157993

>  <gnina_score_min>  (1864) 
5.497

>  <name>  (1864) 
P132032

>  <exports>  (1864) 
['/opt/xchem-fragalysis-2/maxwin/BulkDock/OUTPUTS/openbind_d68ev3c_c2_elabs_1LOTQJ3.sdf', '/opt/xchem-fragalysis-2/maxwin/BulkDock/OUTPUTS/openbind_d68ev3c_c2_elabs_1LSYI5W.sdf']

$$$$
P132033
     RDKit          3D

 30 32  0  0  0  0  0  0  0  0999 V2000
  -17.5821    4.9955    8.7596 C   0  0  0  0  0  0  0  0  0  0  0  0
  -17.0373    3.7202    8.3638 N   0  0  0  0  0  0  0  0  0  0  0  0
  -17.1393    2.5397    9.0357 C   0  0  0  0  0  0  0  0  0  0  0  0
  -16.4556    1.5928    8.2863 C   0  0  0  0  0  0  0  0  0  0  0  0
  -16.2822    0.1483    8.6169 C   0  0  1  0  0  0  0  0  0  0  0  0
  -16.5455   -0.6834    7.5096 O   0  0  0  0  0  0  0  0  0  0  0  0
  -14.9436   -0.1141    9.0843 N   0  0  0  0  0  0  0  0  0  0  0  0
  -14.7957    0.1688   10.5075 C   0  0  0  0  0  0  0  0  0  0  0  0
  -13.3411    0.4525   10.8780 C   0  0  0  0  0  0  0  0  0  0  0  0
  -12.8284    1.8062   10.3880 C   0  0  0  0  0  0  0  0  0  0  0  0
  -12.4661    1.9800    8.9070 C   0  0  0  0  0  0  0  0  0  0  0  0
  -11.2777    1.3358    8.3495 N   0  0  0  0  0  0  0  0  0  0  0  0
  -10.0807    1.4180    9.1927 C   0  0  0  0  0  0  0  0  0  0  0  0
   -8.8246    0.9085    8.4561 C   0  0  0  0  0  0  0  0  0  0  0  0
   -8.9958   -0.4636    7.9321 N   0  0  0  0  0  0  0  0  0  0  0  0
   -7.8708   -1.1222    7.4092 C   0  0  0  0  0  0  0  0  0  0  0  0
   -7.9677   -2.4253    6.8911 C   0  0  0  0  0  0  0  0  0  0  0  0
   -6.8637   -3.1055    6.3696 C   0  0  0  0  0  0  0  0  0  0  0  0
   -5.6117   -2.5077    6.3812 C   0  0  0  0  0  0  0  0  0  0  0  0
   -5.4536   -1.2333    6.9283 C   0  0  0  0  0  0  0  0  0  0  0  0
   -4.0848   -0.6178    6.9947 C   0  0  0  0  0  0  0  0  0  0  0  0
   -3.4084   -0.7428    5.8171 F   0  0  0  0  0  0  0  0  0  0  0  0
   -4.0850    0.7157    7.2761 F   0  0  0  0  0  0  0  0  0  0  0  0
   -3.2920   -1.1962    7.9380 F   0  0  0  0  0  0  0  0  0  0  0  0
   -6.5810   -0.5602    7.4329 C   0  0  0  0  0  0  0  0  0  0  0  0
  -10.2691   -0.6402    7.1798 C   0  0  0  0  0  0  0  0  0  0  0  0
  -11.4851   -0.0614    7.9413 C   0  0  0  0  0  0  0  0  0  0  0  0
  -16.0007    2.3373    7.1701 C   0  0  0  0  0  0  0  0  0  0  0  0
  -14.9902    1.6441    5.7385 Br  0  0  0  0  0  0  0  0  0  0  0  0
  -16.3450    3.6278    7.2203 N   0  0  0  0  0  0  0  0  0  0  0  0
  1  2  1  0
  2  3  1  0
  3  4  2  0
  4  5  1  0
  5  6  1  6
  5  7  1  0
  7  8  1  0
  8  9  1  0
  9 10  1  0
 10 11  1  0
 11 12  1  0
 12 13  1  0
 13 14  1  0
 14 15  1  0
 15 16  1  0
 16 17  2  0
 17 18  1  0
 18 19  2  0
 19 20  1  0
 20 21  1  0
 21 22  1  0
 21 23  1  0
 21 24  1  0
 20 25  2  0
 15 26  1  0
 26 27  1  0
  4 28  1  0
 28 29  1  0
 28 30  2  0
 30  2  1  0
 27 12  1  0
 25 16  1  0
M  END
>  <ref_mols>  (1865) 
B0426a

>  <gnina_score>  (1865) 
5.636

>  <smina_score_min>  (1865) 
-5.92

>  <ref_pdb>  (1865) 
B0426a

>  <inspiration_score>  (1865) 
None

>  <inchikey>  (1865) 
WBTQJTCPBJXMAU-LJQANCHMSA-N

>  <tags>  (1865) 
BulkDock Fragalysis export,openbind_d68ev3c_c2_elabs_scored,openbind_d68ev3c_c2_elabs_scored_4.5plus,openbind_d68ev3c_c2_elabs,openbind_d68ev3c_c2_elabs_scored_5plus,syndirella_product,openbind_d68ev3c_c2_elabs_scored_top80percent,syndirella_placed

>  <smiles>  (1865) 
Cn1cc([C@@H](O)NCCCCN2CCN(c3cccc(C(F)(F)F)c3)CC2)c(Br)n1

>  <subsites>  (1865) 
None

>  <rmsd(smina/fragmenstein)>  (1865) 
1.293

>  <alias>  (1865) 
None

>  <energy_score>  (1865) 
-56.405521

>  <HIPPO Pose ID>  (1865) 
132033

>  <distance_score>  (1865) 
0.551821

>  <HIPPO Compound ID>  (1865) 
157994

>  <gnina_score_min>  (1865) 
5.604

>  <name>  (1865) 
P132033

>  <exports>  (1865) 
['/opt/xchem-fragalysis-2/maxwin/BulkDock/OUTPUTS/openbind_d68ev3c_c2_elabs_1LOTQJ3.sdf', '/opt/xchem-fragalysis-2/maxwin/BulkDock/OUTPUTS/openbind_d68ev3c_c2_elabs_1LSYI5W.sdf']

$$$$
P132036
     RDKit          3D

 30 32  0  0  0  0  0  0  0  0999 V2000
  -17.5475    4.6374    7.3930 C   0  0  0  0  0  0  0  0  0  0  0  0
  -17.4655    3.3065    7.9413 N   0  0  0  0  0  0  0  0  0  0  0  0
  -16.4531    2.4146    7.7753 C   0  0  0  0  0  0  0  0  0  0  0  0
  -16.8141    1.2631    8.4596 C   0  0  0  0  0  0  0  0  0  0  0  0
  -16.0162    0.0044    8.5272 C   0  0  2  0  0  0  0  0  0  0  0  0
  -16.7070   -1.0399    7.8596 O   0  0  0  0  0  0  0  0  0  0  0  0
  -15.7808   -0.4504    9.8791 N   0  0  0  0  0  0  0  0  0  0  0  0
  -15.1485    0.4510   10.8243 C   0  0  0  0  0  0  0  0  0  0  0  0
  -13.6551    0.6882   10.6212 C   0  0  0  0  0  0  0  0  0  0  0  0
  -13.3544    1.7526    9.5680 C   0  0  0  0  0  0  0  0  0  0  0  0
  -11.8781    2.1434    9.5236 C   0  0  0  0  0  0  0  0  0  0  0  0
  -11.0693    1.4485    8.5118 N   0  0  0  0  0  0  0  0  0  0  0  0
   -9.6714    1.9262    8.6281 C   0  0  0  0  0  0  0  0  0  0  0  0
   -8.6982    1.2421    7.6500 C   0  0  0  0  0  0  0  0  0  0  0  0
   -8.7339   -0.2225    7.8365 N   0  0  0  0  0  0  0  0  0  0  0  0
   -7.6821   -0.9622    7.2913 C   0  0  0  0  0  0  0  0  0  0  0  0
   -7.8634   -2.1665    6.5919 C   0  0  0  0  0  0  0  0  0  0  0  0
   -6.7866   -2.8937    6.0778 C   0  0  0  0  0  0  0  0  0  0  0  0
   -5.4919   -2.4260    6.2462 C   0  0  0  0  0  0  0  0  0  0  0  0
   -5.2659   -1.2439    6.9537 C   0  0  0  0  0  0  0  0  0  0  0  0
   -3.8705   -0.7340    7.1423 C   0  0  0  0  0  0  0  0  0  0  0  0
   -3.1865   -1.3907    8.1147 F   0  0  0  0  0  0  0  0  0  0  0  0
   -3.8033    0.5899    7.4602 F   0  0  0  0  0  0  0  0  0  0  0  0
   -3.1350   -0.8709    6.0050 F   0  0  0  0  0  0  0  0  0  0  0  0
   -6.3575   -0.5459    7.4869 C   0  0  0  0  0  0  0  0  0  0  0  0
  -10.1067   -0.7517    7.7013 C   0  0  0  0  0  0  0  0  0  0  0  0
  -11.0759   -0.0256    8.6614 C   0  0  0  0  0  0  0  0  0  0  0  0
  -18.0876    1.5930    8.9906 C   0  0  0  0  0  0  0  0  0  0  0  0
  -19.3371    0.3703   10.1208 I   0  0  0  0  0  0  0  0  0  0  0  0
  -18.4676    2.8438    8.7017 N   0  0  0  0  0  0  0  0  0  0  0  0
  1  2  1  0
  2  3  1  0
  3  4  2  0
  4  5  1  0
  5  6  1  6
  5  7  1  0
  7  8  1  0
  8  9  1  0
  9 10  1  0
 10 11  1  0
 11 12  1  0
 12 13  1  0
 13 14  1  0
 14 15  1  0
 15 16  1  0
 16 17  2  0
 17 18  1  0
 18 19  2  0
 19 20  1  0
 20 21  1  0
 21 22  1  0
 21 23  1  0
 21 24  1  0
 20 25  2  0
 15 26  1  0
 26 27  1  0
  4 28  1  0
 28 29  1  0
 28 30  2  0
 30  2  1  0
 27 12  1  0
 25 16  1  0
M  END
>  <ref_mols>  (1866) 
B0426a

>  <gnina_score>  (1866) 
5.489

>  <smina_score_min>  (1866) 
-5.855

>  <ref_pdb>  (1866) 
B0426a

>  <inspiration_score>  (1866) 
None

>  <inchikey>  (1866) 
FFROSDFVMZGFPH-IBGZPJMESA-N

>  <tags>  (1866) 
BulkDock Fragalysis export,openbind_d68ev3c_c2_elabs_scored,openbind_d68ev3c_c2_elabs_scored_4.5plus,openbind_d68ev3c_c2_elabs,openbind_d68ev3c_c2_elabs_scored_5plus,syndirella_product,openbind_d68ev3c_c2_elabs_scored_top80percent,syndirella_placed

>  <smiles>  (1866) 
Cn1cc([C@H](O)NCCCCN2CCN(c3cccc(C(F)(F)F)c3)CC2)c(I)n1

>  <subsites>  (1866) 
None

>  <rmsd(smina/fragmenstein)>  (1866) 
1.125

>  <alias>  (1866) 
None

>  <energy_score>  (1866) 
-44.219044

>  <HIPPO Pose ID>  (1866) 
132036

>  <distance_score>  (1866) 
0.545201

>  <HIPPO Compound ID>  (1866) 
157995

>  <gnina_score_min>  (1866) 
5.426

>  <name>  (1866) 
P132036

>  <exports>  (1866) 
['/opt/xchem-fragalysis-2/maxwin/BulkDock/OUTPUTS/openbind_d68ev3c_c2_elabs_1LOTQJ3.sdf', '/opt/xchem-fragalysis-2/maxwin/BulkDock/OUTPUTS/openbind_d68ev3c_c2_elabs_1LSYI5W.sdf']

$$$$
P132038
     RDKit          3D

 30 32  0  0  0  0  0  0  0  0999 V2000
  -16.6106    0.0800    9.5169 C   0  0  0  0  0  0  0  0  0  0  0  0
  -15.4029    0.7724    9.9411 N   0  0  0  0  0  0  0  0  0  0  0  0
  -14.3817    0.7298    8.8823 C   0  0  0  0  0  0  0  0  0  0  0  0
  -13.3099    1.8027    9.1136 C   0  0  0  0  0  0  0  0  0  0  0  0
  -12.4248    2.0884    7.9053 C   0  0  0  0  0  0  0  0  0  0  0  0
  -11.2235    1.2919    7.6945 N   0  0  0  0  0  0  0  0  0  0  0  0
  -10.1527    1.5349    8.6717 C   0  0  0  0  0  0  0  0  0  0  0  0
   -8.8305    0.8931    8.1995 C   0  0  0  0  0  0  0  0  0  0  0  0
   -8.9532   -0.5449    7.8584 N   0  0  0  0  0  0  0  0  0  0  0  0
   -7.7897   -1.1970    7.3951 C   0  0  0  0  0  0  0  0  0  0  0  0
   -7.8419   -2.4810    6.8216 C   0  0  0  0  0  0  0  0  0  0  0  0
   -6.7072   -3.1253    6.3239 C   0  0  0  0  0  0  0  0  0  0  0  0
   -5.4677   -2.5127    6.4164 C   0  0  0  0  0  0  0  0  0  0  0  0
   -5.3533   -1.2633    7.0276 C   0  0  0  0  0  0  0  0  0  0  0  0
   -4.0002   -0.6297    7.1663 C   0  0  0  0  0  0  0  0  0  0  0  0
   -3.2693   -0.7460    6.0219 F   0  0  0  0  0  0  0  0  0  0  0  0
   -4.0345    0.7040    7.4434 F   0  0  0  0  0  0  0  0  0  0  0  0
   -3.2472   -1.1972    8.1462 F   0  0  0  0  0  0  0  0  0  0  0  0
   -6.5087   -0.6289    7.5165 C   0  0  0  0  0  0  0  0  0  0  0  0
  -10.2001   -0.8939    7.1203 C   0  0  0  0  0  0  0  0  0  0  0  0
  -11.4489   -0.1588    7.6409 C   0  0  0  0  0  0  0  0  0  0  0  0
  -14.9458    0.3275   11.2589 C   0  0  1  0  0  0  0  0  0  0  0  0
  -13.6152   -0.1634   11.2407 O   0  0  0  0  0  0  0  0  0  0  0  0
  -15.0517    1.4927   12.1970 C   0  0  0  0  0  0  0  0  0  0  0  0
  -14.1843    2.5691   12.2857 C   0  0  0  0  0  0  0  0  0  0  0  0
  -14.7122    3.4299   13.1938 N   0  0  0  0  0  0  0  0  0  0  0  0
  -14.3000    4.7996   13.3791 C   0  0  0  0  0  0  0  0  0  0  0  0
  -15.7698    2.9162   13.8528 N   0  0  0  0  0  0  0  0  0  0  0  0
  -16.0105    1.7734   13.1989 C   0  0  0  0  0  0  0  0  0  0  0  0
  -17.6588    0.6005   13.6894 I   0  0  0  0  0  0  0  0  0  0  0  0
  1  2  1  0
  2  3  1  0
  3  4  1  0
  4  5  1  0
  5  6  1  0
  6  7  1  0
  7  8  1  0
  8  9  1  0
  9 10  1  0
 10 11  2  0
 11 12  1  0
 12 13  2  0
 13 14  1  0
 14 15  1  0
 15 16  1  0
 15 17  1  0
 15 18  1  0
 14 19  2  0
  9 20  1  0
 20 21  1  0
  2 22  1  0
 22 23  1  6
 22 24  1  0
 24 25  2  0
 25 26  1  0
 26 27  1  0
 26 28  1  0
 28 29  2  0
 29 30  1  0
 21  6  1  0
 29 24  1  0
 19 10  1  0
M  END
>  <ref_mols>  (1867) 
B0426a

>  <gnina_score>  (1867) 
5.469

>  <smina_score_min>  (1867) 
-6.111

>  <ref_pdb>  (1867) 
B0426a

>  <inspiration_score>  (1867) 
None

>  <inchikey>  (1867) 
JKJBUMUMQWZEEZ-IBGZPJMESA-N

>  <tags>  (1867) 
BulkDock Fragalysis export,openbind_d68ev3c_c2_elabs_scored,openbind_d68ev3c_c2_elabs_scored_4.5plus,openbind_d68ev3c_c2_elabs,openbind_d68ev3c_c2_elabs_scored_5plus,syndirella_product,openbind_d68ev3c_c2_elabs_scored_top80percent,syndirella_placed

>  <smiles>  (1867) 
CN(CCCN1CCN(c2cccc(C(F)(F)F)c2)CC1)[C@@H](O)c1cn(C)nc1I

>  <subsites>  (1867) 
None

>  <rmsd(smina/fragmenstein)>  (1867) 
0.701

>  <alias>  (1867) 
None

>  <energy_score>  (1867) 
-49.718797

>  <HIPPO Pose ID>  (1867) 
132038

>  <distance_score>  (1867) 
0.530178

>  <HIPPO Compound ID>  (1867) 
157996

>  <gnina_score_min>  (1867) 
5.533

>  <name>  (1867) 
P132038

>  <exports>  (1867) 
['/opt/xchem-fragalysis-2/maxwin/BulkDock/OUTPUTS/openbind_d68ev3c_c2_elabs_1LOTQJ3.sdf', '/opt/xchem-fragalysis-2/maxwin/BulkDock/OUTPUTS/openbind_d68ev3c_c2_elabs_1LSYI5W.sdf']

$$$$
P132039
     RDKit          3D

 30 32  0  0  0  0  0  0  0  0999 V2000
  -13.5247   -1.0659    3.0331 C   0  0  0  0  0  0  0  0  0  0  0  0
  -13.6690    0.1539    3.5645 C   0  0  0  0  0  0  0  0  0  0  0  0
  -14.2459    0.5748    4.7743 N   0  0  0  0  0  0  0  0  0  0  0  0
  -14.2207    1.9036    5.1255 N   0  0  0  0  0  0  0  0  0  0  0  0
  -14.7708    1.9599    6.3314 C   0  0  0  0  0  0  0  0  0  0  0  0
  -15.2093    0.7145    6.8073 C   0  0  0  0  0  0  0  0  0  0  0  0
  -15.8878    0.4609    8.1114 C   0  0  0  0  0  0  0  0  0  0  0  0
  -14.9916   -0.2690    8.9817 N   0  0  0  0  0  0  0  0  0  0  0  0
  -15.0684    0.0711   10.3865 C   0  0  0  0  0  0  0  0  0  0  0  0
  -13.6970    0.5953   10.8071 C   0  0  0  0  0  0  0  0  0  0  0  0
  -13.2807    1.8379   10.0078 C   0  0  0  0  0  0  0  0  0  0  0  0
  -11.7730    2.0750    9.9807 C   0  0  0  0  0  0  0  0  0  0  0  0
  -11.0532    1.5090    8.8258 N   0  0  0  0  0  0  0  0  0  0  0  0
  -11.1364    0.0298    8.7532 C   0  0  0  0  0  0  0  0  0  0  0  0
  -10.2218   -0.6158    7.6807 C   0  0  0  0  0  0  0  0  0  0  0  0
   -8.8191   -0.1630    7.8429 N   0  0  0  0  0  0  0  0  0  0  0  0
   -7.7771   -0.9020    7.2883 C   0  0  0  0  0  0  0  0  0  0  0  0
   -7.9733   -2.0983    6.5809 C   0  0  0  0  0  0  0  0  0  0  0  0
   -6.9066   -2.8404    6.0617 C   0  0  0  0  0  0  0  0  0  0  0  0
   -5.6027   -2.3967    6.2292 C   0  0  0  0  0  0  0  0  0  0  0  0
   -5.3569   -1.2218    6.9408 C   0  0  0  0  0  0  0  0  0  0  0  0
   -3.9511   -0.7353    7.1348 C   0  0  0  0  0  0  0  0  0  0  0  0
   -3.2797   -1.4112    8.1041 F   0  0  0  0  0  0  0  0  0  0  0  0
   -3.8621    0.5843    7.4655 F   0  0  0  0  0  0  0  0  0  0  0  0
   -3.2090   -0.8738    6.0002 F   0  0  0  0  0  0  0  0  0  0  0  0
   -6.4413   -0.5113    7.4801 C   0  0  0  0  0  0  0  0  0  0  0  0
   -8.7406    1.3113    7.8168 C   0  0  0  0  0  0  0  0  0  0  0  0
   -9.6317    1.9002    8.9257 C   0  0  0  0  0  0  0  0  0  0  0  0
  -14.8798   -0.1644    5.7861 C   0  0  0  0  0  0  0  0  0  0  0  0
  -15.1201   -1.6289    5.7308 C   0  0  0  0  0  0  0  0  0  0  0  0
  1  2  2  0
  2  3  1  0
  3  4  1  0
  4  5  2  0
  5  6  1  0
  6  7  1  0
  7  8  1  0
  8  9  1  0
  9 10  1  0
 10 11  1  0
 11 12  1  0
 12 13  1  0
 13 14  1  0
 14 15  1  0
 15 16  1  0
 16 17  1  0
 17 18  2  0
 18 19  1  0
 19 20  2  0
 20 21  1  0
 21 22  1  0
 22 23  1  0
 22 24  1  0
 22 25  1  0
 21 26  2  0
 16 27  1  0
 27 28  1  0
  6 29  2  0
 29 30  1  0
 29  3  1  0
 28 13  1  0
 26 17  1  0
M  END
>  <ref_mols>  (1868) 
B0426a

>  <gnina_score>  (1868) 
5.689

>  <smina_score_min>  (1868) 
-5.678

>  <ref_pdb>  (1868) 
B0426a

>  <inspiration_score>  (1868) 
None

>  <inchikey>  (1868) 
AJXSVCQUTPORDJ-UHFFFAOYSA-N

>  <tags>  (1868) 
BulkDock Fragalysis export,openbind_d68ev3c_c2_elabs_scored,openbind_d68ev3c_c2_elabs_scored_4.5plus,openbind_d68ev3c_c2_elabs,openbind_d68ev3c_c2_elabs_scored_5plus,syndirella_product,openbind_d68ev3c_c2_elabs_scored_top80percent,syndirella_placed

>  <smiles>  (1868) 
C=Cn1ncc(CNCCCCN2CCN(c3cccc(C(F)(F)F)c3)CC2)c1C

>  <subsites>  (1868) 
None

>  <rmsd(smina/fragmenstein)>  (1868) 
0.906

>  <alias>  (1868) 
None

>  <energy_score>  (1868) 
-36.833459

>  <HIPPO Pose ID>  (1868) 
132039

>  <distance_score>  (1868) 
0.583853

>  <HIPPO Compound ID>  (1868) 
157997

>  <gnina_score_min>  (1868) 
5.892

>  <name>  (1868) 
P132039

>  <exports>  (1868) 
['/opt/xchem-fragalysis-2/maxwin/BulkDock/OUTPUTS/openbind_d68ev3c_c2_elabs_1LOTQJ3.sdf', '/opt/xchem-fragalysis-2/maxwin/BulkDock/OUTPUTS/openbind_d68ev3c_c2_elabs_1LSYI5W.sdf']

$$$$
P132040
     RDKit          3D

 30 32  0  0  0  0  0  0  0  0999 V2000
  -20.7190   -0.1746   14.3861 C   0  0  0  0  0  0  0  0  0  0  0  0
  -19.5248    0.7365   14.1691 C   0  0  0  0  0  0  0  0  0  0  0  0
  -19.1917    0.8731   12.7642 N   0  0  0  0  0  0  0  0  0  0  0  0
  -18.2608    0.1567   12.0787 C   0  0  0  0  0  0  0  0  0  0  0  0
  -18.2394    0.6582   10.7905 C   0  0  0  0  0  0  0  0  0  0  0  0
  -17.4022    0.2343    9.6272 C   0  0  0  0  0  0  0  0  0  0  0  0
  -16.2141   -0.4849   10.0805 N   0  0  0  0  0  0  0  0  0  0  0  0
  -15.1204    0.3940   10.4817 C   0  0  0  0  0  0  0  0  0  0  0  0
  -14.2963    0.8603    9.2812 C   0  0  0  0  0  0  0  0  0  0  0  0
  -13.1365    1.7463    9.7389 C   0  0  0  0  0  0  0  0  0  0  0  0
  -12.3209    2.3195    8.5726 C   0  0  0  0  0  0  0  0  0  0  0  0
  -11.1569    1.5746    8.0959 N   0  0  0  0  0  0  0  0  0  0  0  0
  -11.4320    0.1902    7.6735 C   0  0  0  0  0  0  0  0  0  0  0  0
  -10.2029   -0.4758    7.0096 C   0  0  0  0  0  0  0  0  0  0  0  0
   -8.9873   -0.3867    7.8632 N   0  0  0  0  0  0  0  0  0  0  0  0
   -7.8655   -1.0827    7.3789 C   0  0  0  0  0  0  0  0  0  0  0  0
   -7.9886   -2.3961    6.8948 C   0  0  0  0  0  0  0  0  0  0  0  0
   -6.8951   -3.1083    6.3954 C   0  0  0  0  0  0  0  0  0  0  0  0
   -5.6329   -2.5299    6.3939 C   0  0  0  0  0  0  0  0  0  0  0  0
   -5.4518   -1.2458    6.9108 C   0  0  0  0  0  0  0  0  0  0  0  0
   -4.0747   -0.6469    6.9539 C   0  0  0  0  0  0  0  0  0  0  0  0
   -3.2665   -1.2466    7.8703 F   0  0  0  0  0  0  0  0  0  0  0  0
   -3.4277   -0.7608    5.7587 F   0  0  0  0  0  0  0  0  0  0  0  0
   -4.0544    0.6827    7.2542 F   0  0  0  0  0  0  0  0  0  0  0  0
   -6.5670   -0.5427    7.3983 C   0  0  0  0  0  0  0  0  0  0  0  0
   -8.7695    0.9598    8.4310 C   0  0  0  0  0  0  0  0  0  0  0  0
  -10.0468    1.5472    9.0633 C   0  0  0  0  0  0  0  0  0  0  0  0
  -19.2393    1.6732   10.8071 C   0  0  0  0  0  0  0  0  0  0  0  0
  -19.6623    2.5528    9.6896 C   0  0  0  0  0  0  0  0  0  0  0  0
  -19.8244    1.7859   12.0065 N   0  0  0  0  0  0  0  0  0  0  0  0
  1  2  1  0
  2  3  1  0
  3  4  1  0
  4  5  2  0
  5  6  1  0
  6  7  1  0
  7  8  1  0
  8  9  1  0
  9 10  1  0
 10 11  1  0
 11 12  1  0
 12 13  1  0
 13 14  1  0
 14 15  1  0
 15 16  1  0
 16 17  2  0
 17 18  1  0
 18 19  2  0
 19 20  1  0
 20 21  1  0
 21 22  1  0
 21 23  1  0
 21 24  1  0
 20 25  2  0
 15 26  1  0
 26 27  1  0
  5 28  1  0
 28 29  1  0
 28 30  2  0
 30  3  1  0
 27 12  1  0
 25 16  1  0
M  END
>  <ref_mols>  (1869) 
B0426a

>  <gnina_score>  (1869) 
5.355

>  <smina_score_min>  (1869) 
-5.699

>  <ref_pdb>  (1869) 
B0426a

>  <inspiration_score>  (1869) 
None

>  <inchikey>  (1869) 
SCANKQCQRXXPLG-UHFFFAOYSA-N

>  <tags>  (1869) 
BulkDock Fragalysis export,openbind_d68ev3c_c2_elabs_scored,openbind_d68ev3c_c2_elabs_scored_4.5plus,openbind_d68ev3c_c2_elabs,openbind_d68ev3c_c2_elabs_scored_5plus,syndirella_product,openbind_d68ev3c_c2_elabs_scored_top80percent,syndirella_placed

>  <smiles>  (1869) 
CCn1cc(CNCCCCN2CCN(c3cccc(C(F)(F)F)c3)CC2)c(C)n1

>  <subsites>  (1869) 
None

>  <rmsd(smina/fragmenstein)>  (1869) 
0.738

>  <alias>  (1869) 
None

>  <energy_score>  (1869) 
-53.562256

>  <HIPPO Pose ID>  (1869) 
132040

>  <distance_score>  (1869) 
0.657108

>  <HIPPO Compound ID>  (1869) 
157999

>  <gnina_score_min>  (1869) 
5.411

>  <name>  (1869) 
P132040

>  <exports>  (1869) 
['/opt/xchem-fragalysis-2/maxwin/BulkDock/OUTPUTS/openbind_d68ev3c_c2_elabs_1LOTQJ3.sdf', '/opt/xchem-fragalysis-2/maxwin/BulkDock/OUTPUTS/openbind_d68ev3c_c2_elabs_1LSYI5W.sdf']

$$$$
P132041
     RDKit          3D

 30 32  0  0  0  0  0  0  0  0999 V2000
  -20.2195   -0.7373   14.1061 C   0  0  0  0  0  0  0  0  0  0  0  0
  -19.7574    0.5640   13.4746 C   0  0  0  0  0  0  0  0  0  0  0  0
  -19.0876    0.3454   12.2081 N   0  0  0  0  0  0  0  0  0  0  0  0
  -17.7540    0.1518   12.0188 C   0  0  0  0  0  0  0  0  0  0  0  0
  -17.5767   -0.0585   10.6654 C   0  0  0  0  0  0  0  0  0  0  0  0
  -16.3005   -0.3885    9.9496 C   0  0  0  0  0  0  0  0  0  0  0  0
  -15.4526    0.8003    9.8567 N   0  0  0  0  0  0  0  0  0  0  0  0
  -16.0477    1.8364    9.0034 C   0  0  0  0  0  0  0  0  0  0  0  0
  -14.1301    0.4211    9.3388 C   0  0  0  0  0  0  0  0  0  0  0  0
  -13.0834    1.4463    9.7892 C   0  0  0  0  0  0  0  0  0  0  0  0
  -12.3202    2.0861    8.6279 C   0  0  0  0  0  0  0  0  0  0  0  0
  -11.1392    1.3948    8.1113 N   0  0  0  0  0  0  0  0  0  0  0  0
  -11.3708   -0.0129    7.7408 C   0  0  0  0  0  0  0  0  0  0  0  0
  -10.1397   -0.6596    7.0713 C   0  0  0  0  0  0  0  0  0  0  0  0
   -8.9032   -0.4940    7.8801 N   0  0  0  0  0  0  0  0  0  0  0  0
   -7.7702   -1.1611    7.3817 C   0  0  0  0  0  0  0  0  0  0  0  0
   -7.8671   -2.4613    6.8568 C   0  0  0  0  0  0  0  0  0  0  0  0
   -6.7618   -3.1369    6.3357 C   0  0  0  0  0  0  0  0  0  0  0  0
   -5.5110   -2.5376    6.3575 C   0  0  0  0  0  0  0  0  0  0  0  0
   -5.3546   -1.2699    6.9191 C   0  0  0  0  0  0  0  0  0  0  0  0
   -3.9897   -0.6509    6.9881 C   0  0  0  0  0  0  0  0  0  0  0  0
   -3.1958   -1.2234    7.9330 F   0  0  0  0  0  0  0  0  0  0  0  0
   -3.3165   -0.7766    5.8098 F   0  0  0  0  0  0  0  0  0  0  0  0
   -3.9958    0.6838    7.2646 F   0  0  0  0  0  0  0  0  0  0  0  0
   -6.4812   -0.6018    7.4255 C   0  0  0  0  0  0  0  0  0  0  0  0
   -8.7211    0.8782    8.3977 C   0  0  0  0  0  0  0  0  0  0  0  0
  -10.0008    1.4392    9.0453 C   0  0  0  0  0  0  0  0  0  0  0  0
  -18.8899    0.0563   10.1231 C   0  0  0  0  0  0  0  0  0  0  0  0
  -19.3085   -0.0757    8.7058 C   0  0  0  0  0  0  0  0  0  0  0  0
  -19.8045    0.2953   11.0714 N   0  0  0  0  0  0  0  0  0  0  0  0
  1  2  1  0
  2  3  1  0
  3  4  1  0
  4  5  2  0
  5  6  1  0
  6  7  1  0
  7  8  1  0
  7  9  1  0
  9 10  1  0
 10 11  1  0
 11 12  1  0
 12 13  1  0
 13 14  1  0
 14 15  1  0
 15 16  1  0
 16 17  2  0
 17 18  1  0
 18 19  2  0
 19 20  1  0
 20 21  1  0
 21 22  1  0
 21 23  1  0
 21 24  1  0
 20 25  2  0
 15 26  1  0
 26 27  1  0
  5 28  1  0
 28 29  1  0
 28 30  2  0
 30  3  1  0
 27 12  1  0
 25 16  1  0
M  END
>  <ref_mols>  (1870) 
B0426a

>  <gnina_score>  (1870) 
5.543

>  <smina_score_min>  (1870) 
-5.639

>  <ref_pdb>  (1870) 
B0426a

>  <inspiration_score>  (1870) 
None

>  <inchikey>  (1870) 
OIBMLYRJBAIGIC-UHFFFAOYSA-N

>  <tags>  (1870) 
BulkDock Fragalysis export,openbind_d68ev3c_c2_elabs_scored,openbind_d68ev3c_c2_elabs_scored_4.5plus,openbind_d68ev3c_c2_elabs,openbind_d68ev3c_c2_elabs_scored_5plus,syndirella_product,openbind_d68ev3c_c2_elabs_scored_top80percent,syndirella_placed

>  <smiles>  (1870) 
CCn1cc(CN(C)CCCN2CCN(c3cccc(C(F)(F)F)c3)CC2)c(C)n1

>  <subsites>  (1870) 
None

>  <rmsd(smina/fragmenstein)>  (1870) 
0.694

>  <alias>  (1870) 
None

>  <energy_score>  (1870) 
-45.527749

>  <HIPPO Pose ID>  (1870) 
132041

>  <distance_score>  (1870) 
0.680994

>  <HIPPO Compound ID>  (1870) 
158000

>  <gnina_score_min>  (1870) 
5.485

>  <name>  (1870) 
P132041

>  <exports>  (1870) 
['/opt/xchem-fragalysis-2/maxwin/BulkDock/OUTPUTS/openbind_d68ev3c_c2_elabs_1LOTQJ3.sdf', '/opt/xchem-fragalysis-2/maxwin/BulkDock/OUTPUTS/openbind_d68ev3c_c2_elabs_1LSYI5W.sdf']

$$$$
P132042
     RDKit          3D

 30 32  0  0  0  0  0  0  0  0999 V2000
  -19.3469    3.0100    4.8299 C   0  0  0  0  0  0  0  0  0  0  0  0
  -19.3058    4.4727    4.4115 C   0  0  0  0  0  0  0  0  0  0  0  0
  -18.0696    4.8417    3.5859 C   0  0  0  0  0  0  0  0  0  0  0  0
  -16.7862    4.7040    4.2505 N   0  0  0  0  0  0  0  0  0  0  0  0
  -16.5108    4.8902    5.5741 C   0  0  0  0  0  0  0  0  0  0  0  0
  -15.1714    4.6084    5.7443 C   0  0  0  0  0  0  0  0  0  0  0  0
  -14.3879    4.5868    7.0075 C   0  0  0  0  0  0  0  0  0  0  0  0
  -14.7416    3.4191    7.8165 N   0  0  0  0  0  0  0  0  0  0  0  0
  -14.2449    2.1674    7.2382 C   0  0  0  0  0  0  0  0  0  0  0  0
  -14.3612    1.0047    8.2295 C   0  0  0  0  0  0  0  0  0  0  0  0
  -13.6244    1.1983    9.5595 C   0  0  0  0  0  0  0  0  0  0  0  0
  -12.2102    1.7998    9.4866 C   0  0  0  0  0  0  0  0  0  0  0  0
  -11.2788    1.1769    8.5337 N   0  0  0  0  0  0  0  0  0  0  0  0
  -11.1204   -0.2724    8.7722 C   0  0  0  0  0  0  0  0  0  0  0  0
  -10.1189   -0.9169    7.7959 C   0  0  0  0  0  0  0  0  0  0  0  0
   -8.7942   -0.2745    7.8832 N   0  0  0  0  0  0  0  0  0  0  0  0
   -7.7156   -0.9519    7.3047 C   0  0  0  0  0  0  0  0  0  0  0  0
   -7.8578   -2.1554    6.5884 C   0  0  0  0  0  0  0  0  0  0  0  0
   -6.7626   -2.8536    6.0755 C   0  0  0  0  0  0  0  0  0  0  0  0
   -5.4832   -2.3578    6.2626 C   0  0  0  0  0  0  0  0  0  0  0  0
   -5.2939   -1.1680    6.9717 C   0  0  0  0  0  0  0  0  0  0  0  0
   -3.9054   -0.6469    7.1843 C   0  0  0  0  0  0  0  0  0  0  0  0
   -3.1371   -0.8185    6.0736 F   0  0  0  0  0  0  0  0  0  0  0  0
   -3.2483   -1.2737    8.1944 F   0  0  0  0  0  0  0  0  0  0  0  0
   -3.8510    0.6852    7.4638 F   0  0  0  0  0  0  0  0  0  0  0  0
   -6.4067   -0.4892    7.4935 C   0  0  0  0  0  0  0  0  0  0  0  0
   -8.8715    1.1915    7.7125 C   0  0  0  0  0  0  0  0  0  0  0  0
   -9.9398    1.8067    8.6533 C   0  0  0  0  0  0  0  0  0  0  0  0
  -14.7112    4.3457    4.4349 C   0  0  0  0  0  0  0  0  0  0  0  0
  -15.6812    4.4191    3.5154 N   0  0  0  0  0  0  0  0  0  0  0  0
  1  2  1  0
  2  3  1  0
  3  4  1  0
  4  5  1  0
  5  6  2  0
  6  7  1  0
  7  8  1  0
  8  9  1  0
  9 10  1  0
 10 11  1  0
 11 12  1  0
 12 13  1  0
 13 14  1  0
 14 15  1  0
 15 16  1  0
 16 17  1  0
 17 18  2  0
 18 19  1  0
 19 20  2  0
 20 21  1  0
 21 22  1  0
 22 23  1  0
 22 24  1  0
 22 25  1  0
 21 26  2  0
 16 27  1  0
 27 28  1  0
  6 29  1  0
 29 30  2  0
 30  4  1  0
 28 13  1  0
 26 17  1  0
M  END
>  <ref_mols>  (1871) 
B0426a

>  <gnina_score>  (1871) 
4.844

>  <smina_score_min>  (1871) 
-5.4

>  <ref_pdb>  (1871) 
B0426a

>  <inspiration_score>  (1871) 
None

>  <inchikey>  (1871) 
QQWKEYJSBUDFDX-UHFFFAOYSA-N

>  <tags>  (1871) 
BulkDock Fragalysis export,openbind_d68ev3c_c2_elabs_scored,openbind_d68ev3c_c2_elabs_scored_4.5plus,openbind_d68ev3c_c2_elabs,openbind_d68ev3c_c2_elabs_scored_5plus,syndirella_product,openbind_d68ev3c_c2_elabs_scored_top80percent,syndirella_placed

>  <smiles>  (1871) 
CCCn1cc(CNCCCCN2CCN(c3cccc(C(F)(F)F)c3)CC2)cn1

>  <subsites>  (1871) 
None

>  <rmsd(smina/fragmenstein)>  (1871) 
3.353

>  <alias>  (1871) 
None

>  <energy_score>  (1871) 
-54.55589

>  <HIPPO Pose ID>  (1871) 
132042

>  <distance_score>  (1871) 
0.608813

>  <HIPPO Compound ID>  (1871) 
158001

>  <gnina_score_min>  (1871) 
5.572

>  <name>  (1871) 
P132042

>  <exports>  (1871) 
['/opt/xchem-fragalysis-2/maxwin/BulkDock/OUTPUTS/openbind_d68ev3c_c2_elabs_1LOTQJ3.sdf', '/opt/xchem-fragalysis-2/maxwin/BulkDock/OUTPUTS/openbind_d68ev3c_c2_elabs_1LSYI5W.sdf']

$$$$
P132043
     RDKit          3D

 30 32  0  0  0  0  0  0  0  0999 V2000
  -13.2351    3.3785    3.3187 C   0  0  0  0  0  0  0  0  0  0  0  0
  -13.6828    2.7020    4.3863 C   0  0  0  0  0  0  0  0  0  0  0  0
  -13.7591    3.2832    5.7721 C   0  0  0  0  0  0  0  0  0  0  0  0
  -14.8184    2.7035    6.5950 N   0  0  0  0  0  0  0  0  0  0  0  0
  -14.7952    1.4607    7.1621 C   0  0  0  0  0  0  0  0  0  0  0  0
  -15.7751    1.4486    8.1361 C   0  0  0  0  0  0  0  0  0  0  0  0
  -16.0603    0.3792    9.1408 C   0  0  0  0  0  0  0  0  0  0  0  0
  -15.7176    0.8053   10.5121 N   0  0  0  0  0  0  0  0  0  0  0  0
  -15.9730   -0.2809   11.4446 C   0  0  0  0  0  0  0  0  0  0  0  0
  -14.3776    1.3947   10.6780 C   0  0  0  0  0  0  0  0  0  0  0  0
  -13.2238    0.6451   10.0266 C   0  0  0  0  0  0  0  0  0  0  0  0
  -12.0344    1.5655    9.7068 C   0  0  0  0  0  0  0  0  0  0  0  0
  -11.1392    1.0517    8.6512 N   0  0  0  0  0  0  0  0  0  0  0  0
  -10.9867   -0.4171    8.7071 C   0  0  0  0  0  0  0  0  0  0  0  0
  -10.0160   -0.9786    7.6650 C   0  0  0  0  0  0  0  0  0  0  0  0
   -8.6949   -0.3501    7.8027 N   0  0  0  0  0  0  0  0  0  0  0  0
   -7.6111   -1.0071    7.2262 C   0  0  0  0  0  0  0  0  0  0  0  0
   -7.7417   -2.1856    6.4672 C   0  0  0  0  0  0  0  0  0  0  0  0
   -6.6392   -2.8720    5.9588 C   0  0  0  0  0  0  0  0  0  0  0  0
   -5.3653   -2.3839    6.1894 C   0  0  0  0  0  0  0  0  0  0  0  0
   -5.1916   -1.2165    6.9380 C   0  0  0  0  0  0  0  0  0  0  0  0
   -3.8140   -0.6919    7.1850 C   0  0  0  0  0  0  0  0  0  0  0  0
   -3.0277   -0.8584    6.0885 F   0  0  0  0  0  0  0  0  0  0  0  0
   -3.7713    0.6403    7.4666 F   0  0  0  0  0  0  0  0  0  0  0  0
   -3.1754   -1.3180    8.2060 F   0  0  0  0  0  0  0  0  0  0  0  0
   -6.3097   -0.5542    7.4601 C   0  0  0  0  0  0  0  0  0  0  0  0
   -8.7663    1.1252    7.7465 C   0  0  0  0  0  0  0  0  0  0  0  0
   -9.7966    1.6658    8.7717 C   0  0  0  0  0  0  0  0  0  0  0  0
  -16.4138    2.7011    7.9757 C   0  0  0  0  0  0  0  0  0  0  0  0
  -15.8454    3.4620    7.0334 N   0  0  0  0  0  0  0  0  0  0  0  0
  1  2  2  0
  2  3  1  0
  3  4  1  0
  4  5  1  0
  5  6  2  0
  6  7  1  0
  7  8  1  0
  8  9  1  0
  8 10  1  0
 10 11  1  0
 11 12  1  0
 12 13  1  0
 13 14  1  0
 14 15  1  0
 15 16  1  0
 16 17  1  0
 17 18  2  0
 18 19  1  0
 19 20  2  0
 20 21  1  0
 21 22  1  0
 22 23  1  0
 22 24  1  0
 22 25  1  0
 21 26  2  0
 16 27  1  0
 27 28  1  0
  6 29  1  0
 29 30  2  0
 30  4  1  0
 28 13  1  0
 26 17  1  0
M  END
>  <ref_mols>  (1872) 
B0426a

>  <gnina_score>  (1872) 
5.601

>  <smina_score_min>  (1872) 
-5.636

>  <ref_pdb>  (1872) 
B0426a

>  <inspiration_score>  (1872) 
None

>  <inchikey>  (1872) 
GIIQERJUPARCLI-UHFFFAOYSA-N

>  <tags>  (1872) 
BulkDock Fragalysis export,openbind_d68ev3c_c2_elabs_scored,openbind_d68ev3c_c2_elabs_scored_4.5plus,openbind_d68ev3c_c2_elabs,openbind_d68ev3c_c2_elabs_scored_5plus,syndirella_product,openbind_d68ev3c_c2_elabs_scored_top80percent,syndirella_placed

>  <smiles>  (1872) 
C=CCn1cc(CN(C)CCCN2CCN(c3cccc(C(F)(F)F)c3)CC2)cn1

>  <subsites>  (1872) 
None

>  <rmsd(smina/fragmenstein)>  (1872) 
2.28

>  <alias>  (1872) 
None

>  <energy_score>  (1872) 
-38.552294

>  <HIPPO Pose ID>  (1872) 
132043

>  <distance_score>  (1872) 
0.711215

>  <HIPPO Compound ID>  (1872) 
158002

>  <gnina_score_min>  (1872) 
5.791

>  <name>  (1872) 
P132043

>  <exports>  (1872) 
['/opt/xchem-fragalysis-2/maxwin/BulkDock/OUTPUTS/openbind_d68ev3c_c2_elabs_1LOTQJ3.sdf', '/opt/xchem-fragalysis-2/maxwin/BulkDock/OUTPUTS/openbind_d68ev3c_c2_elabs_1LSYI5W.sdf']

$$$$
P132044
     RDKit          3D

 30 32  0  0  0  0  0  0  0  0999 V2000
  -15.6014    2.9539    5.7750 C   0  0  0  0  0  0  0  0  0  0  0  0
  -14.5144    1.5119    5.7289 S   0  0  0  0  0  0  0  0  0  0  0  0
  -15.5914    0.3024    6.3580 C   0  0  0  0  0  0  0  0  0  0  0  0
  -16.1959    0.1348    7.5871 C   0  0  0  0  0  0  0  0  0  0  0  0
  -15.9632    0.8410    8.8694 C   0  0  0  0  0  0  0  0  0  0  0  0
  -15.3454   -0.1165    9.7716 N   0  0  0  0  0  0  0  0  0  0  0  0
  -14.8349    0.4518   11.0000 C   0  0  0  0  0  0  0  0  0  0  0  0
  -13.3117    0.6188   11.0383 C   0  0  0  0  0  0  0  0  0  0  0  0
  -12.7878    1.8994   10.3930 C   0  0  0  0  0  0  0  0  0  0  0  0
  -12.4750    1.9006    8.8950 C   0  0  0  0  0  0  0  0  0  0  0  0
  -11.2852    1.2441    8.3692 N   0  0  0  0  0  0  0  0  0  0  0  0
  -10.0510    1.4636    9.1275 C   0  0  0  0  0  0  0  0  0  0  0  0
   -8.8117    0.9308    8.3729 C   0  0  0  0  0  0  0  0  0  0  0  0
   -8.9526   -0.4845    7.9581 N   0  0  0  0  0  0  0  0  0  0  0  0
   -7.8314   -1.1366    7.4173 C   0  0  0  0  0  0  0  0  0  0  0  0
   -7.9201   -2.4339    6.8812 C   0  0  0  0  0  0  0  0  0  0  0  0
   -6.8146   -3.1022    6.3463 C   0  0  0  0  0  0  0  0  0  0  0  0
   -5.5665   -2.4994    6.3607 C   0  0  0  0  0  0  0  0  0  0  0  0
   -5.4146   -1.2317    6.9234 C   0  0  0  0  0  0  0  0  0  0  0  0
   -4.0501   -0.6089    6.9904 C   0  0  0  0  0  0  0  0  0  0  0  0
   -4.0587    0.7262    7.2643 F   0  0  0  0  0  0  0  0  0  0  0  0
   -3.3733   -0.7363    5.8136 F   0  0  0  0  0  0  0  0  0  0  0  0
   -3.2552   -1.1779    7.9371 F   0  0  0  0  0  0  0  0  0  0  0  0
   -6.5432   -0.5711    7.4421 C   0  0  0  0  0  0  0  0  0  0  0  0
  -10.2654   -0.7730    7.3169 C   0  0  0  0  0  0  0  0  0  0  0  0
  -11.4458   -0.1955    8.1274 C   0  0  0  0  0  0  0  0  0  0  0  0
  -17.0954   -0.9373    7.3728 C   0  0  0  0  0  0  0  0  0  0  0  0
  -16.9927   -1.4758    6.1582 N   0  0  0  0  0  0  0  0  0  0  0  0
  -15.9480   -0.7953    5.6181 N   0  0  0  0  0  0  0  0  0  0  0  0
  -15.2609   -1.3316    4.4674 C   0  0  0  0  0  0  0  0  0  0  0  0
  1  2  1  0
  2  3  1  0
  3  4  2  0
  4  5  1  0
  5  6  1  0
  6  7  1  0
  7  8  1  0
  8  9  1  0
  9 10  1  0
 10 11  1  0
 11 12  1  0
 12 13  1  0
 13 14  1  0
 14 15  1  0
 15 16  2  0
 16 17  1  0
 17 18  2  0
 18 19  1  0
 19 20  1  0
 20 21  1  0
 20 22  1  0
 20 23  1  0
 19 24  2  0
 14 25  1  0
 25 26  1  0
  4 27  1  0
 27 28  2  0
 28 29  1  0
 29 30  1  0
 29  3  1  0
 26 11  1  0
 24 15  1  0
M  END
>  <ref_mols>  (1873) 
B0426a

>  <gnina_score>  (1873) 
5.707

>  <smina_score_min>  (1873) 
-5.997

>  <ref_pdb>  (1873) 
B0426a

>  <inspiration_score>  (1873) 
None

>  <inchikey>  (1873) 
QOIXQAGUQJHYTM-UHFFFAOYSA-N

>  <tags>  (1873) 
BulkDock Fragalysis export,openbind_d68ev3c_c2_elabs_scored,openbind_d68ev3c_c2_elabs_scored_4.5plus,openbind_d68ev3c_c2_elabs,openbind_d68ev3c_c2_elabs_scored_5plus,syndirella_product,openbind_d68ev3c_c2_elabs_scored_top80percent,syndirella_placed

>  <smiles>  (1873) 
CSc1c(CNCCCCN2CCN(c3cccc(C(F)(F)F)c3)CC2)cnn1C

>  <subsites>  (1873) 
None

>  <rmsd(smina/fragmenstein)>  (1873) 
0.928

>  <alias>  (1873) 
None

>  <energy_score>  (1873) 
-47.589588

>  <HIPPO Pose ID>  (1873) 
132044

>  <distance_score>  (1873) 
0.50731

>  <HIPPO Compound ID>  (1873) 
158003

>  <gnina_score_min>  (1873) 
5.714

>  <name>  (1873) 
P132044

>  <exports>  (1873) 
['/opt/xchem-fragalysis-2/maxwin/BulkDock/OUTPUTS/openbind_d68ev3c_c2_elabs_1LOTQJ3.sdf', '/opt/xchem-fragalysis-2/maxwin/BulkDock/OUTPUTS/openbind_d68ev3c_c2_elabs_1LSYI5W.sdf']

$$$$
P132045
     RDKit          3D

 30 32  0  0  0  0  0  0  0  0999 V2000
  -12.6298    6.7397   11.5423 C   0  0  0  0  0  0  0  0  0  0  0  0
  -12.8417    5.9700   12.6187 C   0  0  0  0  0  0  0  0  0  0  0  0
  -14.1902    5.4951   13.0876 C   0  0  0  0  0  0  0  0  0  0  0  0
  -14.3699    4.0423   13.0599 N   0  0  0  0  0  0  0  0  0  0  0  0
  -13.7400    3.1381   12.2485 C   0  0  0  0  0  0  0  0  0  0  0  0
  -14.3071    1.9063   12.4995 C   0  0  0  0  0  0  0  0  0  0  0  0
  -13.9362    0.5839   11.9363 C   0  0  0  0  0  0  0  0  0  0  0  0
  -15.0203   -0.0256   11.1698 N   0  0  0  0  0  0  0  0  0  0  0  0
  -15.4149    0.6572    9.9405 C   0  0  0  0  0  0  0  0  0  0  0  0
  -14.3555    0.6933    8.8345 C   0  0  0  0  0  0  0  0  0  0  0  0
  -13.3564    1.8400    9.0047 C   0  0  0  0  0  0  0  0  0  0  0  0
  -12.4591    2.0985    7.7986 C   0  0  0  0  0  0  0  0  0  0  0  0
  -11.2514    1.3016    7.6270 N   0  0  0  0  0  0  0  0  0  0  0  0
  -10.1842    1.5752    8.6016 C   0  0  0  0  0  0  0  0  0  0  0  0
   -8.8527    0.9265    8.1560 C   0  0  0  0  0  0  0  0  0  0  0  0
   -8.9707   -0.5197    7.8396 N   0  0  0  0  0  0  0  0  0  0  0  0
   -7.8005   -1.1770    7.3956 C   0  0  0  0  0  0  0  0  0  0  0  0
   -7.8462   -2.4729    6.8469 C   0  0  0  0  0  0  0  0  0  0  0  0
   -6.7091   -3.1218    6.3611 C   0  0  0  0  0  0  0  0  0  0  0  0
   -5.4722   -2.5032    6.4454 C   0  0  0  0  0  0  0  0  0  0  0  0
   -5.3633   -1.2431    7.0360 C   0  0  0  0  0  0  0  0  0  0  0  0
   -4.0109   -0.6048    7.1660 C   0  0  0  0  0  0  0  0  0  0  0  0
   -4.0494    0.7314    7.4293 F   0  0  0  0  0  0  0  0  0  0  0  0
   -3.2822   -0.7310    6.0213 F   0  0  0  0  0  0  0  0  0  0  0  0
   -3.2557   -1.1606    8.1504 F   0  0  0  0  0  0  0  0  0  0  0  0
   -6.5220   -0.6028    7.5110 C   0  0  0  0  0  0  0  0  0  0  0  0
  -10.1987   -0.8742    7.0789 C   0  0  0  0  0  0  0  0  0  0  0  0
  -11.4567   -0.1492    7.5875 C   0  0  0  0  0  0  0  0  0  0  0  0
  -15.2785    2.1813   13.4889 C   0  0  0  0  0  0  0  0  0  0  0  0
  -15.3263    3.4711   13.8318 N   0  0  0  0  0  0  0  0  0  0  0  0
  1  2  2  0
  2  3  1  0
  3  4  1  0
  4  5  1  0
  5  6  2  0
  6  7  1  0
  7  8  1  0
  8  9  1  0
  9 10  1  0
 10 11  1  0
 11 12  1  0
 12 13  1  0
 13 14  1  0
 14 15  1  0
 15 16  1  0
 16 17  1  0
 17 18  2  0
 18 19  1  0
 19 20  2  0
 20 21  1  0
 21 22  1  0
 22 23  1  0
 22 24  1  0
 22 25  1  0
 21 26  2  0
 16 27  1  0
 27 28  1  0
  6 29  1  0
 29 30  2  0
 30  4  1  0
 28 13  1  0
 26 17  1  0
M  END
>  <ref_mols>  (1874) 
B0426a

>  <gnina_score>  (1874) 
5.583

>  <smina_score_min>  (1874) 
-5.568

>  <ref_pdb>  (1874) 
B0426a

>  <inspiration_score>  (1874) 
None

>  <inchikey>  (1874) 
JELYKCICUKKRNK-UHFFFAOYSA-N

>  <tags>  (1874) 
BulkDock Fragalysis export,openbind_d68ev3c_c2_elabs_scored,openbind_d68ev3c_c2_elabs_scored_4.5plus,openbind_d68ev3c_c2_elabs,openbind_d68ev3c_c2_elabs_scored_5plus,syndirella_product,openbind_d68ev3c_c2_elabs_scored_top80percent,syndirella_placed

>  <smiles>  (1874) 
C=CCn1cc(CNCCCCN2CCN(c3cccc(C(F)(F)F)c3)CC2)cn1

>  <subsites>  (1874) 
None

>  <rmsd(smina/fragmenstein)>  (1874) 
0.643

>  <alias>  (1874) 
None

>  <energy_score>  (1874) 
-30.342664

>  <HIPPO Pose ID>  (1874) 
132045

>  <distance_score>  (1874) 
0.568078

>  <HIPPO Compound ID>  (1874) 
158004

>  <gnina_score_min>  (1874) 
5.552

>  <name>  (1874) 
P132045

>  <exports>  (1874) 
['/opt/xchem-fragalysis-2/maxwin/BulkDock/OUTPUTS/openbind_d68ev3c_c2_elabs_1LOTQJ3.sdf', '/opt/xchem-fragalysis-2/maxwin/BulkDock/OUTPUTS/openbind_d68ev3c_c2_elabs_1LSYI5W.sdf']

$$$$
P132046
     RDKit          3D

 30 32  0  0  0  0  0  0  0  0999 V2000
  -20.1894    2.2941    5.8841 F   0  0  0  0  0  0  0  0  0  0  0  0
  -19.1948    1.5240    5.3584 C   0  0  0  0  0  0  0  0  0  0  0  0
  -19.7320    0.2804    5.1964 F   0  0  0  0  0  0  0  0  0  0  0  0
  -18.0300    1.4884    6.2397 N   0  0  0  0  0  0  0  0  0  0  0  0
  -17.4943    0.3687    6.8163 C   0  0  0  0  0  0  0  0  0  0  0  0
  -16.3665    0.7690    7.5045 C   0  0  0  0  0  0  0  0  0  0  0  0
  -15.3979   -0.1101    8.2141 C   0  0  0  0  0  0  0  0  0  0  0  0
  -15.8020   -0.3039    9.6010 N   0  0  0  0  0  0  0  0  0  0  0  0
  -15.3036    0.6309   10.5920 C   0  0  0  0  0  0  0  0  0  0  0  0
  -13.7813    0.7706   10.6465 C   0  0  0  0  0  0  0  0  0  0  0  0
  -13.2902    1.9475    9.8031 C   0  0  0  0  0  0  0  0  0  0  0  0
  -11.7747    2.1161    9.8052 C   0  0  0  0  0  0  0  0  0  0  0  0
  -11.0562    1.4830    8.6864 N   0  0  0  0  0  0  0  0  0  0  0  0
   -9.6408    1.9197    8.7600 C   0  0  0  0  0  0  0  0  0  0  0  0
   -8.7263    1.2706    7.7068 C   0  0  0  0  0  0  0  0  0  0  0  0
   -8.7727   -0.1969    7.8429 N   0  0  0  0  0  0  0  0  0  0  0  0
   -7.7280   -0.9374    7.2913 C   0  0  0  0  0  0  0  0  0  0  0  0
   -7.9181   -2.1393    6.5917 C   0  0  0  0  0  0  0  0  0  0  0  0
   -6.8466   -2.8730    6.0732 C   0  0  0  0  0  0  0  0  0  0  0  0
   -5.5471   -2.4151    6.2367 C   0  0  0  0  0  0  0  0  0  0  0  0
   -5.3104   -1.2351    6.9437 C   0  0  0  0  0  0  0  0  0  0  0  0
   -3.9097   -0.7357    7.1323 C   0  0  0  0  0  0  0  0  0  0  0  0
   -3.2294   -1.4008    8.1022 F   0  0  0  0  0  0  0  0  0  0  0  0
   -3.8330    0.5864    7.4564 F   0  0  0  0  0  0  0  0  0  0  0  0
   -3.1729   -0.8720    5.9950 F   0  0  0  0  0  0  0  0  0  0  0  0
   -6.3980   -0.5309    7.4805 C   0  0  0  0  0  0  0  0  0  0  0  0
  -10.1577   -0.7021    7.7282 C   0  0  0  0  0  0  0  0  0  0  0  0
  -11.0906   -0.0004    8.7476 C   0  0  0  0  0  0  0  0  0  0  0  0
  -16.3324    2.1672    7.3100 C   0  0  0  0  0  0  0  0  0  0  0  0
  -17.3448    2.6172    6.5606 N   0  0  0  0  0  0  0  0  0  0  0  0
  1  2  1  0
  2  3  1  0
  2  4  1  0
  4  5  1  0
  5  6  2  0
  6  7  1  0
  7  8  1  0
  8  9  1  0
  9 10  1  0
 10 11  1  0
 11 12  1  0
 12 13  1  0
 13 14  1  0
 14 15  1  0
 15 16  1  0
 16 17  1  0
 17 18  2  0
 18 19  1  0
 19 20  2  0
 20 21  1  0
 21 22  1  0
 22 23  1  0
 22 24  1  0
 22 25  1  0
 21 26  2  0
 16 27  1  0
 27 28  1  0
  6 29  1  0
 29 30  2  0
 30  4  1  0
 28 13  1  0
 26 17  1  0
M  END
>  <ref_mols>  (1875) 
B0426a

>  <gnina_score>  (1875) 
5.492

>  <smina_score_min>  (1875) 
-6.172

>  <ref_pdb>  (1875) 
B0426a

>  <inspiration_score>  (1875) 
None

>  <inchikey>  (1875) 
FDAYOFOORURZIH-UHFFFAOYSA-N

>  <tags>  (1875) 
BulkDock Fragalysis export,openbind_d68ev3c_c2_elabs_scored,openbind_d68ev3c_c2_elabs_scored_4.5plus,openbind_d68ev3c_c2_elabs,openbind_d68ev3c_c2_elabs_scored_5plus,syndirella_product,openbind_d68ev3c_c2_elabs_scored_top80percent,syndirella_placed

>  <smiles>  (1875) 
FC(F)n1cc(CNCCCCN2CCN(c3cccc(C(F)(F)F)c3)CC2)cn1

>  <subsites>  (1875) 
None

>  <rmsd(smina/fragmenstein)>  (1875) 
1.784

>  <alias>  (1875) 
None

>  <energy_score>  (1875) 
-41.671274

>  <HIPPO Pose ID>  (1875) 
132046

>  <distance_score>  (1875) 
0.561912

>  <HIPPO Compound ID>  (1875) 
158005

>  <gnina_score_min>  (1875) 
5.508

>  <name>  (1875) 
P132046

>  <exports>  (1875) 
['/opt/xchem-fragalysis-2/maxwin/BulkDock/OUTPUTS/openbind_d68ev3c_c2_elabs_1LOTQJ3.sdf', '/opt/xchem-fragalysis-2/maxwin/BulkDock/OUTPUTS/openbind_d68ev3c_c2_elabs_1LSYI5W.sdf']

$$$$
P132048
     RDKit          3D

 30 32  0  0  0  0  0  0  0  0999 V2000
  -16.5833   -0.0465    8.7030 C   0  0  0  0  0  0  0  0  0  0  0  0
  -15.5299    0.5313    9.5380 N   0  0  0  0  0  0  0  0  0  0  0  0
  -14.2406    0.4850    8.8420 C   0  0  0  0  0  0  0  0  0  0  0  0
  -13.2898    1.5899    9.3344 C   0  0  0  0  0  0  0  0  0  0  0  0
  -12.3448    2.1310    8.2612 C   0  0  0  0  0  0  0  0  0  0  0  0
  -11.1469    1.3730    7.9177 N   0  0  0  0  0  0  0  0  0  0  0  0
  -11.3717   -0.0361    7.5738 C   0  0  0  0  0  0  0  0  0  0  0  0
  -10.1081   -0.6896    6.9843 C   0  0  0  0  0  0  0  0  0  0  0  0
   -8.9270   -0.5311    7.8707 N   0  0  0  0  0  0  0  0  0  0  0  0
   -7.7701   -1.1863    7.4049 C   0  0  0  0  0  0  0  0  0  0  0  0
   -7.8436   -2.4873    6.8760 C   0  0  0  0  0  0  0  0  0  0  0  0
   -6.7249   -3.1460    6.3643 C   0  0  0  0  0  0  0  0  0  0  0  0
   -5.4827   -2.5306    6.4051 C   0  0  0  0  0  0  0  0  0  0  0  0
   -5.3491   -1.2642    6.9776 C   0  0  0  0  0  0  0  0  0  0  0  0
   -3.9914   -0.6300    7.0610 C   0  0  0  0  0  0  0  0  0  0  0  0
   -4.0153    0.7000    7.3567 F   0  0  0  0  0  0  0  0  0  0  0  0
   -3.1936   -1.2076    7.9990 F   0  0  0  0  0  0  0  0  0  0  0  0
   -3.3148   -0.7312    5.8825 F   0  0  0  0  0  0  0  0  0  0  0  0
   -6.4897   -0.6120    7.4746 C   0  0  0  0  0  0  0  0  0  0  0  0
   -8.7697    0.8412    8.4062 C   0  0  0  0  0  0  0  0  0  0  0  0
  -10.0920    1.4299    8.9438 C   0  0  0  0  0  0  0  0  0  0  0  0
  -15.5317    0.0012   10.8974 C   0  0  1  0  0  0  0  0  0  0  0  0
  -14.3769    0.3604   11.6344 O   0  0  0  0  0  0  0  0  0  0  0  0
  -16.7391    0.4741   11.6548 C   0  0  0  0  0  0  0  0  0  0  0  0
  -17.4299   -0.2462   12.6183 C   0  0  0  0  0  0  0  0  0  0  0  0
  -18.4933    0.5131   12.9957 N   0  0  0  0  0  0  0  0  0  0  0  0
  -19.5465    0.1458   13.9104 C   0  0  0  0  0  0  0  0  0  0  0  0
  -18.5271    1.7104   12.4004 N   0  0  0  0  0  0  0  0  0  0  0  0
  -17.4429    1.7050   11.6190 C   0  0  0  0  0  0  0  0  0  0  0  0
  -17.0008    3.2175   10.5817 Br  0  0  0  0  0  0  0  0  0  0  0  0
  1  2  1  0
  2  3  1  0
  3  4  1  0
  4  5  1  0
  5  6  1  0
  6  7  1  0
  7  8  1  0
  8  9  1  0
  9 10  1  0
 10 11  2  0
 11 12  1  0
 12 13  2  0
 13 14  1  0
 14 15  1  0
 15 16  1  0
 15 17  1  0
 15 18  1  0
 14 19  2  0
  9 20  1  0
 20 21  1  0
  2 22  1  0
 22 23  1  1
 22 24  1  0
 24 25  2  0
 25 26  1  0
 26 27  1  0
 26 28  1  0
 28 29  2  0
 29 30  1  0
 21  6  1  0
 29 24  1  0
 19 10  1  0
M  END
>  <ref_mols>  (1876) 
B0426a

>  <gnina_score>  (1876) 
5.28

>  <smina_score_min>  (1876) 
-5.995

>  <ref_pdb>  (1876) 
B0426a

>  <inspiration_score>  (1876) 
None

>  <inchikey>  (1876) 
GBQLYVLKQHRRHF-IBGZPJMESA-N

>  <tags>  (1876) 
BulkDock Fragalysis export,openbind_d68ev3c_c2_elabs_scored,openbind_d68ev3c_c2_elabs_scored_4.5plus,openbind_d68ev3c_c2_elabs,openbind_d68ev3c_c2_elabs_scored_5plus,syndirella_product,openbind_d68ev3c_c2_elabs_scored_top80percent,syndirella_placed

>  <smiles>  (1876) 
CN(CCCN1CCN(c2cccc(C(F)(F)F)c2)CC1)[C@@H](O)c1cn(C)nc1Br

>  <subsites>  (1876) 
None

>  <rmsd(smina/fragmenstein)>  (1876) 
1.411

>  <alias>  (1876) 
None

>  <energy_score>  (1876) 
-34.696487

>  <HIPPO Pose ID>  (1876) 
132048

>  <distance_score>  (1876) 
0.491417

>  <HIPPO Compound ID>  (1876) 
158006

>  <gnina_score_min>  (1876) 
5.378

>  <name>  (1876) 
P132048

>  <exports>  (1876) 
['/opt/xchem-fragalysis-2/maxwin/BulkDock/OUTPUTS/openbind_d68ev3c_c2_elabs_1LOTQJ3.sdf', '/opt/xchem-fragalysis-2/maxwin/BulkDock/OUTPUTS/openbind_d68ev3c_c2_elabs_1LSYI5W.sdf']

$$$$
P132049
     RDKit          3D

 30 32  0  0  0  0  0  0  0  0999 V2000
  -21.7387   -0.2515   10.2400 C   0  0  0  0  0  0  0  0  0  0  0  0
  -20.9002   -1.3425    9.5913 C   0  0  0  0  0  0  0  0  0  0  0  0
  -20.2880   -0.8954    8.3056 C   0  0  0  0  0  0  0  0  0  0  0  0
  -20.9305   -1.1308    7.1537 N   0  0  0  0  0  0  0  0  0  0  0  0
  -20.1731   -0.5134    6.2289 N   0  0  0  0  0  0  0  0  0  0  0  0
  -20.6201   -0.4412    4.8600 C   0  0  0  0  0  0  0  0  0  0  0  0
  -19.0305    0.0195    6.7356 C   0  0  0  0  0  0  0  0  0  0  0  0
  -19.0633   -0.1940    8.1001 C   0  0  0  0  0  0  0  0  0  0  0  0
  -18.0875    0.2670    9.1281 C   0  0  0  0  0  0  0  0  0  0  0  0
  -16.7423    0.2545    8.5625 N   0  0  0  0  0  0  0  0  0  0  0  0
  -15.7504    0.6306    9.5607 C   0  0  0  0  0  0  0  0  0  0  0  0
  -14.4033    0.9095    8.8899 C   0  0  0  0  0  0  0  0  0  0  0  0
  -13.3965    1.3612    9.9480 C   0  0  0  0  0  0  0  0  0  0  0  0
  -12.1220    2.0149    9.3967 C   0  0  0  0  0  0  0  0  0  0  0  0
  -11.2815    1.2075    8.5034 N   0  0  0  0  0  0  0  0  0  0  0  0
  -10.9548   -0.1138    9.0823 C   0  0  0  0  0  0  0  0  0  0  0  0
  -10.0002   -0.9351    8.1961 C   0  0  0  0  0  0  0  0  0  0  0  0
   -8.7516   -0.1986    7.9363 N   0  0  0  0  0  0  0  0  0  0  0  0
   -7.7082   -0.9270    7.3533 C   0  0  0  0  0  0  0  0  0  0  0  0
   -7.8849   -2.1715    6.7261 C   0  0  0  0  0  0  0  0  0  0  0  0
   -6.8078   -2.8935    6.2099 C   0  0  0  0  0  0  0  0  0  0  0  0
   -5.5217   -2.3846    6.3202 C   0  0  0  0  0  0  0  0  0  0  0  0
   -5.3052   -1.1537    6.9496 C   0  0  0  0  0  0  0  0  0  0  0  0
   -3.9080   -0.6335    7.0979 C   0  0  0  0  0  0  0  0  0  0  0  0
   -3.2095   -1.2556    8.0843 F   0  0  0  0  0  0  0  0  0  0  0  0
   -3.8362    0.7001    7.3662 F   0  0  0  0  0  0  0  0  0  0  0  0
   -3.1875   -0.8161    5.9567 F   0  0  0  0  0  0  0  0  0  0  0  0
   -6.3996   -0.4389    7.4559 C   0  0  0  0  0  0  0  0  0  0  0  0
   -9.0016    1.1383    7.3665 C   0  0  0  0  0  0  0  0  0  0  0  0
  -10.0055    1.9260    8.2448 C   0  0  0  0  0  0  0  0  0  0  0  0
  1  2  1  0
  2  3  1  0
  3  4  2  0
  4  5  1  0
  5  6  1  0
  5  7  1  0
  7  8  2  0
  8  9  1  0
  9 10  1  0
 10 11  1  0
 11 12  1  0
 12 13  1  0
 13 14  1  0
 14 15  1  0
 15 16  1  0
 16 17  1  0
 17 18  1  0
 18 19  1  0
 19 20  2  0
 20 21  1  0
 21 22  2  0
 22 23  1  0
 23 24  1  0
 24 25  1  0
 24 26  1  0
 24 27  1  0
 23 28  2  0
 18 29  1  0
 29 30  1  0
  8  3  1  0
 30 15  1  0
 28 19  1  0
M  END
>  <ref_mols>  (1877) 
B0426a

>  <gnina_score>  (1877) 
5.085

>  <smina_score_min>  (1877) 
-5.607

>  <ref_pdb>  (1877) 
B0426a

>  <inspiration_score>  (1877) 
None

>  <inchikey>  (1877) 
BFHFOLYQHJKMIC-UHFFFAOYSA-N

>  <tags>  (1877) 
BulkDock Fragalysis export,openbind_d68ev3c_c2_elabs_scored,openbind_d68ev3c_c2_elabs_scored_4.5plus,openbind_d68ev3c_c2_elabs,openbind_d68ev3c_c2_elabs_scored_5plus,syndirella_product,openbind_d68ev3c_c2_elabs_scored_top80percent,syndirella_placed

>  <smiles>  (1877) 
CCc1nn(C)cc1CNCCCCN1CCN(c2cccc(C(F)(F)F)c2)CC1

>  <subsites>  (1877) 
None

>  <rmsd(smina/fragmenstein)>  (1877) 
2.081

>  <alias>  (1877) 
None

>  <energy_score>  (1877) 
-51.009837

>  <HIPPO Pose ID>  (1877) 
132049

>  <distance_score>  (1877) 
0.60284

>  <HIPPO Compound ID>  (1877) 
158007

>  <gnina_score_min>  (1877) 
5.548

>  <name>  (1877) 
P132049

>  <exports>  (1877) 
['/opt/xchem-fragalysis-2/maxwin/BulkDock/OUTPUTS/openbind_d68ev3c_c2_elabs_1LOTQJ3.sdf', '/opt/xchem-fragalysis-2/maxwin/BulkDock/OUTPUTS/openbind_d68ev3c_c2_elabs_1LSYI5W.sdf']

$$$$
P132050
     RDKit          3D

 30 32  0  0  0  0  0  0  0  0999 V2000
  -19.4080   -1.6359   14.2028 C   0  0  0  0  0  0  0  0  0  0  0  0
  -18.2013   -0.7946   13.8148 C   0  0  0  0  0  0  0  0  0  0  0  0
  -18.4594    0.1652   12.7011 C   0  0  0  0  0  0  0  0  0  0  0  0
  -19.6380    0.7975   12.6145 N   0  0  0  0  0  0  0  0  0  0  0  0
  -19.4900    1.6215   11.5670 N   0  0  0  0  0  0  0  0  0  0  0  0
  -20.5846    2.4715   11.1693 C   0  0  0  0  0  0  0  0  0  0  0  0
  -18.2647    1.5425   10.9866 C   0  0  0  0  0  0  0  0  0  0  0  0
  -17.5527    0.5789   11.6791 C   0  0  0  0  0  0  0  0  0  0  0  0
  -16.1449    0.0902   11.4722 C   0  0  0  0  0  0  0  0  0  0  0  0
  -15.5304    0.7307   10.3100 N   0  0  0  0  0  0  0  0  0  0  0  0
  -15.9777    0.1416    9.0446 C   0  0  0  0  0  0  0  0  0  0  0  0
  -14.0643    0.7671   10.4009 C   0  0  0  0  0  0  0  0  0  0  0  0
  -13.4902    1.7151    9.3425 C   0  0  0  0  0  0  0  0  0  0  0  0
  -12.0025    1.9996    9.5489 C   0  0  0  0  0  0  0  0  0  0  0  0
  -11.1236    1.3632    8.5582 N   0  0  0  0  0  0  0  0  0  0  0  0
   -9.7363    1.8324    8.7762 C   0  0  0  0  0  0  0  0  0  0  0  0
   -8.7201    1.2048    7.8014 C   0  0  0  0  0  0  0  0  0  0  0  0
   -8.7622   -0.2704    7.8849 N   0  0  0  0  0  0  0  0  0  0  0  0
   -7.7006   -0.9837    7.3195 C   0  0  0  0  0  0  0  0  0  0  0  0
   -7.8705   -2.1826    6.6060 C   0  0  0  0  0  0  0  0  0  0  0  0
   -6.7902   -2.8932    6.0750 C   0  0  0  0  0  0  0  0  0  0  0  0
   -5.4995   -2.4155    6.2397 C   0  0  0  0  0  0  0  0  0  0  0  0
   -5.2814   -1.2391    6.9586 C   0  0  0  0  0  0  0  0  0  0  0  0
   -3.8878   -0.7225    7.1481 C   0  0  0  0  0  0  0  0  0  0  0  0
   -3.8273    0.6023    7.4631 F   0  0  0  0  0  0  0  0  0  0  0  0
   -3.1483   -0.8591    6.0131 F   0  0  0  0  0  0  0  0  0  0  0  0
   -3.2031   -1.3740    8.1237 F   0  0  0  0  0  0  0  0  0  0  0  0
   -6.3775   -0.5569    7.5071 C   0  0  0  0  0  0  0  0  0  0  0  0
  -10.1341   -0.7919    7.6978 C   0  0  0  0  0  0  0  0  0  0  0  0
  -11.1323   -0.1149    8.6642 C   0  0  0  0  0  0  0  0  0  0  0  0
  1  2  1  0
  2  3  1  0
  3  4  2  0
  4  5  1  0
  5  6  1  0
  5  7  1  0
  7  8  2  0
  8  9  1  0
  9 10  1  0
 10 11  1  0
 10 12  1  0
 12 13  1  0
 13 14  1  0
 14 15  1  0
 15 16  1  0
 16 17  1  0
 17 18  1  0
 18 19  1  0
 19 20  2  0
 20 21  1  0
 21 22  2  0
 22 23  1  0
 23 24  1  0
 24 25  1  0
 24 26  1  0
 24 27  1  0
 23 28  2  0
 18 29  1  0
 29 30  1  0
  8  3  1  0
 30 15  1  0
 28 19  1  0
M  END
>  <ref_mols>  (1878) 
B0426a

>  <gnina_score>  (1878) 
5.572

>  <smina_score_min>  (1878) 
-5.68

>  <ref_pdb>  (1878) 
B0426a

>  <inspiration_score>  (1878) 
None

>  <inchikey>  (1878) 
VMQVNQIWHHHCJF-UHFFFAOYSA-N

>  <tags>  (1878) 
BulkDock Fragalysis export,openbind_d68ev3c_c2_elabs_scored,openbind_d68ev3c_c2_elabs_scored_4.5plus,openbind_d68ev3c_c2_elabs,openbind_d68ev3c_c2_elabs_scored_5plus,syndirella_product,openbind_d68ev3c_c2_elabs_scored_top80percent,syndirella_placed

>  <smiles>  (1878) 
CCc1nn(C)cc1CN(C)CCCN1CCN(c2cccc(C(F)(F)F)c2)CC1

>  <subsites>  (1878) 
None

>  <rmsd(smina/fragmenstein)>  (1878) 
1.04

>  <alias>  (1878) 
None

>  <energy_score>  (1878) 
-70.540928

>  <HIPPO Pose ID>  (1878) 
132050

>  <distance_score>  (1878) 
0.819397

>  <HIPPO Compound ID>  (1878) 
158008

>  <gnina_score_min>  (1878) 
5.405

>  <name>  (1878) 
P132050

>  <exports>  (1878) 
['/opt/xchem-fragalysis-2/maxwin/BulkDock/OUTPUTS/openbind_d68ev3c_c2_elabs_1LOTQJ3.sdf', '/opt/xchem-fragalysis-2/maxwin/BulkDock/OUTPUTS/openbind_d68ev3c_c2_elabs_1LSYI5W.sdf']

$$$$
P132051
     RDKit          3D

 30 32  0  0  0  0  0  0  0  0999 V2000
  -14.6830    0.9108    5.2600 C   0  0  0  0  0  0  0  0  0  0  0  0
  -15.2459    2.1429    5.6969 O   0  0  0  0  0  0  0  0  0  0  0  0
  -16.1428    2.0719    6.6871 C   0  0  0  0  0  0  0  0  0  0  0  0
  -16.3565    1.2315    7.7728 C   0  0  0  0  0  0  0  0  0  0  0  0
  -15.5742    0.0403    8.2089 C   0  0  0  0  0  0  0  0  0  0  0  0
  -15.7673   -0.2544    9.6348 N   0  0  0  0  0  0  0  0  0  0  0  0
  -15.0303    0.6572   10.5098 C   0  0  0  0  0  0  0  0  0  0  0  0
  -13.5406    0.3296   10.6173 C   0  0  0  0  0  0  0  0  0  0  0  0
  -12.6424    1.5541   10.4515 C   0  0  0  0  0  0  0  0  0  0  0  0
  -12.3581    1.9955    9.0062 C   0  0  0  0  0  0  0  0  0  0  0  0
  -11.2462    1.3623    8.2834 N   0  0  0  0  0  0  0  0  0  0  0  0
   -9.9261    1.7283    8.8287 C   0  0  0  0  0  0  0  0  0  0  0  0
   -8.7550    1.1544    7.9950 C   0  0  0  0  0  0  0  0  0  0  0  0
   -8.8573   -0.3155    7.8248 N   0  0  0  0  0  0  0  0  0  0  0  0
   -7.7520   -1.0134    7.3140 C   0  0  0  0  0  0  0  0  0  0  0  0
   -7.8723   -2.2624    6.6751 C   0  0  0  0  0  0  0  0  0  0  0  0
   -6.7694   -2.9692    6.1850 C   0  0  0  0  0  0  0  0  0  0  0  0
   -5.4951   -2.4475    6.3278 C   0  0  0  0  0  0  0  0  0  0  0  0
   -5.3169   -1.2277    6.9804 C   0  0  0  0  0  0  0  0  0  0  0  0
   -3.9330   -0.6780    7.1587 C   0  0  0  0  0  0  0  0  0  0  0  0
   -3.2324   -1.3061    8.1395 F   0  0  0  0  0  0  0  0  0  0  0  0
   -3.8966    0.6504    7.4604 F   0  0  0  0  0  0  0  0  0  0  0  0
   -3.1921   -0.8142    6.0239 F   0  0  0  0  0  0  0  0  0  0  0  0
   -6.4390   -0.5393    7.4746 C   0  0  0  0  0  0  0  0  0  0  0  0
  -10.2052   -0.7331    7.3622 C   0  0  0  0  0  0  0  0  0  0  0  0
  -11.3212   -0.1066    8.2213 C   0  0  0  0  0  0  0  0  0  0  0  0
  -17.5354    1.7455    8.3736 C   0  0  0  0  0  0  0  0  0  0  0  0
  -18.0098    2.8318    7.7638 N   0  0  0  0  0  0  0  0  0  0  0  0
  -17.1450    3.0107    6.7487 N   0  0  0  0  0  0  0  0  0  0  0  0
  -17.3608    4.0846    5.8103 C   0  0  0  0  0  0  0  0  0  0  0  0
  1  2  1  0
  2  3  1  0
  3  4  2  0
  4  5  1  0
  5  6  1  0
  6  7  1  0
  7  8  1  0
  8  9  1  0
  9 10  1  0
 10 11  1  0
 11 12  1  0
 12 13  1  0
 13 14  1  0
 14 15  1  0
 15 16  2  0
 16 17  1  0
 17 18  2  0
 18 19  1  0
 19 20  1  0
 20 21  1  0
 20 22  1  0
 20 23  1  0
 19 24  2  0
 14 25  1  0
 25 26  1  0
  4 27  1  0
 27 28  2  0
 28 29  1  0
 29 30  1  0
 29  3  1  0
 26 11  1  0
 24 15  1  0
M  END
>  <ref_mols>  (1879) 
B0426a

>  <gnina_score>  (1879) 
5.653

>  <smina_score_min>  (1879) 
-5.424

>  <ref_pdb>  (1879) 
B0426a

>  <inspiration_score>  (1879) 
None

>  <inchikey>  (1879) 
IFQBBWYPKIJONB-UHFFFAOYSA-N

>  <tags>  (1879) 
BulkDock Fragalysis export,openbind_d68ev3c_c2_elabs_scored,openbind_d68ev3c_c2_elabs_scored_4.5plus,openbind_d68ev3c_c2_elabs,openbind_d68ev3c_c2_elabs_scored_5plus,syndirella_product,openbind_d68ev3c_c2_elabs_scored_top80percent,syndirella_placed

>  <smiles>  (1879) 
COc1c(CNCCCCN2CCN(c3cccc(C(F)(F)F)c3)CC2)cnn1C

>  <subsites>  (1879) 
None

>  <rmsd(smina/fragmenstein)>  (1879) 
1.524

>  <alias>  (1879) 
None

>  <energy_score>  (1879) 
-31.317384

>  <HIPPO Pose ID>  (1879) 
132051

>  <distance_score>  (1879) 
0.49461

>  <HIPPO Compound ID>  (1879) 
158009

>  <gnina_score_min>  (1879) 
5.576

>  <name>  (1879) 
P132051

>  <exports>  (1879) 
['/opt/xchem-fragalysis-2/maxwin/BulkDock/OUTPUTS/openbind_d68ev3c_c2_elabs_1LOTQJ3.sdf', '/opt/xchem-fragalysis-2/maxwin/BulkDock/OUTPUTS/openbind_d68ev3c_c2_elabs_1LSYI5W.sdf']

$$$$
P132052
     RDKit          3D

 30 32  0  0  0  0  0  0  0  0999 V2000
  -16.7725    3.7438    8.9080 C   0  0  0  0  0  0  0  0  0  0  0  0
  -15.8557    3.1588    7.9967 O   0  0  0  0  0  0  0  0  0  0  0  0
  -15.9661    1.8404    7.8011 C   0  0  0  0  0  0  0  0  0  0  0  0
  -16.2427    0.7348    8.6004 C   0  0  0  0  0  0  0  0  0  0  0  0
  -16.5403    0.6361   10.0540 C   0  0  0  0  0  0  0  0  0  0  0  0
  -15.3941    0.3187   10.9321 N   0  0  0  0  0  0  0  0  0  0  0  0
  -15.8777    0.3625   12.3190 C   0  0  0  0  0  0  0  0  0  0  0  0
  -14.2570    1.2465   10.7822 C   0  0  0  0  0  0  0  0  0  0  0  0
  -13.2891    0.7179    9.7369 C   0  0  0  0  0  0  0  0  0  0  0  0
  -12.0308    1.5771    9.6025 C   0  0  0  0  0  0  0  0  0  0  0  0
  -11.1266    1.1185    8.5290 N   0  0  0  0  0  0  0  0  0  0  0  0
  -11.0541   -0.3606    8.4748 C   0  0  0  0  0  0  0  0  0  0  0  0
  -10.0433   -0.9160    7.4700 C   0  0  0  0  0  0  0  0  0  0  0  0
   -8.7041   -0.3579    7.7262 N   0  0  0  0  0  0  0  0  0  0  0  0
   -7.6086   -1.0300    7.1912 C   0  0  0  0  0  0  0  0  0  0  0  0
   -7.7263   -2.2157    6.4420 C   0  0  0  0  0  0  0  0  0  0  0  0
   -6.6161   -2.9059    5.9550 C   0  0  0  0  0  0  0  0  0  0  0  0
   -5.3455   -2.4153    6.1971 C   0  0  0  0  0  0  0  0  0  0  0  0
   -5.1826   -1.2457    6.9429 C   0  0  0  0  0  0  0  0  0  0  0  0
   -3.8102   -0.7114    7.1972 C   0  0  0  0  0  0  0  0  0  0  0  0
   -3.1680   -1.3403    8.2142 F   0  0  0  0  0  0  0  0  0  0  0  0
   -3.0204   -0.8626    6.1009 F   0  0  0  0  0  0  0  0  0  0  0  0
   -3.7778    0.6190    7.4894 F   0  0  0  0  0  0  0  0  0  0  0  0
   -6.3083   -0.5845    7.4492 C   0  0  0  0  0  0  0  0  0  0  0  0
   -8.7192    1.1220    7.7408 C   0  0  0  0  0  0  0  0  0  0  0  0
   -9.7645    1.6488    8.7534 C   0  0  0  0  0  0  0  0  0  0  0  0
  -16.2485   -0.3486    7.6886 C   0  0  0  0  0  0  0  0  0  0  0  0
  -15.9641    0.0105    6.4397 N   0  0  0  0  0  0  0  0  0  0  0  0
  -15.6969    1.3233    6.5535 N   0  0  0  0  0  0  0  0  0  0  0  0
  -15.2049    2.0602    5.4151 C   0  0  0  0  0  0  0  0  0  0  0  0
  1  2  1  0
  2  3  1  0
  3  4  2  0
  4  5  1  0
  5  6  1  0
  6  7  1  0
  6  8  1  0
  8  9  1  0
  9 10  1  0
 10 11  1  0
 11 12  1  0
 12 13  1  0
 13 14  1  0
 14 15  1  0
 15 16  2  0
 16 17  1  0
 17 18  2  0
 18 19  1  0
 19 20  1  0
 20 21  1  0
 20 22  1  0
 20 23  1  0
 19 24  2  0
 14 25  1  0
 25 26  1  0
  4 27  1  0
 27 28  2  0
 28 29  1  0
 29 30  1  0
 29  3  1  0
 26 11  1  0
 24 15  1  0
M  END
>  <ref_mols>  (1880) 
B0426a

>  <gnina_score>  (1880) 
5.684

>  <smina_score_min>  (1880) 
-5.991

>  <ref_pdb>  (1880) 
B0426a

>  <inspiration_score>  (1880) 
None

>  <inchikey>  (1880) 
WDEVUGFTWPHVNQ-UHFFFAOYSA-N

>  <tags>  (1880) 
BulkDock Fragalysis export,openbind_d68ev3c_c2_elabs_scored,openbind_d68ev3c_c2_elabs_scored_4.5plus,openbind_d68ev3c_c2_elabs,openbind_d68ev3c_c2_elabs_scored_5plus,syndirella_product,openbind_d68ev3c_c2_elabs_scored_top80percent,syndirella_placed

>  <smiles>  (1880) 
COc1c(CN(C)CCCN2CCN(c3cccc(C(F)(F)F)c3)CC2)cnn1C

>  <subsites>  (1880) 
None

>  <rmsd(smina/fragmenstein)>  (1880) 
1.497

>  <alias>  (1880) 
None

>  <energy_score>  (1880) 
-43.203938

>  <HIPPO Pose ID>  (1880) 
132052

>  <distance_score>  (1880) 
0.67328

>  <HIPPO Compound ID>  (1880) 
158010

>  <gnina_score_min>  (1880) 
5.573

>  <name>  (1880) 
P132052

>  <exports>  (1880) 
['/opt/xchem-fragalysis-2/maxwin/BulkDock/OUTPUTS/openbind_d68ev3c_c2_elabs_1LOTQJ3.sdf', '/opt/xchem-fragalysis-2/maxwin/BulkDock/OUTPUTS/openbind_d68ev3c_c2_elabs_1LSYI5W.sdf']

$$$$
P132053
     RDKit          3D

 30 32  0  0  0  0  0  0  0  0999 V2000
  -18.0991    3.0021    5.3757 C   0  0  0  0  0  0  0  0  0  0  0  0
  -17.3717    2.2074    6.3044 O   0  0  0  0  0  0  0  0  0  0  0  0
  -18.1457    1.5169    7.1697 C   0  0  0  0  0  0  0  0  0  0  0  0
  -19.4771    1.5965    7.1207 N   0  0  0  0  0  0  0  0  0  0  0  0
  -19.8701    0.8033    8.1319 N   0  0  0  0  0  0  0  0  0  0  0  0
  -21.2771    0.6565    8.4121 C   0  0  0  0  0  0  0  0  0  0  0  0
  -18.8364    0.2118    8.7929 C   0  0  0  0  0  0  0  0  0  0  0  0
  -17.6740    0.6650    8.1928 C   0  0  0  0  0  0  0  0  0  0  0  0
  -16.2544    0.3370    8.5191 C   0  0  0  0  0  0  0  0  0  0  0  0
  -16.1027    0.4084    9.9696 N   0  0  0  0  0  0  0  0  0  0  0  0
  -14.8375   -0.1272   10.4399 C   0  0  0  0  0  0  0  0  0  0  0  0
  -13.7217    0.8907   10.6479 C   0  0  0  0  0  0  0  0  0  0  0  0
  -13.3812    1.6614    9.3733 C   0  0  0  0  0  0  0  0  0  0  0  0
  -11.9501    2.1959    9.3657 C   0  0  0  0  0  0  0  0  0  0  0  0
  -11.0621    1.4062    8.5023 N   0  0  0  0  0  0  0  0  0  0  0  0
   -9.7103    2.0056    8.4915 C   0  0  0  0  0  0  0  0  0  0  0  0
   -8.7181    1.2423    7.5871 C   0  0  0  0  0  0  0  0  0  0  0  0
   -8.6518   -0.1833    7.9666 N   0  0  0  0  0  0  0  0  0  0  0  0
   -7.6257   -0.9337    7.3821 C   0  0  0  0  0  0  0  0  0  0  0  0
   -7.8336   -2.1598    6.7276 C   0  0  0  0  0  0  0  0  0  0  0  0
   -6.7775   -2.8949    6.1853 C   0  0  0  0  0  0  0  0  0  0  0  0
   -5.4801   -2.4165    6.2909 C   0  0  0  0  0  0  0  0  0  0  0  0
   -5.2319   -1.2116    6.9539 C   0  0  0  0  0  0  0  0  0  0  0  0
   -3.8307   -0.7045    7.0881 C   0  0  0  0  0  0  0  0  0  0  0  0
   -3.7483    0.6244    7.3796 F   0  0  0  0  0  0  0  0  0  0  0  0
   -3.1193   -1.3468    8.0503 F   0  0  0  0  0  0  0  0  0  0  0  0
   -3.1349   -0.8666    5.9299 F   0  0  0  0  0  0  0  0  0  0  0  0
   -6.3025   -0.4941    7.4999 C   0  0  0  0  0  0  0  0  0  0  0  0
   -9.9816   -0.8140    8.0351 C   0  0  0  0  0  0  0  0  0  0  0  0
  -10.9380   -0.0063    8.9322 C   0  0  0  0  0  0  0  0  0  0  0  0
  1  2  1  0
  2  3  1  0
  3  4  2  0
  4  5  1  0
  5  6  1  0
  5  7  1  0
  7  8  2  0
  8  9  1  0
  9 10  1  0
 10 11  1  0
 11 12  1  0
 12 13  1  0
 13 14  1  0
 14 15  1  0
 15 16  1  0
 16 17  1  0
 17 18  1  0
 18 19  1  0
 19 20  2  0
 20 21  1  0
 21 22  2  0
 22 23  1  0
 23 24  1  0
 24 25  1  0
 24 26  1  0
 24 27  1  0
 23 28  2  0
 18 29  1  0
 29 30  1  0
  8  3  1  0
 30 15  1  0
 28 19  1  0
M  END
>  <ref_mols>  (1881) 
B0426a

>  <gnina_score>  (1881) 
5.343

>  <smina_score_min>  (1881) 
-5.624

>  <ref_pdb>  (1881) 
B0426a

>  <inspiration_score>  (1881) 
None

>  <inchikey>  (1881) 
MLQLUSSHJPDGGS-UHFFFAOYSA-N

>  <tags>  (1881) 
BulkDock Fragalysis export,openbind_d68ev3c_c2_elabs_scored,openbind_d68ev3c_c2_elabs_scored_4.5plus,openbind_d68ev3c_c2_elabs,openbind_d68ev3c_c2_elabs_scored_5plus,syndirella_product,openbind_d68ev3c_c2_elabs_scored_top80percent,syndirella_placed

>  <smiles>  (1881) 
COc1nn(C)cc1CNCCCCN1CCN(c2cccc(C(F)(F)F)c2)CC1

>  <subsites>  (1881) 
None

>  <rmsd(smina/fragmenstein)>  (1881) 
2.389

>  <alias>  (1881) 
None

>  <energy_score>  (1881) 
-66.625422

>  <HIPPO Pose ID>  (1881) 
132053

>  <distance_score>  (1881) 
0.610172

>  <HIPPO Compound ID>  (1881) 
158011

>  <gnina_score_min>  (1881) 
5.338

>  <name>  (1881) 
P132053

>  <exports>  (1881) 
['/opt/xchem-fragalysis-2/maxwin/BulkDock/OUTPUTS/openbind_d68ev3c_c2_elabs_1LOTQJ3.sdf', '/opt/xchem-fragalysis-2/maxwin/BulkDock/OUTPUTS/openbind_d68ev3c_c2_elabs_1LSYI5W.sdf']

$$$$
P132054
     RDKit          3D

 30 32  0  0  0  0  0  0  0  0999 V2000
  -16.4704    4.3034    7.5126 C   0  0  0  0  0  0  0  0  0  0  0  0
  -16.5672    3.2180    8.4275 O   0  0  0  0  0  0  0  0  0  0  0  0
  -16.2499    2.0169    7.8923 C   0  0  0  0  0  0  0  0  0  0  0  0
  -15.9246    1.9026    6.6058 N   0  0  0  0  0  0  0  0  0  0  0  0
  -15.6663    0.5897    6.4699 N   0  0  0  0  0  0  0  0  0  0  0  0
  -15.1916    0.0657    5.2129 C   0  0  0  0  0  0  0  0  0  0  0  0
  -15.8858   -0.1275    7.6109 C   0  0  0  0  0  0  0  0  0  0  0  0
  -16.2143    0.7873    8.5918 C   0  0  0  0  0  0  0  0  0  0  0  0
  -16.5237    0.5760   10.0276 C   0  0  0  0  0  0  0  0  0  0  0  0
  -15.3712    0.2951   10.9131 N   0  0  0  0  0  0  0  0  0  0  0  0
  -15.8739    0.3129   12.2944 C   0  0  0  0  0  0  0  0  0  0  0  0
  -14.2653    1.2672   10.7884 C   0  0  0  0  0  0  0  0  0  0  0  0
  -13.3078    0.8230    9.6933 C   0  0  0  0  0  0  0  0  0  0  0  0
  -11.9795    1.5754    9.6946 C   0  0  0  0  0  0  0  0  0  0  0  0
  -11.0894    1.1419    8.5968 N   0  0  0  0  0  0  0  0  0  0  0  0
  -11.0429   -0.3363    8.4995 C   0  0  0  0  0  0  0  0  0  0  0  0
  -10.0326   -0.8863    7.4905 C   0  0  0  0  0  0  0  0  0  0  0  0
   -8.6876   -0.3512    7.7579 N   0  0  0  0  0  0  0  0  0  0  0  0
   -7.5988   -1.0263    7.2137 C   0  0  0  0  0  0  0  0  0  0  0  0
   -7.7261   -2.2107    6.4636 C   0  0  0  0  0  0  0  0  0  0  0  0
   -6.6224   -2.9034    5.9648 C   0  0  0  0  0  0  0  0  0  0  0  0
   -5.3482   -2.4170    6.1957 C   0  0  0  0  0  0  0  0  0  0  0  0
   -5.1755   -1.2502    6.9430 C   0  0  0  0  0  0  0  0  0  0  0  0
   -3.8001   -0.7187    7.1867 C   0  0  0  0  0  0  0  0  0  0  0  0
   -3.0207   -0.8685    6.0829 F   0  0  0  0  0  0  0  0  0  0  0  0
   -3.1505   -1.3510    8.1967 F   0  0  0  0  0  0  0  0  0  0  0  0
   -3.7632    0.6109    7.4816 F   0  0  0  0  0  0  0  0  0  0  0  0
   -6.2945   -0.5872    7.4613 C   0  0  0  0  0  0  0  0  0  0  0  0
   -8.6850    1.1285    7.8093 C   0  0  0  0  0  0  0  0  0  0  0  0
   -9.7192    1.6406    8.8393 C   0  0  0  0  0  0  0  0  0  0  0  0
  1  2  1  0
  2  3  1  0
  3  4  2  0
  4  5  1  0
  5  6  1  0
  5  7  1  0
  7  8  2  0
  8  9  1  0
  9 10  1  0
 10 11  1  0
 10 12  1  0
 12 13  1  0
 13 14  1  0
 14 15  1  0
 15 16  1  0
 16 17  1  0
 17 18  1  0
 18 19  1  0
 19 20  2  0
 20 21  1  0
 21 22  2  0
 22 23  1  0
 23 24  1  0
 24 25  1  0
 24 26  1  0
 24 27  1  0
 23 28  2  0
 18 29  1  0
 29 30  1  0
  8  3  1  0
 30 15  1  0
 28 19  1  0
M  END
>  <ref_mols>  (1882) 
B0426a

>  <gnina_score>  (1882) 
5.633

>  <smina_score_min>  (1882) 
-5.603

>  <ref_pdb>  (1882) 
B0426a

>  <inspiration_score>  (1882) 
None

>  <inchikey>  (1882) 
VHCGZDDZZFDGQP-UHFFFAOYSA-N

>  <tags>  (1882) 
BulkDock Fragalysis export,openbind_d68ev3c_c2_elabs_scored,openbind_d68ev3c_c2_elabs_scored_4.5plus,openbind_d68ev3c_c2_elabs,openbind_d68ev3c_c2_elabs_scored_5plus,syndirella_product,openbind_d68ev3c_c2_elabs_scored_top80percent,syndirella_placed

>  <smiles>  (1882) 
COc1nn(C)cc1CN(C)CCCN1CCN(c2cccc(C(F)(F)F)c2)CC1

>  <subsites>  (1882) 
None

>  <rmsd(smina/fragmenstein)>  (1882) 
2.019

>  <alias>  (1882) 
None

>  <energy_score>  (1882) 
-69.241154

>  <HIPPO Pose ID>  (1882) 
132054

>  <distance_score>  (1882) 
0.666202

>  <HIPPO Compound ID>  (1882) 
158012

>  <gnina_score_min>  (1882) 
5.609

>  <name>  (1882) 
P132054

>  <exports>  (1882) 
['/opt/xchem-fragalysis-2/maxwin/BulkDock/OUTPUTS/openbind_d68ev3c_c2_elabs_1LOTQJ3.sdf', '/opt/xchem-fragalysis-2/maxwin/BulkDock/OUTPUTS/openbind_d68ev3c_c2_elabs_1LSYI5W.sdf']

$$$$
P132055
     RDKit          3D

 30 32  0  0  0  0  0  0  0  0999 V2000
  -16.4889    1.3814   13.5484 C   0  0  0  0  0  0  0  0  0  0  0  0
  -15.3347    2.2634   13.2373 C   0  0  0  0  0  0  0  0  0  0  0  0
  -15.3455    3.5290   13.6727 N   0  0  0  0  0  0  0  0  0  0  0  0
  -14.2072    4.0526   13.1797 N   0  0  0  0  0  0  0  0  0  0  0  0
  -13.9815    5.4756   13.2656 C   0  0  0  0  0  0  0  0  0  0  0  0
  -13.4297    3.1317   12.5394 C   0  0  0  0  0  0  0  0  0  0  0  0
  -11.6785    3.4473   11.8607 Br  0  0  0  0  0  0  0  0  0  0  0  0
  -14.1572    1.9572   12.4838 C   0  0  0  0  0  0  0  0  0  0  0  0
  -13.7962    0.6535   11.8476 C   0  0  0  0  0  0  0  0  0  0  0  0
  -14.9428    0.0563   11.1561 N   0  0  0  0  0  0  0  0  0  0  0  0
  -15.3171    0.7469    9.9235 C   0  0  0  0  0  0  0  0  0  0  0  0
  -14.5041    0.2939    8.7088 C   0  0  0  0  0  0  0  0  0  0  0  0
  -13.8319    1.4561    7.9735 C   0  0  0  0  0  0  0  0  0  0  0  0
  -12.4627    1.8885    8.5129 C   0  0  0  0  0  0  0  0  0  0  0  0
  -11.3106    1.2227    7.8918 N   0  0  0  0  0  0  0  0  0  0  0  0
  -11.3458   -0.2457    8.0056 C   0  0  0  0  0  0  0  0  0  0  0  0
  -10.1492   -0.9215    7.3186 C   0  0  0  0  0  0  0  0  0  0  0  0
   -8.8475   -0.4203    7.8126 N   0  0  0  0  0  0  0  0  0  0  0  0
   -7.7099   -1.0969    7.3287 C   0  0  0  0  0  0  0  0  0  0  0  0
   -7.7874   -2.3555    6.6984 C   0  0  0  0  0  0  0  0  0  0  0  0
   -6.6625   -3.0281    6.2169 C   0  0  0  0  0  0  0  0  0  0  0  0
   -5.4085   -2.4634    6.3662 C   0  0  0  0  0  0  0  0  0  0  0  0
   -5.2734   -1.2359    7.0167 C   0  0  0  0  0  0  0  0  0  0  0  0
   -3.9073   -0.6462    7.1940 C   0  0  0  0  0  0  0  0  0  0  0  0
   -3.9088    0.6867    7.4749 F   0  0  0  0  0  0  0  0  0  0  0  0
   -3.1615   -0.7809    6.0629 F   0  0  0  0  0  0  0  0  0  0  0  0
   -3.1946   -1.2417    8.1852 F   0  0  0  0  0  0  0  0  0  0  0  0
   -6.4169   -0.5793    7.5023 C   0  0  0  0  0  0  0  0  0  0  0  0
   -8.7891    1.0613    7.8687 C   0  0  0  0  0  0  0  0  0  0  0  0
  -10.0494    1.6791    8.5202 C   0  0  0  0  0  0  0  0  0  0  0  0
  1  2  1  0
  2  3  2  0
  3  4  1  0
  4  5  1  0
  4  6  1  0
  6  7  1  0
  6  8  2  0
  8  9  1  0
  9 10  1  0
 10 11  1  0
 11 12  1  0
 12 13  1  0
 13 14  1  0
 14 15  1  0
 15 16  1  0
 16 17  1  0
 17 18  1  0
 18 19  1  0
 19 20  2  0
 20 21  1  0
 21 22  2  0
 22 23  1  0
 23 24  1  0
 24 25  1  0
 24 26  1  0
 24 27  1  0
 23 28  2  0
 18 29  1  0
 29 30  1  0
  8  2  1  0
 30 15  1  0
 28 19  1  0
M  END
>  <ref_mols>  (1883) 
B0426a

>  <gnina_score>  (1883) 
5.903

>  <smina_score_min>  (1883) 
-6.202

>  <ref_pdb>  (1883) 
B0426a

>  <inspiration_score>  (1883) 
None

>  <inchikey>  (1883) 
IHCSZANDHYQADL-UHFFFAOYSA-N

>  <tags>  (1883) 
BulkDock Fragalysis export,openbind_d68ev3c_c2_elabs_scored,openbind_d68ev3c_c2_elabs_scored_4.5plus,openbind_d68ev3c_c2_elabs,openbind_d68ev3c_c2_elabs_scored_5plus,syndirella_product,openbind_d68ev3c_c2_elabs_scored_top80percent,syndirella_placed

>  <smiles>  (1883) 
Cc1nn(C)c(Br)c1CNCCCCN1CCN(c2cccc(C(F)(F)F)c2)CC1

>  <subsites>  (1883) 
None

>  <rmsd(smina/fragmenstein)>  (1883) 
0.636

>  <alias>  (1883) 
None

>  <energy_score>  (1883) 
-52.66782

>  <HIPPO Pose ID>  (1883) 
132055

>  <distance_score>  (1883) 
0.551912

>  <HIPPO Compound ID>  (1883) 
158013

>  <gnina_score_min>  (1883) 
5.75

>  <name>  (1883) 
P132055

>  <exports>  (1883) 
['/opt/xchem-fragalysis-2/maxwin/BulkDock/OUTPUTS/openbind_d68ev3c_c2_elabs_1LOTQJ3.sdf', '/opt/xchem-fragalysis-2/maxwin/BulkDock/OUTPUTS/openbind_d68ev3c_c2_elabs_1LSYI5W.sdf']

$$$$
P132056
     RDKit          3D

 30 32  0  0  0  0  0  0  0  0999 V2000
  -14.5350   -1.1210    6.6727 C   0  0  0  0  0  0  0  0  0  0  0  0
  -15.1845    0.2021    6.8597 C   0  0  0  0  0  0  0  0  0  0  0  0
  -15.1888    1.0694    5.8417 N   0  0  0  0  0  0  0  0  0  0  0  0
  -15.8709    2.1259    6.3092 N   0  0  0  0  0  0  0  0  0  0  0  0
  -16.0789    3.2646    5.4499 C   0  0  0  0  0  0  0  0  0  0  0  0
  -16.3128    1.9579    7.5883 C   0  0  0  0  0  0  0  0  0  0  0  0
  -17.3620    3.1842    8.5996 Br  0  0  0  0  0  0  0  0  0  0  0  0
  -15.8546    0.7244    8.0121 C   0  0  0  0  0  0  0  0  0  0  0  0
  -16.0678    0.0455    9.3198 C   0  0  0  0  0  0  0  0  0  0  0  0
  -15.4293    0.7222   10.4629 N   0  0  0  0  0  0  0  0  0  0  0  0
  -15.9732    0.1657   11.7012 C   0  0  0  0  0  0  0  0  0  0  0  0
  -13.9579    0.6331   10.4374 C   0  0  0  0  0  0  0  0  0  0  0  0
  -13.3686    1.8020    9.6429 C   0  0  0  0  0  0  0  0  0  0  0  0
  -11.8602    1.9694    9.8077 C   0  0  0  0  0  0  0  0  0  0  0  0
  -11.0489    1.3869    8.7290 N   0  0  0  0  0  0  0  0  0  0  0  0
   -9.6441    1.8087    8.9098 C   0  0  0  0  0  0  0  0  0  0  0  0
   -8.6884    1.2187    7.8561 C   0  0  0  0  0  0  0  0  0  0  0  0
   -8.7501   -0.2572    7.8831 N   0  0  0  0  0  0  0  0  0  0  0  0
   -7.7001   -0.9732    7.3081 C   0  0  0  0  0  0  0  0  0  0  0  0
   -7.8838   -2.1596    6.5791 C   0  0  0  0  0  0  0  0  0  0  0  0
   -6.8110   -2.8755    6.0394 C   0  0  0  0  0  0  0  0  0  0  0  0
   -5.5144   -2.4140    6.2078 C   0  0  0  0  0  0  0  0  0  0  0  0
   -5.2832   -1.2492    6.9407 C   0  0  0  0  0  0  0  0  0  0  0  0
   -3.8865   -0.7424    7.1323 C   0  0  0  0  0  0  0  0  0  0  0  0
   -3.2038   -1.4045    8.1024 F   0  0  0  0  0  0  0  0  0  0  0  0
   -3.1485   -0.8744    5.9955 F   0  0  0  0  0  0  0  0  0  0  0  0
   -3.8169    0.5799    7.4566 F   0  0  0  0  0  0  0  0  0  0  0  0
   -6.3717   -0.5653    7.5009 C   0  0  0  0  0  0  0  0  0  0  0  0
  -10.1366   -0.7407    7.6943 C   0  0  0  0  0  0  0  0  0  0  0  0
  -11.0955   -0.0926    8.7202 C   0  0  0  0  0  0  0  0  0  0  0  0
  1  2  1  0
  2  3  2  0
  3  4  1  0
  4  5  1  0
  4  6  1  0
  6  7  1  0
  6  8  2  0
  8  9  1  0
  9 10  1  0
 10 11  1  0
 10 12  1  0
 12 13  1  0
 13 14  1  0
 14 15  1  0
 15 16  1  0
 16 17  1  0
 17 18  1  0
 18 19  1  0
 19 20  2  0
 20 21  1  0
 21 22  2  0
 22 23  1  0
 23 24  1  0
 24 25  1  0
 24 26  1  0
 24 27  1  0
 23 28  2  0
 18 29  1  0
 29 30  1  0
  8  2  1  0
 30 15  1  0
 28 19  1  0
M  END
>  <ref_mols>  (1884) 
B0426a

>  <gnina_score>  (1884) 
5.811

>  <smina_score_min>  (1884) 
-5.519

>  <ref_pdb>  (1884) 
B0426a

>  <inspiration_score>  (1884) 
None

>  <inchikey>  (1884) 
QBKORYSANKONRQ-UHFFFAOYSA-N

>  <tags>  (1884) 
BulkDock Fragalysis export,openbind_d68ev3c_c2_elabs_scored,openbind_d68ev3c_c2_elabs_scored_4.5plus,openbind_d68ev3c_c2_elabs,openbind_d68ev3c_c2_elabs_scored_5plus,syndirella_product,openbind_d68ev3c_c2_elabs_scored_top80percent,syndirella_placed

>  <smiles>  (1884) 
Cc1nn(C)c(Br)c1CN(C)CCCN1CCN(c2cccc(C(F)(F)F)c2)CC1

>  <subsites>  (1884) 
None

>  <rmsd(smina/fragmenstein)>  (1884) 
1.518

>  <alias>  (1884) 
None

>  <energy_score>  (1884) 
-50.207737

>  <HIPPO Pose ID>  (1884) 
132056

>  <distance_score>  (1884) 
0.611765

>  <HIPPO Compound ID>  (1884) 
158014

>  <gnina_score_min>  (1884) 
5.753

>  <name>  (1884) 
P132056

>  <exports>  (1884) 
['/opt/xchem-fragalysis-2/maxwin/BulkDock/OUTPUTS/openbind_d68ev3c_c2_elabs_1LOTQJ3.sdf', '/opt/xchem-fragalysis-2/maxwin/BulkDock/OUTPUTS/openbind_d68ev3c_c2_elabs_1LSYI5W.sdf']

$$$$
P132057
     RDKit          3D

 30 32  0  0  0  0  0  0  0  0999 V2000
  -19.6332    2.8673    6.9866 C   0  0  0  0  0  0  0  0  0  0  0  0
  -18.2989    2.3950    7.2738 N   0  0  0  0  0  0  0  0  0  0  0  0
  -17.2559    3.2163    7.0514 N   0  0  0  0  0  0  0  0  0  0  0  0
  -16.1942    2.4481    7.2998 C   0  0  0  0  0  0  0  0  0  0  0  0
  -16.5441    1.1587    7.7574 C   0  0  0  0  0  0  0  0  0  0  0  0
  -15.6229    0.0356    8.0819 C   0  0  0  0  0  0  0  0  0  0  0  0
  -15.8115   -0.4254    9.4550 N   0  0  0  0  0  0  0  0  0  0  0  0
  -15.3039    0.4251   10.5226 C   0  0  0  0  0  0  0  0  0  0  0  0
  -13.7889    0.6228   10.5523 C   0  0  0  0  0  0  0  0  0  0  0  0
  -13.3388    1.8312    9.7330 C   0  0  0  0  0  0  0  0  0  0  0  0
  -11.8307    2.0625    9.7609 C   0  0  0  0  0  0  0  0  0  0  0  0
  -11.0695    1.4515    8.6577 N   0  0  0  0  0  0  0  0  0  0  0  0
   -9.6563    1.8774    8.7937 C   0  0  0  0  0  0  0  0  0  0  0  0
   -8.7120    1.2531    7.7510 C   0  0  0  0  0  0  0  0  0  0  0  0
   -8.7715   -0.2194    7.8361 N   0  0  0  0  0  0  0  0  0  0  0  0
   -7.7190   -0.9521    7.2868 C   0  0  0  0  0  0  0  0  0  0  0  0
   -7.9004   -2.1520    6.5802 C   0  0  0  0  0  0  0  0  0  0  0  0
   -6.8245   -2.8799    6.0626 C   0  0  0  0  0  0  0  0  0  0  0  0
   -5.5279   -2.4179    6.2328 C   0  0  0  0  0  0  0  0  0  0  0  0
   -5.2990   -1.2408    6.9466 C   0  0  0  0  0  0  0  0  0  0  0  0
   -3.9011   -0.7361    7.1404 C   0  0  0  0  0  0  0  0  0  0  0  0
   -3.1608   -0.8701    6.0054 F   0  0  0  0  0  0  0  0  0  0  0  0
   -3.8308    0.5864    7.4642 F   0  0  0  0  0  0  0  0  0  0  0  0
   -3.2219   -1.3985    8.1126 F   0  0  0  0  0  0  0  0  0  0  0  0
   -6.3909   -0.5437    7.4842 C   0  0  0  0  0  0  0  0  0  0  0  0
  -10.1559   -0.7104    7.6659 C   0  0  0  0  0  0  0  0  0  0  0  0
  -11.1156   -0.0305    8.6727 C   0  0  0  0  0  0  0  0  0  0  0  0
  -17.9335    1.1673    7.7632 C   0  0  0  0  0  0  0  0  0  0  0  0
  -18.8987    0.1216    8.1779 C   0  0  0  0  0  0  0  0  0  0  0  0
  -19.1484   -1.0678    6.8806 Cl  0  0  0  0  0  0  0  0  0  0  0  0
  1  2  1  0
  2  3  1  0
  3  4  2  0
  4  5  1  0
  5  6  1  0
  6  7  1  0
  7  8  1  0
  8  9  1  0
  9 10  1  0
 10 11  1  0
 11 12  1  0
 12 13  1  0
 13 14  1  0
 14 15  1  0
 15 16  1  0
 16 17  2  0
 17 18  1  0
 18 19  2  0
 19 20  1  0
 20 21  1  0
 21 22  1  0
 21 23  1  0
 21 24  1  0
 20 25  2  0
 15 26  1  0
 26 27  1  0
  5 28  2  0
 28 29  1  0
 29 30  1  0
 28  2  1  0
 27 12  1  0
 25 16  1  0
M  END
>  <ref_mols>  (1885) 
B0426a

>  <gnina_score>  (1885) 
5.549

>  <smina_score_min>  (1885) 
-5.341

>  <ref_pdb>  (1885) 
B0426a

>  <inspiration_score>  (1885) 
None

>  <inchikey>  (1885) 
WWCBHLFHUFBTST-UHFFFAOYSA-N

>  <tags>  (1885) 
BulkDock Fragalysis export,openbind_d68ev3c_c2_elabs_scored,openbind_d68ev3c_c2_elabs_scored_4.5plus,openbind_d68ev3c_c2_elabs,openbind_d68ev3c_c2_elabs_scored_5plus,syndirella_product,openbind_d68ev3c_c2_elabs_scored_top80percent,syndirella_placed

>  <smiles>  (1885) 
Cn1ncc(CNCCCCN2CCN(c3cccc(C(F)(F)F)c3)CC2)c1CCl

>  <subsites>  (1885) 
None

>  <rmsd(smina/fragmenstein)>  (1885) 
1.137

>  <alias>  (1885) 
None

>  <energy_score>  (1885) 
-36.549038

>  <HIPPO Pose ID>  (1885) 
132057

>  <distance_score>  (1885) 
0.541616

>  <HIPPO Compound ID>  (1885) 
158015

>  <gnina_score_min>  (1885) 
5.569

>  <name>  (1885) 
P132057

>  <exports>  (1885) 
['/opt/xchem-fragalysis-2/maxwin/BulkDock/OUTPUTS/openbind_d68ev3c_c2_elabs_1LOTQJ3.sdf', '/opt/xchem-fragalysis-2/maxwin/BulkDock/OUTPUTS/openbind_d68ev3c_c2_elabs_1LSYI5W.sdf']

$$$$
P132058
     RDKit          3D

 30 32  0  0  0  0  0  0  0  0999 V2000
  -15.9047    0.3749   11.4463 C   0  0  0  0  0  0  0  0  0  0  0  0
  -15.1722   -0.0683   10.2574 N   0  0  0  0  0  0  0  0  0  0  0  0
  -13.7634    0.3374   10.3272 C   0  0  0  0  0  0  0  0  0  0  0  0
  -13.3679    1.7051    9.7628 C   0  0  0  0  0  0  0  0  0  0  0  0
  -11.8572    1.9762    9.8184 C   0  0  0  0  0  0  0  0  0  0  0  0
  -11.0363    1.4628    8.7016 N   0  0  0  0  0  0  0  0  0  0  0  0
   -9.6272    1.8564    8.9265 C   0  0  0  0  0  0  0  0  0  0  0  0
   -8.6414    1.2919    7.8794 C   0  0  0  0  0  0  0  0  0  0  0  0
   -8.7214   -0.1843    7.8366 N   0  0  0  0  0  0  0  0  0  0  0  0
   -7.6678   -0.9143    7.2875 C   0  0  0  0  0  0  0  0  0  0  0  0
   -7.8503   -2.1186    6.5837 C   0  0  0  0  0  0  0  0  0  0  0  0
   -6.7798   -2.8579    6.0719 C   0  0  0  0  0  0  0  0  0  0  0  0
   -5.4830   -2.4035    6.2444 C   0  0  0  0  0  0  0  0  0  0  0  0
   -5.2521   -1.2224    6.9510 C   0  0  0  0  0  0  0  0  0  0  0  0
   -3.8532   -0.7244    7.1427 C   0  0  0  0  0  0  0  0  0  0  0  0
   -3.1784   -1.3823    8.1204 F   0  0  0  0  0  0  0  0  0  0  0  0
   -3.7752    0.6005    7.4538 F   0  0  0  0  0  0  0  0  0  0  0  0
   -3.1163   -0.8739    6.0082 F   0  0  0  0  0  0  0  0  0  0  0  0
   -6.3394   -0.5127    7.4817 C   0  0  0  0  0  0  0  0  0  0  0  0
  -10.1017   -0.6364    7.5793 C   0  0  0  0  0  0  0  0  0  0  0  0
  -11.0811   -0.0100    8.5877 C   0  0  0  0  0  0  0  0  0  0  0  0
  -15.9187    0.3320    9.0530 C   0  0  0  0  0  0  0  0  0  0  0  0
  -15.2626    0.1420    7.7126 C   0  0  0  0  0  0  0  0  0  0  0  0
  -14.3872   -0.8638    7.2484 C   0  0  0  0  0  0  0  0  0  0  0  0
  -14.0145   -0.7044    5.9774 N   0  0  0  0  0  0  0  0  0  0  0  0
  -14.5668    0.4720    5.6372 N   0  0  0  0  0  0  0  0  0  0  0  0
  -14.1678    1.0619    4.3816 C   0  0  0  0  0  0  0  0  0  0  0  0
  -15.4203    0.9627    6.5929 C   0  0  0  0  0  0  0  0  0  0  0  0
  -16.2776    2.1576    6.3815 C   0  0  0  0  0  0  0  0  0  0  0  0
  -15.4192    3.6370    6.8612 Cl  0  0  0  0  0  0  0  0  0  0  0  0
  1  2  1  0
  2  3  1  0
  3  4  1  0
  4  5  1  0
  5  6  1  0
  6  7  1  0
  7  8  1  0
  8  9  1  0
  9 10  1  0
 10 11  2  0
 11 12  1  0
 12 13  2  0
 13 14  1  0
 14 15  1  0
 15 16  1  0
 15 17  1  0
 15 18  1  0
 14 19  2  0
  9 20  1  0
 20 21  1  0
  2 22  1  0
 22 23  1  0
 23 24  1  0
 24 25  2  0
 25 26  1  0
 26 27  1  0
 26 28  1  0
 28 29  1  0
 29 30  1  0
 21  6  1  0
 28 23  2  0
 19 10  1  0
M  END
>  <ref_mols>  (1886) 
B0426a

>  <gnina_score>  (1886) 
5.822

>  <smina_score_min>  (1886) 
-5.377

>  <ref_pdb>  (1886) 
B0426a

>  <inspiration_score>  (1886) 
None

>  <inchikey>  (1886) 
XOKJOJGDYFTENS-UHFFFAOYSA-N

>  <tags>  (1886) 
BulkDock Fragalysis export,openbind_d68ev3c_c2_elabs_scored,openbind_d68ev3c_c2_elabs_scored_4.5plus,openbind_d68ev3c_c2_elabs,openbind_d68ev3c_c2_elabs_scored_5plus,syndirella_product,openbind_d68ev3c_c2_elabs_scored_top80percent,syndirella_placed

>  <smiles>  (1886) 
CN(CCCN1CCN(c2cccc(C(F)(F)F)c2)CC1)Cc1cnn(C)c1CCl

>  <subsites>  (1886) 
None

>  <rmsd(smina/fragmenstein)>  (1886) 
2.057

>  <alias>  (1886) 
None

>  <energy_score>  (1886) 
-51.611627

>  <HIPPO Pose ID>  (1886) 
132058

>  <distance_score>  (1886) 
0.55806

>  <HIPPO Compound ID>  (1886) 
158016

>  <gnina_score_min>  (1886) 
5.701

>  <name>  (1886) 
P132058

>  <exports>  (1886) 
['/opt/xchem-fragalysis-2/maxwin/BulkDock/OUTPUTS/openbind_d68ev3c_c2_elabs_1LOTQJ3.sdf', '/opt/xchem-fragalysis-2/maxwin/BulkDock/OUTPUTS/openbind_d68ev3c_c2_elabs_1LSYI5W.sdf']

$$$$
P132059
     RDKit          3D

 30 32  0  0  0  0  0  0  0  0999 V2000
  -13.5926    0.2937    1.2497 O   0  0  0  0  0  0  0  0  0  0  0  0
  -13.3616    0.1384    2.6500 C   0  0  0  0  0  0  0  0  0  0  0  0
  -14.3168   -0.8843    3.2453 C   0  0  0  0  0  0  0  0  0  0  0  0
  -14.3349   -0.8025    4.6888 N   0  0  0  0  0  0  0  0  0  0  0  0
  -15.3099   -0.2525    5.4750 C   0  0  0  0  0  0  0  0  0  0  0  0
  -14.8766   -0.3665    6.7822 C   0  0  0  0  0  0  0  0  0  0  0  0
  -15.5555    0.1159    8.0224 C   0  0  0  0  0  0  0  0  0  0  0  0
  -14.8696   -0.4208    9.1803 N   0  0  0  0  0  0  0  0  0  0  0  0
  -15.0661    0.2719   10.4301 C   0  0  0  0  0  0  0  0  0  0  0  0
  -13.7266    0.9025   10.8150 C   0  0  0  0  0  0  0  0  0  0  0  0
  -13.2777    1.9642    9.8001 C   0  0  0  0  0  0  0  0  0  0  0  0
  -11.7785    2.2597    9.8193 C   0  0  0  0  0  0  0  0  0  0  0  0
  -11.0164    1.5379    8.7870 N   0  0  0  0  0  0  0  0  0  0  0  0
   -9.6404    2.0727    8.7204 C   0  0  0  0  0  0  0  0  0  0  0  0
   -8.7298    1.3417    7.7082 C   0  0  0  0  0  0  0  0  0  0  0  0
   -8.6938   -0.1047    7.9992 N   0  0  0  0  0  0  0  0  0  0  0  0
   -7.6896   -0.8565    7.3854 C   0  0  0  0  0  0  0  0  0  0  0  0
   -7.9281   -2.0599    6.7017 C   0  0  0  0  0  0  0  0  0  0  0  0
   -6.8898   -2.8119    6.1453 C   0  0  0  0  0  0  0  0  0  0  0  0
   -5.5786   -2.3716    6.2586 C   0  0  0  0  0  0  0  0  0  0  0  0
   -5.2986   -1.1850    6.9418 C   0  0  0  0  0  0  0  0  0  0  0  0
   -3.8843   -0.7124    7.0843 C   0  0  0  0  0  0  0  0  0  0  0  0
   -3.1831   -0.8774    5.9282 F   0  0  0  0  0  0  0  0  0  0  0  0
   -3.1906   -1.3811    8.0427 F   0  0  0  0  0  0  0  0  0  0  0  0
   -3.7708    0.6111    7.3909 F   0  0  0  0  0  0  0  0  0  0  0  0
   -6.3531   -0.4539    7.5060 C   0  0  0  0  0  0  0  0  0  0  0  0
  -10.0528   -0.6812    8.0491 C   0  0  0  0  0  0  0  0  0  0  0  0
  -10.9326    0.0841    9.0613 C   0  0  0  0  0  0  0  0  0  0  0  0
  -13.6323   -1.0316    6.6499 C   0  0  0  0  0  0  0  0  0  0  0  0
  -13.2626   -1.2134    5.3824 N   0  0  0  0  0  0  0  0  0  0  0  0
  1  2  1  0
  2  3  1  0
  3  4  1  0
  4  5  1  0
  5  6  2  0
  6  7  1  0
  7  8  1  0
  8  9  1  0
  9 10  1  0
 10 11  1  0
 11 12  1  0
 12 13  1  0
 13 14  1  0
 14 15  1  0
 15 16  1  0
 16 17  1  0
 17 18  2  0
 18 19  1  0
 19 20  2  0
 20 21  1  0
 21 22  1  0
 22 23  1  0
 22 24  1  0
 22 25  1  0
 21 26  2  0
 16 27  1  0
 27 28  1  0
  6 29  1  0
 29 30  2  0
 30  4  1  0
 28 13  1  0
 26 17  1  0
M  END
>  <ref_mols>  (1887) 
B0426a

>  <gnina_score>  (1887) 
5.681

>  <smina_score_min>  (1887) 
-5.537

>  <ref_pdb>  (1887) 
B0426a

>  <inspiration_score>  (1887) 
None

>  <inchikey>  (1887) 
WPYJDPIFBZTYKV-UHFFFAOYSA-N

>  <tags>  (1887) 
BulkDock Fragalysis export,openbind_d68ev3c_c2_elabs_scored,openbind_d68ev3c_c2_elabs_scored_4.5plus,openbind_d68ev3c_c2_elabs,openbind_d68ev3c_c2_elabs_scored_5plus,syndirella_product,openbind_d68ev3c_c2_elabs_scored_top80percent,syndirella_placed

>  <smiles>  (1887) 
OCCn1cc(CNCCCCN2CCN(c3cccc(C(F)(F)F)c3)CC2)cn1

>  <subsites>  (1887) 
None

>  <rmsd(smina/fragmenstein)>  (1887) 
0.412

>  <alias>  (1887) 
None

>  <energy_score>  (1887) 
-48.187074

>  <HIPPO Pose ID>  (1887) 
132059

>  <distance_score>  (1887) 
0.608279

>  <HIPPO Compound ID>  (1887) 
158017

>  <gnina_score_min>  (1887) 
5.653

>  <name>  (1887) 
P132059

>  <exports>  (1887) 
['/opt/xchem-fragalysis-2/maxwin/BulkDock/OUTPUTS/openbind_d68ev3c_c2_elabs_1LOTQJ3.sdf', '/opt/xchem-fragalysis-2/maxwin/BulkDock/OUTPUTS/openbind_d68ev3c_c2_elabs_1LSYI5W.sdf']

$$$$
P132060
     RDKit          3D

 30 32  0  0  0  0  0  0  0  0999 V2000
  -16.0573    0.3091   12.1320 C   0  0  0  0  0  0  0  0  0  0  0  0
  -15.4205    0.2638   10.8099 N   0  0  0  0  0  0  0  0  0  0  0  0
  -14.2797    1.1994   10.7758 C   0  0  0  0  0  0  0  0  0  0  0  0
  -13.2025    0.6284    9.8706 C   0  0  0  0  0  0  0  0  0  0  0  0
  -12.0390    1.5844    9.6040 C   0  0  0  0  0  0  0  0  0  0  0  0
  -11.1293    1.1124    8.5379 N   0  0  0  0  0  0  0  0  0  0  0  0
  -11.0288   -0.3673    8.5067 C   0  0  0  0  0  0  0  0  0  0  0  0
  -10.0326   -0.9167    7.4860 C   0  0  0  0  0  0  0  0  0  0  0  0
   -8.6983   -0.3421    7.7205 N   0  0  0  0  0  0  0  0  0  0  0  0
   -7.6038   -1.0126    7.1823 C   0  0  0  0  0  0  0  0  0  0  0  0
   -7.7228   -2.1952    6.4279 C   0  0  0  0  0  0  0  0  0  0  0  0
   -6.6134   -2.8886    5.9444 C   0  0  0  0  0  0  0  0  0  0  0  0
   -5.3424   -2.4033    6.1943 C   0  0  0  0  0  0  0  0  0  0  0  0
   -5.1789   -1.2346    6.9419 C   0  0  0  0  0  0  0  0  0  0  0  0
   -3.8058   -0.7058    7.2026 C   0  0  0  0  0  0  0  0  0  0  0  0
   -3.0104   -0.8642    6.1117 F   0  0  0  0  0  0  0  0  0  0  0  0
   -3.7699    0.6254    7.4905 F   0  0  0  0  0  0  0  0  0  0  0  0
   -3.1727   -1.3340    8.2255 F   0  0  0  0  0  0  0  0  0  0  0  0
   -6.3041   -0.5695    7.4443 C   0  0  0  0  0  0  0  0  0  0  0  0
   -8.7258    1.1371    7.7234 C   0  0  0  0  0  0  0  0  0  0  0  0
   -9.7713    1.6657    8.7380 C   0  0  0  0  0  0  0  0  0  0  0  0
  -16.4584    0.5763    9.7999 C   0  0  0  0  0  0  0  0  0  0  0  0
  -15.9857    0.6402    8.3880 C   0  0  0  0  0  0  0  0  0  0  0  0
  -15.9511   -0.4009    7.4319 C   0  0  0  0  0  0  0  0  0  0  0  0
  -15.4854   -0.0066    6.2445 N   0  0  0  0  0  0  0  0  0  0  0  0
  -15.1749    1.2886    6.4449 N   0  0  0  0  0  0  0  0  0  0  0  0
  -14.4935    2.0461    5.4095 C   0  0  0  0  0  0  0  0  0  0  0  0
  -13.2540    1.3269    4.8859 C   0  0  0  0  0  0  0  0  0  0  0  0
  -13.5986    0.2674    3.9940 O   0  0  0  0  0  0  0  0  0  0  0  0
  -15.5363    1.7421    7.6815 C   0  0  0  0  0  0  0  0  0  0  0  0
  1  2  1  0
  2  3  1  0
  3  4  1  0
  4  5  1  0
  5  6  1  0
  6  7  1  0
  7  8  1  0
  8  9  1  0
  9 10  1  0
 10 11  2  0
 11 12  1  0
 12 13  2  0
 13 14  1  0
 14 15  1  0
 15 16  1  0
 15 17  1  0
 15 18  1  0
 14 19  2  0
  9 20  1  0
 20 21  1  0
  2 22  1  0
 22 23  1  0
 23 24  1  0
 24 25  2  0
 25 26  1  0
 26 27  1  0
 27 28  1  0
 28 29  1  0
 26 30  1  0
 21  6  1  0
 30 23  2  0
 19 10  1  0
M  END
>  <ref_mols>  (1888) 
B0426a

>  <gnina_score>  (1888) 
5.497

>  <smina_score_min>  (1888) 
-5.401

>  <ref_pdb>  (1888) 
B0426a

>  <inspiration_score>  (1888) 
None

>  <inchikey>  (1888) 
XWQJYVDOLWXFEU-UHFFFAOYSA-N

>  <tags>  (1888) 
BulkDock Fragalysis export,openbind_d68ev3c_c2_elabs_scored,openbind_d68ev3c_c2_elabs_scored_4.5plus,openbind_d68ev3c_c2_elabs,openbind_d68ev3c_c2_elabs_scored_5plus,syndirella_product,openbind_d68ev3c_c2_elabs_scored_top80percent,syndirella_placed

>  <smiles>  (1888) 
CN(CCCN1CCN(c2cccc(C(F)(F)F)c2)CC1)Cc1cnn(CCO)c1

>  <subsites>  (1888) 
None

>  <rmsd(smina/fragmenstein)>  (1888) 
0.718

>  <alias>  (1888) 
None

>  <energy_score>  (1888) 
-68.585192

>  <HIPPO Pose ID>  (1888) 
132060

>  <distance_score>  (1888) 
0.63927

>  <HIPPO Compound ID>  (1888) 
158018

>  <gnina_score_min>  (1888) 
5.555

>  <name>  (1888) 
P132060

>  <exports>  (1888) 
['/opt/xchem-fragalysis-2/maxwin/BulkDock/OUTPUTS/openbind_d68ev3c_c2_elabs_1LOTQJ3.sdf', '/opt/xchem-fragalysis-2/maxwin/BulkDock/OUTPUTS/openbind_d68ev3c_c2_elabs_1LSYI5W.sdf']

$$$$
P132061
     RDKit          3D

 30 32  0  0  0  0  0  0  0  0999 V2000
  -15.7455    0.7193   12.1647 C   0  0  0  0  0  0  0  0  0  0  0  0
  -15.2699    0.8880   10.7958 N   0  0  0  0  0  0  0  0  0  0  0  0
  -13.8265    1.1699   10.7747 C   0  0  0  0  0  0  0  0  0  0  0  0
  -13.3824    1.7465    9.4278 C   0  0  0  0  0  0  0  0  0  0  0  0
  -11.9103    2.1581    9.4569 C   0  0  0  0  0  0  0  0  0  0  0  0
  -11.0708    1.4184    8.5052 N   0  0  0  0  0  0  0  0  0  0  0  0
   -9.6988    1.9713    8.5373 C   0  0  0  0  0  0  0  0  0  0  0  0
   -8.7236    1.2384    7.5941 C   0  0  0  0  0  0  0  0  0  0  0  0
   -8.6940   -0.2051    7.9024 N   0  0  0  0  0  0  0  0  0  0  0  0
   -7.6555   -0.9483    7.3351 C   0  0  0  0  0  0  0  0  0  0  0  0
   -7.8501   -2.1647    6.6602 C   0  0  0  0  0  0  0  0  0  0  0  0
   -6.7831   -2.8956    6.1330 C   0  0  0  0  0  0  0  0  0  0  0  0
   -5.4871   -2.4208    6.2693 C   0  0  0  0  0  0  0  0  0  0  0  0
   -5.2505   -1.2248    6.9517 C   0  0  0  0  0  0  0  0  0  0  0  0
   -3.8521   -0.7163    7.1130 C   0  0  0  0  0  0  0  0  0  0  0  0
   -3.7754    0.6103    7.4163 F   0  0  0  0  0  0  0  0  0  0  0  0
   -3.1540   -1.3658    8.0805 F   0  0  0  0  0  0  0  0  0  0  0  0
   -3.1362   -0.8677    5.9650 F   0  0  0  0  0  0  0  0  0  0  0  0
   -6.3321   -0.5162    7.4890 C   0  0  0  0  0  0  0  0  0  0  0  0
  -10.0453   -0.8009    7.8937 C   0  0  0  0  0  0  0  0  0  0  0  0
  -10.9984   -0.0284    8.8293 C   0  0  0  0  0  0  0  0  0  0  0  0
  -15.6041   -0.2722    9.9639 C   0  0  0  0  0  0  0  0  0  0  0  0
  -16.0576    0.1585    8.6113 C   0  0  0  0  0  0  0  0  0  0  0  0
  -15.7078   -0.4291    7.3720 C   0  0  0  0  0  0  0  0  0  0  0  0
  -16.3213    0.1413    6.3341 N   0  0  0  0  0  0  0  0  0  0  0  0
  -17.0223    1.1562    6.8932 N   0  0  0  0  0  0  0  0  0  0  0  0
  -17.7821    2.0867    6.0658 C   0  0  0  0  0  0  0  0  0  0  0  0
  -17.9031    3.3050    6.6719 F   0  0  0  0  0  0  0  0  0  0  0  0
  -19.0551    1.6414    5.8676 F   0  0  0  0  0  0  0  0  0  0  0  0
  -16.9300    1.1704    8.2597 C   0  0  0  0  0  0  0  0  0  0  0  0
  1  2  1  0
  2  3  1  0
  3  4  1  0
  4  5  1  0
  5  6  1  0
  6  7  1  0
  7  8  1  0
  8  9  1  0
  9 10  1  0
 10 11  2  0
 11 12  1  0
 12 13  2  0
 13 14  1  0
 14 15  1  0
 15 16  1  0
 15 17  1  0
 15 18  1  0
 14 19  2  0
  9 20  1  0
 20 21  1  0
  2 22  1  0
 22 23  1  0
 23 24  1  0
 24 25  2  0
 25 26  1  0
 26 27  1  0
 27 28  1  0
 27 29  1  0
 26 30  1  0
 21  6  1  0
 30 23  2  0
 19 10  1  0
M  END
>  <ref_mols>  (1889) 
B0426a

>  <gnina_score>  (1889) 
5.589

>  <smina_score_min>  (1889) 
-5.502

>  <ref_pdb>  (1889) 
B0426a

>  <inspiration_score>  (1889) 
None

>  <inchikey>  (1889) 
QFTPCZCDWGCMPF-UHFFFAOYSA-N

>  <tags>  (1889) 
BulkDock Fragalysis export,openbind_d68ev3c_c2_elabs_scored,openbind_d68ev3c_c2_elabs_scored_4.5plus,openbind_d68ev3c_c2_elabs,openbind_d68ev3c_c2_elabs_scored_5plus,syndirella_product,openbind_d68ev3c_c2_elabs_scored_top80percent,syndirella_placed

>  <smiles>  (1889) 
CN(CCCN1CCN(c2cccc(C(F)(F)F)c2)CC1)Cc1cnn(C(F)F)c1

>  <subsites>  (1889) 
None

>  <rmsd(smina/fragmenstein)>  (1889) 
1.58

>  <alias>  (1889) 
None

>  <energy_score>  (1889) 
-52.083101

>  <HIPPO Pose ID>  (1889) 
132061

>  <distance_score>  (1889) 
0.607822

>  <HIPPO Compound ID>  (1889) 
158019

>  <gnina_score_min>  (1889) 
5.431

>  <name>  (1889) 
P132061

>  <exports>  (1889) 
['/opt/xchem-fragalysis-2/maxwin/BulkDock/OUTPUTS/openbind_d68ev3c_c2_elabs_1LOTQJ3.sdf', '/opt/xchem-fragalysis-2/maxwin/BulkDock/OUTPUTS/openbind_d68ev3c_c2_elabs_1LSYI5W.sdf']

$$$$
P132062
     RDKit          3D

 30 32  0  0  0  0  0  0  0  0999 V2000
  -17.0478    3.2786    9.1628 C   0  0  0  0  0  0  0  0  0  0  0  0
  -16.6247    2.4279    8.0201 C   0  0  0  0  0  0  0  0  0  0  0  0
  -16.1964    1.1047    7.9725 C   0  0  0  0  0  0  0  0  0  0  0  0
  -16.0988    0.0667    9.0575 C   0  0  2  0  0  0  0  0  0  0  0  0
  -17.4320   -0.3869    9.2832 O   0  0  0  0  0  0  0  0  0  0  0  0
  -15.5246    0.5990   10.3071 N   0  0  0  0  0  0  0  0  0  0  0  0
  -15.9596   -0.1980   11.4595 C   0  0  0  0  0  0  0  0  0  0  0  0
  -14.0433    0.6098   10.2742 C   0  0  0  0  0  0  0  0  0  0  0  0
  -13.4783    1.7119    9.3763 C   0  0  0  0  0  0  0  0  0  0  0  0
  -11.9847    1.9609    9.5887 C   0  0  0  0  0  0  0  0  0  0  0  0
  -11.1111    1.3542    8.5759 N   0  0  0  0  0  0  0  0  0  0  0  0
  -11.1505   -0.1267    8.6010 C   0  0  0  0  0  0  0  0  0  0  0  0
  -10.1402   -0.7863    7.6344 C   0  0  0  0  0  0  0  0  0  0  0  0
   -8.7641   -0.2924    7.8716 N   0  0  0  0  0  0  0  0  0  0  0  0
   -7.6992   -1.0012    7.3072 C   0  0  0  0  0  0  0  0  0  0  0  0
   -7.8656   -2.1920    6.5800 C   0  0  0  0  0  0  0  0  0  0  0  0
   -6.7829   -2.8970    6.0463 C   0  0  0  0  0  0  0  0  0  0  0  0
   -5.4927   -2.4212    6.2204 C   0  0  0  0  0  0  0  0  0  0  0  0
   -5.2778   -1.2533    6.9532 C   0  0  0  0  0  0  0  0  0  0  0  0
   -3.8864   -0.7341    7.1501 C   0  0  0  0  0  0  0  0  0  0  0  0
   -3.1421   -0.8637    6.0174 F   0  0  0  0  0  0  0  0  0  0  0  0
   -3.2032   -1.3872    8.1256 F   0  0  0  0  0  0  0  0  0  0  0  0
   -3.8303    0.5899    7.4706 F   0  0  0  0  0  0  0  0  0  0  0  0
   -6.3761   -0.5794    7.5074 C   0  0  0  0  0  0  0  0  0  0  0  0
   -8.7045    1.1838    7.8365 C   0  0  0  0  0  0  0  0  0  0  0  0
   -9.7183    1.7864    8.8275 C   0  0  0  0  0  0  0  0  0  0  0  0
  -15.9870    0.8695    6.5873 C   0  0  0  0  0  0  0  0  0  0  0  0
  -16.2669    1.9324    5.8241 N   0  0  0  0  0  0  0  0  0  0  0  0
  -16.5771    2.8847    6.7266 N   0  0  0  0  0  0  0  0  0  0  0  0
  -16.8629    4.2232    6.2644 C   0  0  0  0  0  0  0  0  0  0  0  0
  1  2  1  0
  2  3  2  0
  3  4  1  0
  4  5  1  1
  4  6  1  0
  6  7  1  0
  6  8  1  0
  8  9  1  0
  9 10  1  0
 10 11  1  0
 11 12  1  0
 12 13  1  0
 13 14  1  0
 14 15  1  0
 15 16  2  0
 16 17  1  0
 17 18  2  0
 18 19  1  0
 19 20  1  0
 20 21  1  0
 20 22  1  0
 20 23  1  0
 19 24  2  0
 14 25  1  0
 25 26  1  0
  3 27  1  0
 27 28  2  0
 28 29  1  0
 29 30  1  0
 29  2  1  0
 26 11  1  0
 24 15  1  0
M  END
>  <ref_mols>  (1890) 
B0426a

>  <gnina_score>  (1890) 
5.481

>  <smina_score_min>  (1890) 
-5.86

>  <ref_pdb>  (1890) 
B0426a

>  <inspiration_score>  (1890) 
None

>  <inchikey>  (1890) 
PVGRBXZJLISRLI-FQEVSTJZSA-N

>  <tags>  (1890) 
BulkDock Fragalysis export,openbind_d68ev3c_c2_elabs_scored,openbind_d68ev3c_c2_elabs_scored_4.5plus,openbind_d68ev3c_c2_elabs,openbind_d68ev3c_c2_elabs_scored_5plus,syndirella_product,openbind_d68ev3c_c2_elabs_scored_top80percent,syndirella_placed

>  <smiles>  (1890) 
Cc1c([C@H](O)N(C)CCCN2CCN(c3cccc(C(F)(F)F)c3)CC2)cnn1C

>  <subsites>  (1890) 
None

>  <rmsd(smina/fragmenstein)>  (1890) 
0.784

>  <alias>  (1890) 
None

>  <energy_score>  (1890) 
-49.00063

>  <HIPPO Pose ID>  (1890) 
132062

>  <distance_score>  (1890) 
0.649347

>  <HIPPO Compound ID>  (1890) 
158020

>  <gnina_score_min>  (1890) 
5.46

>  <name>  (1890) 
P132062

>  <exports>  (1890) 
['/opt/xchem-fragalysis-2/maxwin/BulkDock/OUTPUTS/openbind_d68ev3c_c2_elabs_1LOTQJ3.sdf', '/opt/xchem-fragalysis-2/maxwin/BulkDock/OUTPUTS/openbind_d68ev3c_c2_elabs_1LSYI5W.sdf']

$$$$
P138671
     RDKit          3D

 23 24  0  0  0  0  0  0  0  0999 V2000
   -6.1576    2.3821    3.5793 C   0  0  0  0  0  0  0  0  0  0  0  0
   -5.4783    2.0927    4.8925 C   0  0  0  0  0  0  0  0  0  0  0  0
   -4.8780    3.1671    5.5660 C   0  0  0  0  0  0  0  0  0  0  0  0
   -4.2530    2.9765    6.7910 C   0  0  0  0  0  0  0  0  0  0  0  0
   -4.1882    1.7009    7.3401 C   0  0  0  0  0  0  0  0  0  0  0  0
   -4.7348    0.5871    6.6767 C   0  0  0  0  0  0  0  0  0  0  0  0
   -4.5279   -0.7739    7.2910 C   0  0  0  0  0  0  0  0  0  0  0  0
   -4.3332   -1.7745    6.3883 F   0  0  0  0  0  0  0  0  0  0  0  0
   -5.5410   -1.1576    8.1096 F   0  0  0  0  0  0  0  0  0  0  0  0
   -3.4021   -0.8032    8.0689 F   0  0  0  0  0  0  0  0  0  0  0  0
   -5.4185    0.7942    5.4636 C   0  0  0  0  0  0  0  0  0  0  0  0
   -6.1307   -0.3341    4.7763 C   0  0  0  0  0  0  0  0  0  0  0  0
   -5.9945   -0.4251    3.5868 O   0  0  0  0  0  0  0  0  0  0  0  0
   -6.9488   -1.0790    5.6763 N   0  0  0  0  0  0  0  0  0  0  0  0
   -7.8361   -2.3179    5.4382 C   0  0  2  0  0  0  0  0  0  0  0  0
   -8.0660   -2.7162    3.9578 C   0  0  0  0  0  0  0  0  0  0  0  0
   -8.8615   -2.8937    6.4919 C   0  0  2  0  0  0  0  0  0  0  0  0
  -10.1845   -3.3259    5.8562 C   0  0  0  0  0  0  0  0  0  0  0  0
   -9.1275   -1.9419    7.5288 N   0  0  0  0  0  0  0  0  0  0  0  0
   -9.1666   -0.6436    7.1191 C   0  0  0  0  0  0  0  0  0  0  0  0
   -9.8651    0.1977    7.6714 O   0  0  0  0  0  0  0  0  0  0  0  0
   -8.3331   -0.3868    5.8342 C   0  0  2  0  0  0  0  0  0  0  0  0
   -9.1872    0.0201    4.6199 C   0  0  0  0  0  0  0  0  0  0  0  0
  1  2  1  0
  2  3  2  0
  3  4  1  0
  4  5  2  0
  5  6  1  0
  6  7  1  0
  7  8  1  0
  7  9  1  0
  7 10  1  0
  6 11  2  0
 11 12  1  0
 12 13  2  0
 12 14  1  0
 14 15  1  0
 15 16  1  6
 15 17  1  0
 17 18  1  6
 17 19  1  0
 19 20  1  0
 20 21  2  0
 20 22  1  0
 22 23  1  6
 11  2  1  0
 22 14  1  0
M  END
>  <ref_mols>  (1891) 
7gpj-a

>  <gnina_score>  (1891) 
4.976

>  <smina_score_min>  (1891) 
-5.388

>  <ref_pdb>  (1891) 
7gpj-a

>  <inspiration_score>  (1891) 
None

>  <inchikey>  (1891) 
JGZIUOBCWMQAKD-AXFHLTTASA-N

>  <tags>  (1891) 
BulkDock Fragalysis export,openbind_d68ev3c_c2_elabs_scored,openbind_d68ev3c_c2_elabs_scored_4.5plus,openbind_d68ev3c_c2_elabs,openbind_d68ev3c_c2_elabs_scored_5plus,syndirella_product,openbind_d68ev3c_c2_elabs_scored_top80percent,syndirella_placed

>  <smiles>  (1891) 
Cc1cccc(C(F)(F)F)c1C(=O)N1[C@H](C)[C@H](C)NC(=O)[C@@H]1C

>  <subsites>  (1891) 
None

>  <rmsd(smina/fragmenstein)>  (1891) 
0.645

>  <alias>  (1891) 
None

>  <energy_score>  (1891) 
-3.693424

>  <HIPPO Pose ID>  (1891) 
138671

>  <distance_score>  (1891) 
1.371269

>  <HIPPO Compound ID>  (1891) 
161349

>  <gnina_score_min>  (1891) 
5.156

>  <name>  (1891) 
P138671

>  <exports>  (1891) 
['/opt/xchem-fragalysis-2/maxwin/BulkDock/OUTPUTS/openbind_d68ev3c_c2_elabs_1LOTQJ3.sdf', '/opt/xchem-fragalysis-2/maxwin/BulkDock/OUTPUTS/openbind_d68ev3c_c2_elabs_1LSYI5W.sdf']

$$$$
P138672
     RDKit          3D

 23 25  0  0  0  0  0  0  0  0999 V2000
   -9.4994   -0.5754    8.0697 O   0  0  0  0  0  0  0  0  0  0  0  0
   -8.9541   -1.4245    7.3739 C   0  0  0  0  0  0  0  0  0  0  0  0
   -9.0507   -2.7559    7.6393 N   0  0  0  0  0  0  0  0  0  0  0  0
   -8.1078   -3.5994    6.9897 C   0  0  0  0  0  0  0  0  0  0  0  0
   -7.6158   -2.9611    5.6742 C   0  0  1  0  0  0  0  0  0  0  0  0
   -8.5465   -3.2302    4.4582 C   0  0  0  0  0  0  0  0  0  0  0  0
   -9.1487   -1.9941    3.8433 C   0  0  0  0  0  0  0  0  0  0  0  0
   -9.2212   -0.8944    4.8660 C   0  0  0  0  0  0  0  0  0  0  0  0
   -8.2298   -1.1067    6.0276 C   0  0  2  0  0  0  0  0  0  0  0  0
   -6.8138   -1.6555    5.7273 N   0  0  0  0  0  0  0  0  0  0  0  0
   -6.1479   -0.8722    4.6345 C   0  0  0  0  0  0  0  0  0  0  0  0
   -6.1532   -1.0346    3.4709 O   0  0  0  0  0  0  0  0  0  0  0  0
   -5.4544    0.3641    5.1302 C   0  0  0  0  0  0  0  0  0  0  0  0
   -5.5444    1.4468    4.2239 C   0  0  0  0  0  0  0  0  0  0  0  0
   -5.0778    2.7167    4.5489 C   0  0  0  0  0  0  0  0  0  0  0  0
   -4.5257    2.9294    5.7996 C   0  0  0  0  0  0  0  0  0  0  0  0
   -3.8996    4.6454    6.2783 Br  0  0  0  0  0  0  0  0  0  0  0  0
   -4.4179    1.8770    6.7071 C   0  0  0  0  0  0  0  0  0  0  0  0
   -4.8511    0.5683    6.3812 C   0  0  0  0  0  0  0  0  0  0  0  0
   -4.5974   -0.5124    7.3979 C   0  0  0  0  0  0  0  0  0  0  0  0
   -4.1660   -1.6845    6.8608 F   0  0  0  0  0  0  0  0  0  0  0  0
   -5.6714   -0.7907    8.1789 F   0  0  0  0  0  0  0  0  0  0  0  0
   -3.6037   -0.1494    8.2675 F   0  0  0  0  0  0  0  0  0  0  0  0
  1  2  2  0
  2  3  1  0
  3  4  1  0
  5  4  1  1
  5  6  1  0
  6  7  1  0
  7  8  1  0
  9  8  1  6
  9 10  1  0
 10 11  1  0
 11 12  2  0
 11 13  1  0
 13 14  2  0
 14 15  1  0
 15 16  2  0
 16 17  1  0
 16 18  1  0
 18 19  2  0
 19 20  1  0
 20 21  1  0
 20 22  1  0
 20 23  1  0
  9  2  1  0
 19 13  1  0
 10  5  1  0
M  END
>  <ref_mols>  (1892) 
7gpj-a

>  <gnina_score>  (1892) 
5.128

>  <smina_score_min>  (1892) 
-5.53

>  <ref_pdb>  (1892) 
7gpj-a

>  <inspiration_score>  (1892) 
None

>  <inchikey>  (1892) 
UESMLDIYHSBTBG-SKDRFNHKSA-N

>  <tags>  (1892) 
BulkDock Fragalysis export,openbind_d68ev3c_c2_elabs_scored,openbind_d68ev3c_c2_elabs_scored_4.5plus,openbind_d68ev3c_c2_elabs,openbind_d68ev3c_c2_elabs_scored_5plus,syndirella_product,openbind_d68ev3c_c2_elabs_scored_top80percent,syndirella_placed

>  <smiles>  (1892) 
O=C1NC[C@H]2CCC[C@@H]1N2C(=O)c1ccc(Br)cc1C(F)(F)F

>  <subsites>  (1892) 
None

>  <rmsd(smina/fragmenstein)>  (1892) 
0.557

>  <alias>  (1892) 
None

>  <energy_score>  (1892) 
-35.658496

>  <HIPPO Pose ID>  (1892) 
138672

>  <distance_score>  (1892) 
0.82883

>  <HIPPO Compound ID>  (1892) 
161370

>  <gnina_score_min>  (1892) 
5.156

>  <name>  (1892) 
P138672

>  <exports>  (1892) 
['/opt/xchem-fragalysis-2/maxwin/BulkDock/OUTPUTS/openbind_d68ev3c_c2_elabs_1LOTQJ3.sdf', '/opt/xchem-fragalysis-2/maxwin/BulkDock/OUTPUTS/openbind_d68ev3c_c2_elabs_1LSYI5W.sdf']

$$$$
P138676
     RDKit          3D

 23 25  0  0  0  0  0  0  0  0999 V2000
   -6.3884    1.5590    2.9793 C   0  0  0  0  0  0  0  0  0  0  0  0
   -5.6801    1.5921    4.3140 C   0  0  0  0  0  0  0  0  0  0  0  0
   -5.1787    2.8372    4.7170 C   0  0  0  0  0  0  0  0  0  0  0  0
   -4.5601    2.9848    5.9461 C   0  0  0  0  0  0  0  0  0  0  0  0
   -4.4150    1.8826    6.7789 C   0  0  0  0  0  0  0  0  0  0  0  0
   -4.8557    0.5949    6.3951 C   0  0  0  0  0  0  0  0  0  0  0  0
   -4.5653   -0.5295    7.3561 C   0  0  0  0  0  0  0  0  0  0  0  0
   -4.1548   -1.6818    6.7620 F   0  0  0  0  0  0  0  0  0  0  0  0
   -5.6093   -0.8381    8.1680 F   0  0  0  0  0  0  0  0  0  0  0  0
   -3.5393   -0.2036    8.2050 F   0  0  0  0  0  0  0  0  0  0  0  0
   -5.5094    0.4486    5.1537 C   0  0  0  0  0  0  0  0  0  0  0  0
   -6.1261   -0.8360    4.6615 C   0  0  0  0  0  0  0  0  0  0  0  0
   -6.0525   -1.0492    3.5091 O   0  0  0  0  0  0  0  0  0  0  0  0
   -6.8324   -1.5963    5.7473 N   0  0  0  0  0  0  0  0  0  0  0  0
   -7.5832   -2.9321    5.7049 C   0  0  2  0  0  0  0  0  0  0  0  0
   -8.4140   -3.2862    4.4390 C   0  0  0  0  0  0  0  0  0  0  0  0
   -9.0174   -2.0995    3.7373 C   0  0  0  0  0  0  0  0  0  0  0  0
   -9.2517   -1.0047    4.7375 C   0  0  0  0  0  0  0  0  0  0  0  0
   -8.2835   -1.0886    5.9349 C   0  0  1  0  0  0  0  0  0  0  0  0
   -9.0254   -1.3663    7.2832 C   0  0  0  0  0  0  0  0  0  0  0  0
   -9.5555   -0.4981    7.9664 O   0  0  0  0  0  0  0  0  0  0  0  0
   -9.1412   -2.6931    7.5730 N   0  0  0  0  0  0  0  0  0  0  0  0
   -8.1456   -3.5359    7.0072 C   0  0  0  0  0  0  0  0  0  0  0  0
  1  2  1  0
  2  3  2  0
  3  4  1  0
  4  5  2  0
  5  6  1  0
  6  7  1  0
  7  8  1  0
  7  9  1  0
  7 10  1  0
  6 11  2  0
 11 12  1  0
 12 13  2  0
 12 14  1  0
 14 15  1  0
 15 16  1  6
 16 17  1  0
 17 18  1  0
 19 18  1  6
 19 20  1  0
 20 21  2  0
 20 22  1  0
 22 23  1  0
 11  2  1  0
 19 14  1  0
 23 15  1  0
M  END
>  <ref_mols>  (1893) 
7gpj-a

>  <gnina_score>  (1893) 
5.056

>  <smina_score_min>  (1893) 
-5.286

>  <ref_pdb>  (1893) 
7gpj-a

>  <inspiration_score>  (1893) 
None

>  <inchikey>  (1893) 
RBCPQGMRZXYZCH-PWSUYJOCSA-N

>  <tags>  (1893) 
BulkDock Fragalysis export,openbind_d68ev3c_c2_elabs_scored,openbind_d68ev3c_c2_elabs_scored_4.5plus,openbind_d68ev3c_c2_elabs,openbind_d68ev3c_c2_elabs_scored_5plus,syndirella_product,openbind_d68ev3c_c2_elabs_scored_top80percent,syndirella_placed

>  <smiles>  (1893) 
Cc1cccc(C(F)(F)F)c1C(=O)N1[C@@H]2CCC[C@H]1C(=O)NC2

>  <subsites>  (1893) 
None

>  <rmsd(smina/fragmenstein)>  (1893) 
0.839

>  <alias>  (1893) 
None

>  <energy_score>  (1893) 
-37.359805

>  <HIPPO Pose ID>  (1893) 
138676

>  <distance_score>  (1893) 
0.868583

>  <HIPPO Compound ID>  (1893) 
161404

>  <gnina_score_min>  (1893) 
5.088

>  <name>  (1893) 
P138676

>  <exports>  (1893) 
['/opt/xchem-fragalysis-2/maxwin/BulkDock/OUTPUTS/openbind_d68ev3c_c2_elabs_1LOTQJ3.sdf', '/opt/xchem-fragalysis-2/maxwin/BulkDock/OUTPUTS/openbind_d68ev3c_c2_elabs_1LSYI5W.sdf']

$$$$
P138677
     RDKit          3D

 23 25  0  0  0  0  0  0  0  0999 V2000
   -9.4965   -0.5817    8.0733 O   0  0  0  0  0  0  0  0  0  0  0  0
   -8.9531   -1.4292    7.3742 C   0  0  0  0  0  0  0  0  0  0  0  0
   -9.0468   -2.7613    7.6372 N   0  0  0  0  0  0  0  0  0  0  0  0
   -8.1016   -3.6008    6.9857 C   0  0  0  0  0  0  0  0  0  0  0  0
   -7.6109   -2.9593    5.6707 C   0  0  1  0  0  0  0  0  0  0  0  0
   -8.5400   -3.2313    4.4540 C   0  0  0  0  0  0  0  0  0  0  0  0
   -9.1459   -1.9967    3.8398 C   0  0  0  0  0  0  0  0  0  0  0  0
   -9.2293   -0.9018    4.8671 C   0  0  0  0  0  0  0  0  0  0  0  0
   -8.2338   -1.1077    6.0265 C   0  0  2  0  0  0  0  0  0  0  0  0
   -6.8148   -1.6498    5.7248 N   0  0  0  0  0  0  0  0  0  0  0  0
   -6.1530   -0.8623    4.6326 C   0  0  0  0  0  0  0  0  0  0  0  0
   -6.1580   -1.0234    3.4690 O   0  0  0  0  0  0  0  0  0  0  0  0
   -5.4652    0.3764    5.1298 C   0  0  0  0  0  0  0  0  0  0  0  0
   -5.5653    1.4609    4.2265 C   0  0  0  0  0  0  0  0  0  0  0  0
   -5.1039    2.7324    4.5537 C   0  0  0  0  0  0  0  0  0  0  0  0
   -4.5467    2.9455    5.8020 C   0  0  0  0  0  0  0  0  0  0  0  0
   -3.9883    4.5101    6.2399 Cl  0  0  0  0  0  0  0  0  0  0  0  0
   -4.4284    1.8905    6.7051 C   0  0  0  0  0  0  0  0  0  0  0  0
   -4.8573    0.5803    6.3787 C   0  0  0  0  0  0  0  0  0  0  0  0
   -4.5964   -0.5014    7.3928 C   0  0  0  0  0  0  0  0  0  0  0  0
   -3.6015   -0.1361    8.2597 F   0  0  0  0  0  0  0  0  0  0  0  0
   -5.6670   -0.7851    8.1762 F   0  0  0  0  0  0  0  0  0  0  0  0
   -4.1625   -1.6708    6.8520 F   0  0  0  0  0  0  0  0  0  0  0  0
  1  2  2  0
  2  3  1  0
  3  4  1  0
  5  4  1  1
  5  6  1  0
  6  7  1  0
  7  8  1  0
  9  8  1  6
  9 10  1  0
 10 11  1  0
 11 12  2  0
 11 13  1  0
 13 14  2  0
 14 15  1  0
 15 16  2  0
 16 17  1  0
 16 18  1  0
 18 19  2  0
 19 20  1  0
 20 21  1  0
 20 22  1  0
 20 23  1  0
  9  2  1  0
 19 13  1  0
 10  5  1  0
M  END
>  <ref_mols>  (1894) 
7gpj-a

>  <gnina_score>  (1894) 
5.108

>  <smina_score_min>  (1894) 
-5.507

>  <ref_pdb>  (1894) 
7gpj-a

>  <inspiration_score>  (1894) 
None

>  <inchikey>  (1894) 
VSENBNQLIJTSKX-SKDRFNHKSA-N

>  <tags>  (1894) 
BulkDock Fragalysis export,openbind_d68ev3c_c2_elabs_scored,openbind_d68ev3c_c2_elabs_scored_4.5plus,openbind_d68ev3c_c2_elabs,openbind_d68ev3c_c2_elabs_scored_5plus,syndirella_product,openbind_d68ev3c_c2_elabs_scored_top80percent,syndirella_placed

>  <smiles>  (1894) 
O=C1NC[C@H]2CCC[C@@H]1N2C(=O)c1ccc(Cl)cc1C(F)(F)F

>  <subsites>  (1894) 
None

>  <rmsd(smina/fragmenstein)>  (1894) 
0.608

>  <alias>  (1894) 
None

>  <energy_score>  (1894) 
-34.068926

>  <HIPPO Pose ID>  (1894) 
138677

>  <distance_score>  (1894) 
0.830901

>  <HIPPO Compound ID>  (1894) 
161469

>  <gnina_score_min>  (1894) 
5.155

>  <name>  (1894) 
P138677

>  <exports>  (1894) 
['/opt/xchem-fragalysis-2/maxwin/BulkDock/OUTPUTS/openbind_d68ev3c_c2_elabs_1LOTQJ3.sdf', '/opt/xchem-fragalysis-2/maxwin/BulkDock/OUTPUTS/openbind_d68ev3c_c2_elabs_1LSYI5W.sdf']

$$$$
P138679
     RDKit          3D

 23 25  0  0  0  0  0  0  0  0999 V2000
   -9.5001   -0.5752    8.0717 O   0  0  0  0  0  0  0  0  0  0  0  0
   -8.9587   -1.4243    7.3731 C   0  0  0  0  0  0  0  0  0  0  0  0
   -9.0523   -2.7558    7.6398 N   0  0  0  0  0  0  0  0  0  0  0  0
   -8.1068   -3.5970    6.9911 C   0  0  0  0  0  0  0  0  0  0  0  0
   -7.6183   -2.9598    5.6739 C   0  0  1  0  0  0  0  0  0  0  0  0
   -8.5483   -3.2362    4.4591 C   0  0  0  0  0  0  0  0  0  0  0  0
   -9.1567   -2.0045    3.8416 C   0  0  0  0  0  0  0  0  0  0  0  0
   -9.2378   -0.9053    4.8641 C   0  0  0  0  0  0  0  0  0  0  0  0
   -8.2412   -1.1071    6.0231 C   0  0  2  0  0  0  0  0  0  0  0  0
   -6.8226   -1.6497    5.7224 N   0  0  0  0  0  0  0  0  0  0  0  0
   -6.1621   -0.8663    4.6271 C   0  0  0  0  0  0  0  0  0  0  0  0
   -6.1680   -1.0318    3.4641 O   0  0  0  0  0  0  0  0  0  0  0  0
   -5.4745    0.3738    5.1160 C   0  0  0  0  0  0  0  0  0  0  0  0
   -5.5836    1.4493    4.2069 C   0  0  0  0  0  0  0  0  0  0  0  0
   -5.1210    2.7114    4.5341 C   0  0  0  0  0  0  0  0  0  0  0  0
   -5.2479    3.7133    3.6558 F   0  0  0  0  0  0  0  0  0  0  0  0
   -4.5500    2.9490    5.7686 C   0  0  0  0  0  0  0  0  0  0  0  0
   -4.4262    1.8980    6.6771 C   0  0  0  0  0  0  0  0  0  0  0  0
   -4.8596    0.5857    6.3623 C   0  0  0  0  0  0  0  0  0  0  0  0
   -4.5979   -0.4928    7.3830 C   0  0  0  0  0  0  0  0  0  0  0  0
   -3.6044   -0.1223    8.2500 F   0  0  0  0  0  0  0  0  0  0  0  0
   -5.6689   -0.7751    8.1667 F   0  0  0  0  0  0  0  0  0  0  0  0
   -4.1615   -1.6639    6.8476 F   0  0  0  0  0  0  0  0  0  0  0  0
  1  2  2  0
  2  3  1  0
  3  4  1  0
  5  4  1  1
  5  6  1  0
  6  7  1  0
  7  8  1  0
  9  8  1  6
  9 10  1  0
 10 11  1  0
 11 12  2  0
 11 13  1  0
 13 14  2  0
 14 15  1  0
 15 16  1  0
 15 17  2  0
 17 18  1  0
 18 19  2  0
 19 20  1  0
 20 21  1  0
 20 22  1  0
 20 23  1  0
  9  2  1  0
 19 13  1  0
 10  5  1  0
M  END
>  <ref_mols>  (1895) 
7gpj-a

>  <gnina_score>  (1895) 
5.026

>  <smina_score_min>  (1895) 
-5.335

>  <ref_pdb>  (1895) 
7gpj-a

>  <inspiration_score>  (1895) 
None

>  <inchikey>  (1895) 
FGSMNCBIZCEKEK-SKDRFNHKSA-N

>  <tags>  (1895) 
BulkDock Fragalysis export,openbind_d68ev3c_c2_elabs_scored,openbind_d68ev3c_c2_elabs_scored_4.5plus,openbind_d68ev3c_c2_elabs,openbind_d68ev3c_c2_elabs_scored_5plus,syndirella_product,openbind_d68ev3c_c2_elabs_scored_top80percent,syndirella_placed

>  <smiles>  (1895) 
O=C1NC[C@H]2CCC[C@@H]1N2C(=O)c1cc(F)ccc1C(F)(F)F

>  <subsites>  (1895) 
None

>  <rmsd(smina/fragmenstein)>  (1895) 
0.756

>  <alias>  (1895) 
None

>  <energy_score>  (1895) 
-34.69207

>  <HIPPO Pose ID>  (1895) 
138679

>  <distance_score>  (1895) 
0.827976

>  <HIPPO Compound ID>  (1895) 
161491

>  <gnina_score_min>  (1895) 
5.115

>  <name>  (1895) 
P138679

>  <exports>  (1895) 
['/opt/xchem-fragalysis-2/maxwin/BulkDock/OUTPUTS/openbind_d68ev3c_c2_elabs_1LOTQJ3.sdf', '/opt/xchem-fragalysis-2/maxwin/BulkDock/OUTPUTS/openbind_d68ev3c_c2_elabs_1LSYI5W.sdf']

$$$$
P138685
     RDKit          3D

 23 25  0  0  0  0  0  0  0  0999 V2000
   -9.5095   -0.5646    8.0460 O   0  0  0  0  0  0  0  0  0  0  0  0
   -8.9635   -1.4179    7.3563 C   0  0  0  0  0  0  0  0  0  0  0  0
   -9.0663   -2.7478    7.6268 N   0  0  0  0  0  0  0  0  0  0  0  0
   -8.1153   -3.5942    6.9933 C   0  0  0  0  0  0  0  0  0  0  0  0
   -7.6093   -2.9645    5.6791 C   0  0  1  0  0  0  0  0  0  0  0  0
   -8.5260   -3.2433    4.4545 C   0  0  0  0  0  0  0  0  0  0  0  0
   -9.1257   -2.0129    3.8257 C   0  0  0  0  0  0  0  0  0  0  0  0
   -9.2116   -0.9075    4.8412 C   0  0  0  0  0  0  0  0  0  0  0  0
   -8.2295   -1.1089    6.0129 C   0  0  2  0  0  0  0  0  0  0  0  0
   -6.8101   -1.6573    5.7302 N   0  0  0  0  0  0  0  0  0  0  0  0
   -6.1349   -0.8807    4.6378 C   0  0  0  0  0  0  0  0  0  0  0  0
   -6.1289   -1.0517    3.4755 O   0  0  0  0  0  0  0  0  0  0  0  0
   -5.4490    0.3594    5.1338 C   0  0  0  0  0  0  0  0  0  0  0  0
   -5.5389    1.4392    4.2252 C   0  0  0  0  0  0  0  0  0  0  0  0
   -5.0745    2.7111    4.5476 C   0  0  0  0  0  0  0  0  0  0  0  0
   -4.5245    2.9286    5.7997 C   0  0  0  0  0  0  0  0  0  0  0  0
   -3.8374    4.8160    6.3232 I   0  0  0  0  0  0  0  0  0  0  0  0
   -4.4184    1.8773    6.7098 C   0  0  0  0  0  0  0  0  0  0  0  0
   -4.8495    0.5673    6.3855 C   0  0  0  0  0  0  0  0  0  0  0  0
   -4.5967   -0.5118    7.4041 C   0  0  0  0  0  0  0  0  0  0  0  0
   -3.6042   -0.1472    8.2748 F   0  0  0  0  0  0  0  0  0  0  0  0
   -5.6713   -0.7898    8.1842 F   0  0  0  0  0  0  0  0  0  0  0  0
   -4.1634   -1.6846    6.8694 F   0  0  0  0  0  0  0  0  0  0  0  0
  1  2  2  0
  2  3  1  0
  3  4  1  0
  5  4  1  1
  5  6  1  0
  6  7  1  0
  7  8  1  0
  9  8  1  6
  9 10  1  0
 10 11  1  0
 11 12  2  0
 11 13  1  0
 13 14  2  0
 14 15  1  0
 15 16  2  0
 16 17  1  0
 16 18  1  0
 18 19  2  0
 19 20  1  0
 20 21  1  0
 20 22  1  0
 20 23  1  0
  9  2  1  0
 19 13  1  0
 10  5  1  0
M  END
>  <ref_mols>  (1896) 
7gpj-a

>  <gnina_score>  (1896) 
5.185

>  <smina_score_min>  (1896) 
-5.556

>  <ref_pdb>  (1896) 
7gpj-a

>  <inspiration_score>  (1896) 
None

>  <inchikey>  (1896) 
ZPUINMNHQVOMRO-SKDRFNHKSA-N

>  <tags>  (1896) 
BulkDock Fragalysis export,openbind_d68ev3c_c2_elabs_scored,openbind_d68ev3c_c2_elabs_scored_4.5plus,openbind_d68ev3c_c2_elabs,openbind_d68ev3c_c2_elabs_scored_5plus,syndirella_product,openbind_d68ev3c_c2_elabs_scored_top80percent,syndirella_placed

>  <smiles>  (1896) 
O=C1NC[C@H]2CCC[C@@H]1N2C(=O)c1ccc(I)cc1C(F)(F)F

>  <subsites>  (1896) 
None

>  <rmsd(smina/fragmenstein)>  (1896) 
0.548

>  <alias>  (1896) 
None

>  <energy_score>  (1896) 
-37.050005

>  <HIPPO Pose ID>  (1896) 
138685

>  <distance_score>  (1896) 
0.825248

>  <HIPPO Compound ID>  (1896) 
161561

>  <gnina_score_min>  (1896) 
5.234

>  <name>  (1896) 
P138685

>  <exports>  (1896) 
['/opt/xchem-fragalysis-2/maxwin/BulkDock/OUTPUTS/openbind_d68ev3c_c2_elabs_1LOTQJ3.sdf', '/opt/xchem-fragalysis-2/maxwin/BulkDock/OUTPUTS/openbind_d68ev3c_c2_elabs_1LSYI5W.sdf']

$$$$
P138686
     RDKit          3D

 23 25  0  0  0  0  0  0  0  0999 V2000
   -9.5666   -0.3652    8.0751 O   0  0  0  0  0  0  0  0  0  0  0  0
   -9.0447   -1.2273    7.3782 C   0  0  0  0  0  0  0  0  0  0  0  0
   -9.1558   -2.5546    7.6613 N   0  0  0  0  0  0  0  0  0  0  0  0
   -8.2328   -3.4237    7.0196 C   0  0  0  0  0  0  0  0  0  0  0  0
   -7.6798   -2.7981    5.7270 C   0  0  1  0  0  0  0  0  0  0  0  0
   -8.5410   -3.0513    4.4572 C   0  0  0  0  0  0  0  0  0  0  0  0
   -9.7593   -2.1676    4.4152 C   0  0  0  0  0  0  0  0  0  0  0  0
   -9.3045   -0.8016    4.8397 C   0  0  0  0  0  0  0  0  0  0  0  0
   -8.3267   -0.9353    6.0218 C   0  0  2  0  0  0  0  0  0  0  0  0
   -6.8899   -1.4778    5.7810 N   0  0  0  0  0  0  0  0  0  0  0  0
   -6.1938   -0.7099    4.6951 C   0  0  0  0  0  0  0  0  0  0  0  0
   -6.1573   -0.8962    3.5375 O   0  0  0  0  0  0  0  0  0  0  0  0
   -5.5338    0.5396    5.1998 C   0  0  0  0  0  0  0  0  0  0  0  0
   -5.7080    1.7106    4.4145 C   0  0  0  0  0  0  0  0  0  0  0  0
   -6.6645    1.8082    2.9657 Cl  0  0  0  0  0  0  0  0  0  0  0  0
   -5.1659    2.9331    4.8157 C   0  0  0  0  0  0  0  0  0  0  0  0
   -4.4870    3.0333    6.0168 C   0  0  0  0  0  0  0  0  0  0  0  0
   -4.3423    1.9059    6.8162 C   0  0  0  0  0  0  0  0  0  0  0  0
   -4.8327    0.6387    6.4197 C   0  0  0  0  0  0  0  0  0  0  0  0
   -4.5531   -0.5138    7.3506 C   0  0  0  0  0  0  0  0  0  0  0  0
   -5.5909   -0.8133    8.1726 F   0  0  0  0  0  0  0  0  0  0  0  0
   -3.5062   -0.2290    8.1873 F   0  0  0  0  0  0  0  0  0  0  0  0
   -4.1807   -1.6599    6.7230 F   0  0  0  0  0  0  0  0  0  0  0  0
  1  2  2  0
  2  3  1  0
  3  4  1  0
  5  4  1  1
  5  6  1  0
  6  7  1  0
  7  8  1  0
  9  8  1  6
  9 10  1  0
 10 11  1  0
 11 12  2  0
 11 13  1  0
 13 14  2  0
 14 15  1  0
 14 16  1  0
 16 17  2  0
 17 18  1  0
 18 19  2  0
 19 20  1  0
 20 21  1  0
 20 22  1  0
 20 23  1  0
  9  2  1  0
 19 13  1  0
 10  5  1  0
M  END
>  <ref_mols>  (1897) 
7gpj-a

>  <gnina_score>  (1897) 
5.139

>  <smina_score_min>  (1897) 
-5.321

>  <ref_pdb>  (1897) 
7gpj-a

>  <inspiration_score>  (1897) 
None

>  <inchikey>  (1897) 
DPZCHNHOOSWMFB-KCJUWKMLSA-N

>  <tags>  (1897) 
BulkDock Fragalysis export,openbind_d68ev3c_c2_elabs_scored,openbind_d68ev3c_c2_elabs_scored_4.5plus,openbind_d68ev3c_c2_elabs,openbind_d68ev3c_c2_elabs_scored_5plus,syndirella_product,openbind_d68ev3c_c2_elabs_scored_top80percent,syndirella_placed

>  <smiles>  (1897) 
O=C1NC[C@H]2CCC[C@@H]1N2C(=O)c1c(Cl)cccc1C(F)(F)F

>  <subsites>  (1897) 
None

>  <rmsd(smina/fragmenstein)>  (1897) 
0.783

>  <alias>  (1897) 
None

>  <energy_score>  (1897) 
-38.751666

>  <HIPPO Pose ID>  (1897) 
138686

>  <distance_score>  (1897) 
0.938716

>  <HIPPO Compound ID>  (1897) 
161600

>  <gnina_score_min>  (1897) 
5.22

>  <name>  (1897) 
P138686

>  <exports>  (1897) 
['/opt/xchem-fragalysis-2/maxwin/BulkDock/OUTPUTS/openbind_d68ev3c_c2_elabs_1LOTQJ3.sdf', '/opt/xchem-fragalysis-2/maxwin/BulkDock/OUTPUTS/openbind_d68ev3c_c2_elabs_1LSYI5W.sdf']

$$$$
P138688
     RDKit          3D

 23 25  0  0  0  0  0  0  0  0999 V2000
   -9.5110   -0.5792    8.0621 O   0  0  0  0  0  0  0  0  0  0  0  0
   -8.9618   -1.4295    7.3708 C   0  0  0  0  0  0  0  0  0  0  0  0
   -9.0500   -2.7596    7.6448 N   0  0  0  0  0  0  0  0  0  0  0  0
   -8.1117   -3.6046    6.9906 C   0  0  0  0  0  0  0  0  0  0  0  0
   -7.6346   -2.9712    5.6679 C   0  0  1  0  0  0  0  0  0  0  0  0
   -8.5780   -3.2427    4.4620 C   0  0  0  0  0  0  0  0  0  0  0  0
   -9.1838   -2.0083    3.8468 C   0  0  0  0  0  0  0  0  0  0  0  0
   -9.2438   -0.9033    4.8644 C   0  0  0  0  0  0  0  0  0  0  0  0
   -8.2450   -1.1154    6.0194 C   0  0  2  0  0  0  0  0  0  0  0  0
   -6.8314   -1.6669    5.7093 N   0  0  0  0  0  0  0  0  0  0  0  0
   -6.1740   -0.8885    4.6083 C   0  0  0  0  0  0  0  0  0  0  0  0
   -6.1891   -1.0552    3.4455 O   0  0  0  0  0  0  0  0  0  0  0  0
   -5.4763    0.3473    5.0941 C   0  0  0  0  0  0  0  0  0  0  0  0
   -5.5834    1.4291    4.1866 C   0  0  0  0  0  0  0  0  0  0  0  0
   -5.1187    2.6989    4.5045 C   0  0  0  0  0  0  0  0  0  0  0  0
   -4.5539    2.9115    5.7487 C   0  0  0  0  0  0  0  0  0  0  0  0
   -4.4367    1.8502    6.6430 C   0  0  0  0  0  0  0  0  0  0  0  0
   -3.8690    2.1083    7.8280 F   0  0  0  0  0  0  0  0  0  0  0  0
   -4.8566    0.5480    6.3359 C   0  0  0  0  0  0  0  0  0  0  0  0
   -4.5863   -0.5190    7.3507 C   0  0  0  0  0  0  0  0  0  0  0  0
   -3.5403   -0.2117    8.1760 F   0  0  0  0  0  0  0  0  0  0  0  0
   -5.6390   -0.7631    8.1739 F   0  0  0  0  0  0  0  0  0  0  0  0
   -4.2261   -1.7121    6.8002 F   0  0  0  0  0  0  0  0  0  0  0  0
  1  2  2  0
  2  3  1  0
  3  4  1  0
  5  4  1  1
  5  6  1  0
  6  7  1  0
  7  8  1  0
  9  8  1  6
  9 10  1  0
 10 11  1  0
 11 12  2  0
 11 13  1  0
 13 14  2  0
 14 15  1  0
 15 16  2  0
 16 17  1  0
 17 18  1  0
 17 19  2  0
 19 20  1  0
 20 21  1  0
 20 22  1  0
 20 23  1  0
  9  2  1  0
 19 13  1  0
 10  5  1  0
M  END
>  <ref_mols>  (1898) 
7gpj-a

>  <gnina_score>  (1898) 
5.084

>  <smina_score_min>  (1898) 
-5.465

>  <ref_pdb>  (1898) 
7gpj-a

>  <inspiration_score>  (1898) 
None

>  <inchikey>  (1898) 
MXSQWHRAQXGNML-KCJUWKMLSA-N

>  <tags>  (1898) 
BulkDock Fragalysis export,openbind_d68ev3c_c2_elabs_scored,openbind_d68ev3c_c2_elabs_scored_4.5plus,openbind_d68ev3c_c2_elabs,openbind_d68ev3c_c2_elabs_scored_5plus,syndirella_product,openbind_d68ev3c_c2_elabs_scored_top80percent,syndirella_placed

>  <smiles>  (1898) 
O=C1NC[C@H]2CCC[C@@H]1N2C(=O)c1cccc(F)c1C(F)(F)F

>  <subsites>  (1898) 
None

>  <rmsd(smina/fragmenstein)>  (1898) 
0.333

>  <alias>  (1898) 
None

>  <energy_score>  (1898) 
-56.222687

>  <HIPPO Pose ID>  (1898) 
138688

>  <distance_score>  (1898) 
0.831768

>  <HIPPO Compound ID>  (1898) 
161620

>  <gnina_score_min>  (1898) 
5.116

>  <name>  (1898) 
P138688

>  <exports>  (1898) 
['/opt/xchem-fragalysis-2/maxwin/BulkDock/OUTPUTS/openbind_d68ev3c_c2_elabs_1LOTQJ3.sdf', '/opt/xchem-fragalysis-2/maxwin/BulkDock/OUTPUTS/openbind_d68ev3c_c2_elabs_1LSYI5W.sdf']

$$$$
P138690
     RDKit          3D

 23 25  0  0  0  0  0  0  0  0999 V2000
   -9.5010   -0.5747    8.0647 O   0  0  0  0  0  0  0  0  0  0  0  0
   -8.9581   -1.4242    7.3676 C   0  0  0  0  0  0  0  0  0  0  0  0
   -9.0535   -2.7556    7.6341 N   0  0  0  0  0  0  0  0  0  0  0  0
   -8.1058   -3.5968    6.9886 C   0  0  0  0  0  0  0  0  0  0  0  0
   -7.6133   -2.9604    5.6722 C   0  0  1  0  0  0  0  0  0  0  0  0
   -8.5400   -3.2370    4.4548 C   0  0  0  0  0  0  0  0  0  0  0  0
   -9.1475   -2.0055    3.8359 C   0  0  0  0  0  0  0  0  0  0  0  0
   -9.2306   -0.9058    4.8577 C   0  0  0  0  0  0  0  0  0  0  0  0
   -8.2370   -1.1075    6.0195 C   0  0  2  0  0  0  0  0  0  0  0  0
   -6.8176   -1.6503    5.7222 N   0  0  0  0  0  0  0  0  0  0  0  0
   -6.1545   -0.8671    4.6280 C   0  0  0  0  0  0  0  0  0  0  0  0
   -6.1577   -1.0329    3.4649 O   0  0  0  0  0  0  0  0  0  0  0  0
   -5.4678    0.3739    5.1208 C   0  0  0  0  0  0  0  0  0  0  0  0
   -5.5718    1.4557    4.2125 C   0  0  0  0  0  0  0  0  0  0  0  0
   -5.1174    2.7287    4.5376 C   0  0  0  0  0  0  0  0  0  0  0  0
   -4.5655    2.9400    5.7848 C   0  0  0  0  0  0  0  0  0  0  0  0
   -4.1405    4.1624    6.1244 F   0  0  0  0  0  0  0  0  0  0  0  0
   -4.4386    1.8949    6.6926 C   0  0  0  0  0  0  0  0  0  0  0  0
   -4.8611    0.5831    6.3709 C   0  0  0  0  0  0  0  0  0  0  0  0
   -4.5975   -0.4941    7.3885 C   0  0  0  0  0  0  0  0  0  0  0  0
   -4.1599   -1.6640    6.8515 F   0  0  0  0  0  0  0  0  0  0  0  0
   -5.6678   -0.7790    8.1721 F   0  0  0  0  0  0  0  0  0  0  0  0
   -3.6042   -0.1232    8.2550 F   0  0  0  0  0  0  0  0  0  0  0  0
  1  2  2  0
  2  3  1  0
  3  4  1  0
  5  4  1  1
  5  6  1  0
  6  7  1  0
  7  8  1  0
  9  8  1  6
  9 10  1  0
 10 11  1  0
 11 12  2  0
 11 13  1  0
 13 14  2  0
 14 15  1  0
 15 16  2  0
 16 17  1  0
 16 18  1  0
 18 19  2  0
 19 20  1  0
 20 21  1  0
 20 22  1  0
 20 23  1  0
  9  2  1  0
 19 13  1  0
 10  5  1  0
M  END
>  <ref_mols>  (1899) 
7gpj-a

>  <gnina_score>  (1899) 
5.042

>  <smina_score_min>  (1899) 
-5.481

>  <ref_pdb>  (1899) 
7gpj-a

>  <inspiration_score>  (1899) 
None

>  <inchikey>  (1899) 
DJWOQTHSUHFYFE-SKDRFNHKSA-N

>  <tags>  (1899) 
BulkDock Fragalysis export,openbind_d68ev3c_c2_elabs_scored,openbind_d68ev3c_c2_elabs_scored_4.5plus,openbind_d68ev3c_c2_elabs,openbind_d68ev3c_c2_elabs_scored_5plus,syndirella_product,openbind_d68ev3c_c2_elabs_scored_top80percent,syndirella_placed

>  <smiles>  (1899) 
O=C1NC[C@H]2CCC[C@@H]1N2C(=O)c1ccc(F)cc1C(F)(F)F

>  <subsites>  (1899) 
None

>  <rmsd(smina/fragmenstein)>  (1899) 
0.703

>  <alias>  (1899) 
None

>  <energy_score>  (1899) 
-31.870546

>  <HIPPO Pose ID>  (1899) 
138690

>  <distance_score>  (1899) 
0.828587

>  <HIPPO Compound ID>  (1899) 
161692

>  <gnina_score_min>  (1899) 
5.09

>  <name>  (1899) 
P138690

>  <exports>  (1899) 
['/opt/xchem-fragalysis-2/maxwin/BulkDock/OUTPUTS/openbind_d68ev3c_c2_elabs_1LOTQJ3.sdf', '/opt/xchem-fragalysis-2/maxwin/BulkDock/OUTPUTS/openbind_d68ev3c_c2_elabs_1LSYI5W.sdf']

$$$$
P138692
     RDKit          3D

 23 25  0  0  0  0  0  0  0  0999 V2000
   -9.4977   -0.5713    8.0686 O   0  0  0  0  0  0  0  0  0  0  0  0
   -8.9564   -1.4218    7.3715 C   0  0  0  0  0  0  0  0  0  0  0  0
   -9.0530   -2.7529    7.6388 N   0  0  0  0  0  0  0  0  0  0  0  0
   -8.1079   -3.5961    6.9922 C   0  0  0  0  0  0  0  0  0  0  0  0
   -7.6149   -2.9602    5.6761 C   0  0  1  0  0  0  0  0  0  0  0  0
   -8.5426   -3.2355    4.4591 C   0  0  0  0  0  0  0  0  0  0  0  0
   -9.1491   -2.0033    3.8405 C   0  0  0  0  0  0  0  0  0  0  0  0
   -9.2282   -0.9024    4.8613 C   0  0  0  0  0  0  0  0  0  0  0  0
   -8.2352   -1.1064    6.0229 C   0  0  2  0  0  0  0  0  0  0  0  0
   -6.8171   -1.6514    5.7253 N   0  0  0  0  0  0  0  0  0  0  0  0
   -6.1534   -0.8698    4.6307 C   0  0  0  0  0  0  0  0  0  0  0  0
   -6.1573   -1.0360    3.4678 O   0  0  0  0  0  0  0  0  0  0  0  0
   -5.4644    0.3701    5.1207 C   0  0  0  0  0  0  0  0  0  0  0  0
   -5.5656    1.4458    4.2078 C   0  0  0  0  0  0  0  0  0  0  0  0
   -5.1004    2.7126    4.5294 C   0  0  0  0  0  0  0  0  0  0  0  0
   -5.2458    3.9976    3.3979 Cl  0  0  0  0  0  0  0  0  0  0  0  0
   -4.5362    2.9434    5.7721 C   0  0  0  0  0  0  0  0  0  0  0  0
   -4.4215    1.8916    6.6827 C   0  0  0  0  0  0  0  0  0  0  0  0
   -4.8551    0.5808    6.3684 C   0  0  0  0  0  0  0  0  0  0  0  0
   -4.5980   -0.4972    7.3906 C   0  0  0  0  0  0  0  0  0  0  0  0
   -5.6715   -0.7772    8.1716 F   0  0  0  0  0  0  0  0  0  0  0  0
   -3.6064   -0.1270    8.2599 F   0  0  0  0  0  0  0  0  0  0  0  0
   -4.1616   -1.6692    6.8572 F   0  0  0  0  0  0  0  0  0  0  0  0
  1  2  2  0
  2  3  1  0
  3  4  1  0
  5  4  1  1
  5  6  1  0
  6  7  1  0
  7  8  1  0
  9  8  1  6
  9 10  1  0
 10 11  1  0
 11 12  2  0
 11 13  1  0
 13 14  2  0
 14 15  1  0
 15 16  1  0
 15 17  2  0
 17 18  1  0
 18 19  2  0
 19 20  1  0
 20 21  1  0
 20 22  1  0
 20 23  1  0
  9  2  1  0
 19 13  1  0
 10  5  1  0
M  END
>  <ref_mols>  (1900) 
7gpj-a

>  <gnina_score>  (1900) 
5.075

>  <smina_score_min>  (1900) 
-5.329

>  <ref_pdb>  (1900) 
7gpj-a

>  <inspiration_score>  (1900) 
None

>  <inchikey>  (1900) 
QEFLBGKIVVVIRS-SKDRFNHKSA-N

>  <tags>  (1900) 
BulkDock Fragalysis export,openbind_d68ev3c_c2_elabs_scored,openbind_d68ev3c_c2_elabs_scored_4.5plus,openbind_d68ev3c_c2_elabs,openbind_d68ev3c_c2_elabs_scored_5plus,syndirella_product,openbind_d68ev3c_c2_elabs_scored_top80percent,syndirella_placed

>  <smiles>  (1900) 
O=C1NC[C@H]2CCC[C@@H]1N2C(=O)c1cc(Cl)ccc1C(F)(F)F

>  <subsites>  (1900) 
None

>  <rmsd(smina/fragmenstein)>  (1900) 
0.769

>  <alias>  (1900) 
None

>  <energy_score>  (1900) 
-48.705306

>  <HIPPO Pose ID>  (1900) 
138692

>  <distance_score>  (1900) 
0.826398

>  <HIPPO Compound ID>  (1900) 
161734

>  <gnina_score_min>  (1900) 
5.193

>  <name>  (1900) 
P138692

>  <exports>  (1900) 
['/opt/xchem-fragalysis-2/maxwin/BulkDock/OUTPUTS/openbind_d68ev3c_c2_elabs_1LOTQJ3.sdf', '/opt/xchem-fragalysis-2/maxwin/BulkDock/OUTPUTS/openbind_d68ev3c_c2_elabs_1LSYI5W.sdf']

$$$$
P138695
     RDKit          3D

 23 25  0  0  0  0  0  0  0  0999 V2000
   -3.9309    2.4622    7.5770 C   0  0  0  0  0  0  0  0  0  0  0  0
   -4.5195    1.9488    6.2933 C   0  0  0  0  0  0  0  0  0  0  0  0
   -4.6604    2.9133    5.2790 C   0  0  0  0  0  0  0  0  0  0  0  0
   -5.2088    2.5808    4.0582 C   0  0  0  0  0  0  0  0  0  0  0  0
   -5.6513    1.2852    3.8578 C   0  0  0  0  0  0  0  0  0  0  0  0
   -5.5227    0.2819    4.8502 C   0  0  0  0  0  0  0  0  0  0  0  0
   -6.2484   -0.9770    4.4589 C   0  0  0  0  0  0  0  0  0  0  0  0
   -6.3051   -1.1967    3.3058 O   0  0  0  0  0  0  0  0  0  0  0  0
   -6.8709   -1.6997    5.6166 N   0  0  0  0  0  0  0  0  0  0  0  0
   -7.6794   -2.9952    5.6628 C   0  0  2  0  0  0  0  0  0  0  0  0
   -8.6556   -3.3053    4.4920 C   0  0  0  0  0  0  0  0  0  0  0  0
   -9.2977   -2.0981    3.8575 C   0  0  0  0  0  0  0  0  0  0  0  0
   -9.2988   -0.9423    4.8178 C   0  0  0  0  0  0  0  0  0  0  0  0
   -8.2717   -1.1244    5.9506 C   0  0  1  0  0  0  0  0  0  0  0  0
   -8.9615   -1.3893    7.3314 C   0  0  0  0  0  0  0  0  0  0  0  0
   -9.4955   -0.5166    8.0066 O   0  0  0  0  0  0  0  0  0  0  0  0
   -9.0487   -2.7088    7.6544 N   0  0  0  0  0  0  0  0  0  0  0  0
   -8.1194   -3.5742    7.0181 C   0  0  0  0  0  0  0  0  0  0  0  0
   -4.8904    0.5877    6.0733 C   0  0  0  0  0  0  0  0  0  0  0  0
   -4.5837   -0.4683    7.1164 C   0  0  0  0  0  0  0  0  0  0  0  0
   -3.4481   -0.1841    7.8308 F   0  0  0  0  0  0  0  0  0  0  0  0
   -5.5652   -0.6171    8.0450 F   0  0  0  0  0  0  0  0  0  0  0  0
   -4.3242   -1.7039    6.6057 F   0  0  0  0  0  0  0  0  0  0  0  0
  1  2  1  0
  2  3  2  0
  3  4  1  0
  4  5  2  0
  5  6  1  0
  6  7  1  0
  7  8  2  0
  7  9  1  0
  9 10  1  0
 10 11  1  6
 11 12  1  0
 12 13  1  0
 14 13  1  6
 14 15  1  0
 15 16  2  0
 15 17  1  0
 17 18  1  0
  6 19  2  0
 19 20  1  0
 20 21  1  0
 20 22  1  0
 20 23  1  0
 19  2  1  0
 14  9  1  0
 18 10  1  0
M  END
>  <ref_mols>  (1901) 
7gpj-a

>  <gnina_score>  (1901) 
5.04

>  <smina_score_min>  (1901) 
-5.131

>  <ref_pdb>  (1901) 
7gpj-a

>  <inspiration_score>  (1901) 
None

>  <inchikey>  (1901) 
UMPBQVNUCASYDD-PWSUYJOCSA-N

>  <tags>  (1901) 
BulkDock Fragalysis export,openbind_d68ev3c_c2_elabs_scored,openbind_d68ev3c_c2_elabs_scored_4.5plus,openbind_d68ev3c_c2_elabs,openbind_d68ev3c_c2_elabs_scored_5plus,syndirella_product,openbind_d68ev3c_c2_elabs_scored_top80percent,syndirella_placed

>  <smiles>  (1901) 
Cc1cccc(C(=O)N2[C@@H]3CCC[C@H]2C(=O)NC3)c1C(F)(F)F

>  <subsites>  (1901) 
None

>  <rmsd(smina/fragmenstein)>  (1901) 
0.334

>  <alias>  (1901) 
None

>  <energy_score>  (1901) 
-32.515776

>  <HIPPO Pose ID>  (1901) 
138695

>  <distance_score>  (1901) 
0.860734

>  <HIPPO Compound ID>  (1901) 
161764

>  <gnina_score_min>  (1901) 
5.097

>  <name>  (1901) 
P138695

>  <exports>  (1901) 
['/opt/xchem-fragalysis-2/maxwin/BulkDock/OUTPUTS/openbind_d68ev3c_c2_elabs_1LOTQJ3.sdf', '/opt/xchem-fragalysis-2/maxwin/BulkDock/OUTPUTS/openbind_d68ev3c_c2_elabs_1LSYI5W.sdf']

$$$$
P138698
     RDKit          3D

 23 24  0  0  0  0  0  0  0  0999 V2000
  -11.1541   -0.1659    4.9624 C   0  0  0  0  0  0  0  0  0  0  0  0
  -10.0063   -0.5091    4.0285 C   0  0  0  0  0  0  0  0  0  0  0  0
   -9.1350   -1.6848    4.4937 C   0  0  0  0  0  0  0  0  0  0  0  0
   -8.2997   -1.4226    5.7908 C   0  0  1  0  0  0  0  0  0  0  0  0
   -9.0709   -1.5717    7.1319 C   0  0  0  0  0  0  0  0  0  0  0  0
   -9.4599   -0.6425    7.8285 O   0  0  0  0  0  0  0  0  0  0  0  0
   -9.2684   -2.8783    7.4705 N   0  0  0  0  0  0  0  0  0  0  0  0
   -8.2143   -3.7488    7.0728 C   0  0  0  0  0  0  0  0  0  0  0  0
   -7.4177   -3.2021    5.8796 C   0  0  0  0  0  0  0  0  0  0  0  0
   -6.7900   -1.8139    5.8580 N   0  0  0  0  0  0  0  0  0  0  0  0
   -5.9997   -1.1145    4.7902 C   0  0  0  0  0  0  0  0  0  0  0  0
   -5.7489   -1.4441    3.6918 O   0  0  0  0  0  0  0  0  0  0  0  0
   -5.5714    0.2541    5.2174 C   0  0  0  0  0  0  0  0  0  0  0  0
   -5.8859    1.3138    4.3384 C   0  0  0  0  0  0  0  0  0  0  0  0
   -6.6314    1.0882    3.2109 O   0  0  0  0  0  0  0  0  0  0  0  0
   -5.4994    2.6233    4.6131 C   0  0  0  0  0  0  0  0  0  0  0  0
   -4.8198    2.9021    5.7897 C   0  0  0  0  0  0  0  0  0  0  0  0
   -4.5343    1.8741    6.6864 C   0  0  0  0  0  0  0  0  0  0  0  0
   -4.8878    0.5326    6.4131 C   0  0  0  0  0  0  0  0  0  0  0  0
   -4.5027   -0.5148    7.4226 C   0  0  0  0  0  0  0  0  0  0  0  0
   -3.4912   -0.0744    8.2345 F   0  0  0  0  0  0  0  0  0  0  0  0
   -4.0250   -1.6658    6.8795 F   0  0  0  0  0  0  0  0  0  0  0  0
   -5.5123   -0.8526    8.2650 F   0  0  0  0  0  0  0  0  0  0  0  0
  1  2  1  0
  2  3  1  0
  4  3  1  6
  4  5  1  0
  5  6  2  0
  5  7  1  0
  7  8  1  0
  8  9  1  0
  9 10  1  0
 10 11  1  0
 11 12  2  0
 11 13  1  0
 13 14  2  0
 14 15  1  0
 14 16  1  0
 16 17  2  0
 17 18  1  0
 18 19  2  0
 19 20  1  0
 20 21  1  0
 20 22  1  0
 20 23  1  0
 10  4  1  0
 19 13  1  0
M  END
>  <ref_mols>  (1902) 
7gpj-a

>  <gnina_score>  (1902) 
5.011

>  <smina_score_min>  (1902) 
-4.988

>  <ref_pdb>  (1902) 
7gpj-a

>  <inspiration_score>  (1902) 
None

>  <inchikey>  (1902) 
ZUSBLANRLCBFLD-JTQLQIEISA-N

>  <tags>  (1902) 
BulkDock Fragalysis export,openbind_d68ev3c_c2_elabs_scored,openbind_d68ev3c_c2_elabs_scored_4.5plus,openbind_d68ev3c_c2_elabs,openbind_d68ev3c_c2_elabs_scored_5plus,syndirella_product,openbind_d68ev3c_c2_elabs_scored_top80percent,syndirella_placed

>  <smiles>  (1902) 
CCC[C@H]1C(=O)NCCN1C(=O)c1c(O)cccc1C(F)(F)F

>  <subsites>  (1902) 
None

>  <rmsd(smina/fragmenstein)>  (1902) 
0.662

>  <alias>  (1902) 
None

>  <energy_score>  (1902) 
-0.432941

>  <HIPPO Pose ID>  (1902) 
138698

>  <distance_score>  (1902) 
0.698052

>  <HIPPO Compound ID>  (1902) 
161801

>  <gnina_score_min>  (1902) 
5.037

>  <name>  (1902) 
P138698

>  <exports>  (1902) 
['/opt/xchem-fragalysis-2/maxwin/BulkDock/OUTPUTS/openbind_d68ev3c_c2_elabs_1LOTQJ3.sdf', '/opt/xchem-fragalysis-2/maxwin/BulkDock/OUTPUTS/openbind_d68ev3c_c2_elabs_1LSYI5W.sdf']

$$$$
P138701
     RDKit          3D

 23 24  0  0  0  0  0  0  0  0999 V2000
   -9.2321   -2.9611    4.9447 C   0  0  0  0  0  0  0  0  0  0  0  0
   -8.9522   -3.0185    6.4419 C   0  0  2  0  0  0  0  0  0  0  0  0
   -9.9377   -2.3212    7.2159 N   0  0  0  0  0  0  0  0  0  0  0  0
   -9.4621   -1.1421    7.7269 C   0  0  0  0  0  0  0  0  0  0  0  0
   -9.9420   -0.6011    8.7116 O   0  0  0  0  0  0  0  0  0  0  0  0
   -8.2705   -0.5983    6.8669 C   0  0  1  0  0  0  0  0  0  0  0  0
   -8.0146    0.8213    7.4486 C   0  0  0  0  0  0  0  0  0  0  0  0
   -6.8410   -1.2136    6.4801 N   0  0  0  0  0  0  0  0  0  0  0  0
   -6.4077   -0.7629    5.1209 C   0  0  0  0  0  0  0  0  0  0  0  0
   -6.5889   -1.2459    4.0661 O   0  0  0  0  0  0  0  0  0  0  0  0
   -5.5958    0.4874    5.2035 C   0  0  0  0  0  0  0  0  0  0  0  0
   -5.7323    1.3890    4.1312 C   0  0  0  0  0  0  0  0  0  0  0  0
   -6.4275    1.1037    2.9844 O   0  0  0  0  0  0  0  0  0  0  0  0
   -5.1691    2.6574    4.1892 C   0  0  0  0  0  0  0  0  0  0  0  0
   -4.4622    3.0456    5.3199 C   0  0  0  0  0  0  0  0  0  0  0  0
   -4.2781    2.1478    6.3709 C   0  0  0  0  0  0  0  0  0  0  0  0
   -4.7948    0.8355    6.3156 C   0  0  0  0  0  0  0  0  0  0  0  0
   -4.4195   -0.1213    7.4296 C   0  0  0  0  0  0  0  0  0  0  0  0
   -5.3566   -0.2682    8.4011 F   0  0  0  0  0  0  0  0  0  0  0  0
   -4.0844   -1.3667    6.9915 F   0  0  0  0  0  0  0  0  0  0  0  0
   -3.3049    0.3084    8.0982 F   0  0  0  0  0  0  0  0  0  0  0  0
   -7.5558   -2.4819    6.9234 C   0  0  2  0  0  0  0  0  0  0  0  0
   -6.5609   -3.5956    6.5275 C   0  0  0  0  0  0  0  0  0  0  0  0
  2  1  1  6
  2  3  1  0
  3  4  1  0
  4  5  2  0
  4  6  1  0
  6  7  1  1
  6  8  1  0
  8  9  1  0
  9 10  2  0
  9 11  1  0
 11 12  2  0
 12 13  1  0
 12 14  1  0
 14 15  2  0
 15 16  1  0
 16 17  2  0
 17 18  1  0
 18 19  1  0
 18 20  1  0
 18 21  1  0
  8 22  1  0
 22 23  1  6
 22  2  1  0
 17 11  1  0
M  END
>  <ref_mols>  (1903) 
7gpj-a

>  <gnina_score>  (1903) 
5.009

>  <smina_score_min>  (1903) 
-5.53

>  <ref_pdb>  (1903) 
7gpj-a

>  <inspiration_score>  (1903) 
None

>  <inchikey>  (1903) 
AWMQUDSEVYJLND-DJLDLDEBSA-N

>  <tags>  (1903) 
BulkDock Fragalysis export,openbind_d68ev3c_c2_elabs_scored,openbind_d68ev3c_c2_elabs_scored_4.5plus,openbind_d68ev3c_c2_elabs,openbind_d68ev3c_c2_elabs_scored_5plus,syndirella_product,openbind_d68ev3c_c2_elabs_scored_top80percent,syndirella_placed

>  <smiles>  (1903) 
C[C@@H]1NC(=O)[C@@H](C)N(C(=O)c2c(O)cccc2C(F)(F)F)[C@@H]1C

>  <subsites>  (1903) 
None

>  <rmsd(smina/fragmenstein)>  (1903) 
0.782

>  <alias>  (1903) 
None

>  <energy_score>  (1903) 
-19.806684

>  <HIPPO Pose ID>  (1903) 
138701

>  <distance_score>  (1903) 
0.977703

>  <HIPPO Compound ID>  (1903) 
161802

>  <gnina_score_min>  (1903) 
5.059

>  <name>  (1903) 
P138701

>  <exports>  (1903) 
['/opt/xchem-fragalysis-2/maxwin/BulkDock/OUTPUTS/openbind_d68ev3c_c2_elabs_1LOTQJ3.sdf', '/opt/xchem-fragalysis-2/maxwin/BulkDock/OUTPUTS/openbind_d68ev3c_c2_elabs_1LSYI5W.sdf']

$$$$
P138710
     RDKit          3D

 23 25  0  0  0  0  0  0  0  0999 V2000
   -9.4461   -0.6422    7.9984 O   0  0  0  0  0  0  0  0  0  0  0  0
   -8.8856   -1.5129    7.3413 C   0  0  0  0  0  0  0  0  0  0  0  0
   -8.9061   -2.8230    7.7167 N   0  0  0  0  0  0  0  0  0  0  0  0
   -8.0497   -3.7261    7.0267 C   0  0  0  0  0  0  0  0  0  0  0  0
   -7.5008   -3.1143    5.7358 C   0  0  0  0  0  0  0  0  0  0  0  0
   -6.7412   -1.7967    5.7482 N   0  0  0  0  0  0  0  0  0  0  0  0
   -6.0511   -1.0562    4.6420 C   0  0  0  0  0  0  0  0  0  0  0  0
   -6.0039   -1.2818    3.4883 O   0  0  0  0  0  0  0  0  0  0  0  0
   -5.4056    0.2288    5.0817 C   0  0  0  0  0  0  0  0  0  0  0  0
   -5.4731    1.2866    4.1399 C   0  0  0  0  0  0  0  0  0  0  0  0
   -5.9454    1.1406    2.8572 O   0  0  0  0  0  0  0  0  0  0  0  0
   -5.0701    2.5793    4.4546 C   0  0  0  0  0  0  0  0  0  0  0  0
   -4.5855    2.8548    5.7214 C   0  0  0  0  0  0  0  0  0  0  0  0
   -4.4797    1.8268    6.6555 C   0  0  0  0  0  0  0  0  0  0  0  0
   -4.8555    0.4953    6.3489 C   0  0  0  0  0  0  0  0  0  0  0  0
   -4.5912   -0.5463    7.4031 C   0  0  0  0  0  0  0  0  0  0  0  0
   -5.6676   -0.8227    8.1814 F   0  0  0  0  0  0  0  0  0  0  0  0
   -3.6136   -0.1371    8.2713 F   0  0  0  0  0  0  0  0  0  0  0  0
   -4.1311   -1.7264    6.9079 F   0  0  0  0  0  0  0  0  0  0  0  0
   -8.1954   -1.2668    5.9626 C   0  0  1  0  0  0  0  0  0  0  0  0
   -9.1108   -1.1707    4.7334 C   0  0  0  0  0  0  0  0  0  0  0  0
  -10.4793   -1.8095    4.6847 C   0  0  0  0  0  0  0  0  0  0  0  0
  -10.3590   -0.3163    4.7796 C   0  0  0  0  0  0  0  0  0  0  0  0
  1  2  2  0
  2  3  1  0
  3  4  1  0
  4  5  1  0
  5  6  1  0
  6  7  1  0
  7  8  2  0
  7  9  1  0
  9 10  2  0
 10 11  1  0
 10 12  1  0
 12 13  2  0
 13 14  1  0
 14 15  2  0
 15 16  1  0
 16 17  1  0
 16 18  1  0
 16 19  1  0
  6 20  1  0
 20 21  1  6
 21 22  1  0
 22 23  1  0
 20  2  1  0
 23 21  1  0
 15  9  1  0
M  END
>  <ref_mols>  (1904) 
7gpj-a

>  <gnina_score>  (1904) 
4.971

>  <smina_score_min>  (1904) 
-5.285

>  <ref_pdb>  (1904) 
7gpj-a

>  <inspiration_score>  (1904) 
None

>  <inchikey>  (1904) 
PXQXIDKRRCHOKN-LBPRGKRZSA-N

>  <tags>  (1904) 
BulkDock Fragalysis export,openbind_d68ev3c_c2_elabs_scored,openbind_d68ev3c_c2_elabs_scored_4.5plus,openbind_d68ev3c_c2_elabs,openbind_d68ev3c_c2_elabs_scored_5plus,syndirella_product,openbind_d68ev3c_c2_elabs_scored_top80percent,syndirella_placed

>  <smiles>  (1904) 
O=C1NCCN(C(=O)c2c(O)cccc2C(F)(F)F)[C@H]1C1CC1

>  <subsites>  (1904) 
None

>  <rmsd(smina/fragmenstein)>  (1904) 
0.727

>  <alias>  (1904) 
None

>  <energy_score>  (1904) 
-27.87327

>  <HIPPO Pose ID>  (1904) 
138710

>  <distance_score>  (1904) 
0.744789

>  <HIPPO Compound ID>  (1904) 
161807

>  <gnina_score_min>  (1904) 
5.043

>  <name>  (1904) 
P138710

>  <exports>  (1904) 
['/opt/xchem-fragalysis-2/maxwin/BulkDock/OUTPUTS/openbind_d68ev3c_c2_elabs_1LOTQJ3.sdf', '/opt/xchem-fragalysis-2/maxwin/BulkDock/OUTPUTS/openbind_d68ev3c_c2_elabs_1LSYI5W.sdf']

$$$$
P138711
     RDKit          3D

 23 24  0  0  0  0  0  0  0  0999 V2000
  -10.2832   -0.9305    8.9393 C   0  0  0  0  0  0  0  0  0  0  0  0
   -9.4053   -1.1700    7.8128 N   0  0  0  0  0  0  0  0  0  0  0  0
   -8.8005   -2.4510    7.5530 C   0  0  0  0  0  0  0  0  0  0  0  0
   -8.0356   -2.4899    6.1836 C   0  0  0  0  0  0  0  0  0  0  0  0
   -7.0729   -3.7160    6.3364 C   0  0  0  0  0  0  0  0  0  0  0  0
   -8.9703   -2.9577    5.0141 C   0  0  0  0  0  0  0  0  0  0  0  0
   -6.9778   -1.3197    5.9364 N   0  0  0  0  0  0  0  0  0  0  0  0
   -6.0546   -1.0666    4.7870 C   0  0  0  0  0  0  0  0  0  0  0  0
   -5.9483   -1.6255    3.7604 O   0  0  0  0  0  0  0  0  0  0  0  0
   -5.2424    0.1657    5.0283 C   0  0  0  0  0  0  0  0  0  0  0  0
   -5.1817    1.0595    3.9410 C   0  0  0  0  0  0  0  0  0  0  0  0
   -5.5631    0.7242    2.6666 O   0  0  0  0  0  0  0  0  0  0  0  0
   -4.7497    2.3681    4.1143 C   0  0  0  0  0  0  0  0  0  0  0  0
   -4.3668    2.8052    5.3760 C   0  0  0  0  0  0  0  0  0  0  0  0
   -4.3689    1.9166    6.4513 C   0  0  0  0  0  0  0  0  0  0  0  0
   -4.7683    0.5724    6.2896 C   0  0  0  0  0  0  0  0  0  0  0  0
   -4.6086   -0.3635    7.4598 C   0  0  0  0  0  0  0  0  0  0  0  0
   -4.2401   -1.6249    7.1014 F   0  0  0  0  0  0  0  0  0  0  0  0
   -5.7074   -0.4758    8.2487 F   0  0  0  0  0  0  0  0  0  0  0  0
   -3.6098    0.0577    8.2969 F   0  0  0  0  0  0  0  0  0  0  0  0
   -8.2579   -0.5415    5.7876 C   0  0  0  0  0  0  0  0  0  0  0  0
   -9.0444   -0.1282    7.0200 C   0  0  0  0  0  0  0  0  0  0  0  0
   -9.3888    1.0284    7.2315 O   0  0  0  0  0  0  0  0  0  0  0  0
  1  2  1  0
  2  3  1  0
  3  4  1  0
  4  5  1  0
  4  6  1  0
  4  7  1  0
  7  8  1  0
  8  9  2  0
  8 10  1  0
 10 11  2  0
 11 12  1  0
 11 13  1  0
 13 14  2  0
 14 15  1  0
 15 16  2  0
 16 17  1  0
 17 18  1  0
 17 19  1  0
 17 20  1  0
  7 21  1  0
 21 22  1  0
 22 23  2  0
 22  2  1  0
 16 10  1  0
M  END
>  <ref_mols>  (1905) 
7gpj-a

>  <gnina_score>  (1905) 
4.957

>  <smina_score_min>  (1905) 
-5.402

>  <ref_pdb>  (1905) 
7gpj-a

>  <inspiration_score>  (1905) 
None

>  <inchikey>  (1905) 
PKJYVQBRSWEUPI-UHFFFAOYSA-N

>  <tags>  (1905) 
BulkDock Fragalysis export,openbind_d68ev3c_c2_elabs_scored,openbind_d68ev3c_c2_elabs_scored_4.5plus,openbind_d68ev3c_c2_elabs,openbind_d68ev3c_c2_elabs_scored_5plus,syndirella_product,openbind_d68ev3c_c2_elabs_scored_top80percent,syndirella_placed

>  <smiles>  (1905) 
CN1CC(C)(C)N(C(=O)c2c(O)cccc2C(F)(F)F)CC1=O

>  <subsites>  (1905) 
None

>  <rmsd(smina/fragmenstein)>  (1905) 
0.759

>  <alias>  (1905) 
None

>  <energy_score>  (1905) 
-28.848613

>  <HIPPO Pose ID>  (1905) 
138711

>  <distance_score>  (1905) 
1.152116

>  <HIPPO Compound ID>  (1905) 
161810

>  <gnina_score_min>  (1905) 
5.014

>  <name>  (1905) 
P138711

>  <exports>  (1905) 
['/opt/xchem-fragalysis-2/maxwin/BulkDock/OUTPUTS/openbind_d68ev3c_c2_elabs_1LOTQJ3.sdf', '/opt/xchem-fragalysis-2/maxwin/BulkDock/OUTPUTS/openbind_d68ev3c_c2_elabs_1LSYI5W.sdf']

$$$$
P138718
     RDKit          3D

 23 24  0  0  0  0  0  0  0  0999 V2000
   -8.2729   -4.1352    7.1062 C   0  0  0  0  0  0  0  0  0  0  0  0
   -8.1495   -2.6274    7.1587 C   0  0  1  0  0  0  0  0  0  0  0  0
   -7.7707   -2.0502    5.8003 C   0  0  0  0  0  0  0  0  0  0  0  0
   -7.0537   -0.7480    5.8174 N   0  0  0  0  0  0  0  0  0  0  0  0
   -6.4159   -0.0311    4.7765 C   0  0  0  0  0  0  0  0  0  0  0  0
   -6.3681   -0.2456    3.5928 O   0  0  0  0  0  0  0  0  0  0  0  0
   -5.5867    1.1245    5.2440 C   0  0  0  0  0  0  0  0  0  0  0  0
   -5.5269    2.2503    4.3961 C   0  0  0  0  0  0  0  0  0  0  0  0
   -6.1093    2.2861    3.1544 O   0  0  0  0  0  0  0  0  0  0  0  0
   -4.8707    3.4123    4.7849 C   0  0  0  0  0  0  0  0  0  0  0  0
   -4.2458    3.4674    6.0234 C   0  0  0  0  0  0  0  0  0  0  0  0
   -4.2497    2.3469    6.8534 C   0  0  0  0  0  0  0  0  0  0  0  0
   -4.8849    1.1461    6.4666 C   0  0  0  0  0  0  0  0  0  0  0  0
   -4.7299   -0.0587    7.3625 C   0  0  0  0  0  0  0  0  0  0  0  0
   -5.7898   -0.2748    8.1856 F   0  0  0  0  0  0  0  0  0  0  0  0
   -4.4938   -1.2208    6.6917 F   0  0  0  0  0  0  0  0  0  0  0  0
   -3.6536    0.0711    8.1984 F   0  0  0  0  0  0  0  0  0  0  0  0
   -8.6006   -0.1714    6.0510 C   0  0  0  0  0  0  0  0  0  0  0  0
   -8.4048    1.3020    6.5675 C   0  0  0  0  0  0  0  0  0  0  0  0
   -9.4348    0.0007    4.7389 C   0  0  0  0  0  0  0  0  0  0  0  0
   -9.5778   -0.7359    7.1893 C   0  0  0  0  0  0  0  0  0  0  0  0
  -10.5403   -0.1197    7.6412 O   0  0  0  0  0  0  0  0  0  0  0  0
   -9.3816   -2.0334    7.5483 N   0  0  0  0  0  0  0  0  0  0  0  0
  2  1  1  6
  2  3  1  0
  3  4  1  0
  4  5  1  0
  5  6  2  0
  5  7  1  0
  7  8  2  0
  8  9  1  0
  8 10  1  0
 10 11  2  0
 11 12  1  0
 12 13  2  0
 13 14  1  0
 14 15  1  0
 14 16  1  0
 14 17  1  0
  4 18  1  0
 18 19  1  0
 18 20  1  0
 18 21  1  0
 21 22  2  0
 21 23  1  0
 23  2  1  0
 13  7  1  0
M  END
>  <ref_mols>  (1906) 
7gpj-a

>  <gnina_score>  (1906) 
4.833

>  <smina_score_min>  (1906) 
-5.722

>  <ref_pdb>  (1906) 
7gpj-a

>  <inspiration_score>  (1906) 
None

>  <inchikey>  (1906) 
GTCYYNGDHZWMNH-QMMMGPOBSA-N

>  <tags>  (1906) 
BulkDock Fragalysis export,openbind_d68ev3c_c2_elabs_scored,openbind_d68ev3c_c2_elabs_scored_4.5plus,openbind_d68ev3c_c2_elabs,openbind_d68ev3c_c2_elabs_scored_5plus,syndirella_product,openbind_d68ev3c_c2_elabs_scored_top80percent,syndirella_placed

>  <smiles>  (1906) 
C[C@H]1CN(C(=O)c2c(O)cccc2C(F)(F)F)C(C)(C)C(=O)N1

>  <subsites>  (1906) 
None

>  <rmsd(smina/fragmenstein)>  (1906) 
0.822

>  <alias>  (1906) 
None

>  <energy_score>  (1906) 
-22.015172

>  <HIPPO Pose ID>  (1906) 
138718

>  <distance_score>  (1906) 
1.432067

>  <HIPPO Compound ID>  (1906) 
161820

>  <gnina_score_min>  (1906) 
5.114

>  <name>  (1906) 
P138718

>  <exports>  (1906) 
['/opt/xchem-fragalysis-2/maxwin/BulkDock/OUTPUTS/openbind_d68ev3c_c2_elabs_1LOTQJ3.sdf', '/opt/xchem-fragalysis-2/maxwin/BulkDock/OUTPUTS/openbind_d68ev3c_c2_elabs_1LSYI5W.sdf']

$$$$
P138720
     RDKit          3D

 23 25  0  0  0  0  0  0  0  0999 V2000
   -9.5771   -0.4493    7.9200 O   0  0  0  0  0  0  0  0  0  0  0  0
   -9.0702   -1.3315    7.2378 C   0  0  0  0  0  0  0  0  0  0  0  0
   -9.2109   -2.6550    7.5338 N   0  0  0  0  0  0  0  0  0  0  0  0
   -8.1889   -3.5004    7.0211 C   0  0  0  0  0  0  0  0  0  0  0  0
   -7.5786   -2.9167    5.7305 C   0  0  1  0  0  0  0  0  0  0  0  0
   -8.3554   -3.3037    4.4405 C   0  0  0  0  0  0  0  0  0  0  0  0
   -8.9482   -2.1382    3.6963 C   0  0  0  0  0  0  0  0  0  0  0  0
   -9.2431   -1.0381    4.6735 C   0  0  0  0  0  0  0  0  0  0  0  0
   -8.3068   -1.0764    5.8968 C   0  0  2  0  0  0  0  0  0  0  0  0
   -6.8446   -1.5697    5.7745 N   0  0  0  0  0  0  0  0  0  0  0  0
   -6.1059   -0.8224    4.7009 C   0  0  0  0  0  0  0  0  0  0  0  0
   -5.9862   -1.0572    3.5574 O   0  0  0  0  0  0  0  0  0  0  0  0
   -5.5281    0.4704    5.1916 C   0  0  0  0  0  0  0  0  0  0  0  0
   -5.7359    1.6205    4.3854 C   0  0  0  0  0  0  0  0  0  0  0  0
   -6.7618    1.6688    2.7716 Br  0  0  0  0  0  0  0  0  0  0  0  0
   -5.2438    2.8686    4.7752 C   0  0  0  0  0  0  0  0  0  0  0  0
   -4.5782    3.0091    5.9806 C   0  0  0  0  0  0  0  0  0  0  0  0
   -4.3983    1.8997    6.7979 C   0  0  0  0  0  0  0  0  0  0  0  0
   -4.8429    0.6120    6.4162 C   0  0  0  0  0  0  0  0  0  0  0  0
   -4.5349   -0.5200    7.3629 C   0  0  0  0  0  0  0  0  0  0  0  0
   -3.4994   -0.1971    8.1998 F   0  0  0  0  0  0  0  0  0  0  0  0
   -4.1306   -1.6646    6.7520 F   0  0  0  0  0  0  0  0  0  0  0  0
   -5.5682   -0.8374    8.1841 F   0  0  0  0  0  0  0  0  0  0  0  0
  1  2  2  0
  2  3  1  0
  3  4  1  0
  5  4  1  1
  5  6  1  0
  6  7  1  0
  7  8  1  0
  9  8  1  6
  9 10  1  0
 10 11  1  0
 11 12  2  0
 11 13  1  0
 13 14  2  0
 14 15  1  0
 14 16  1  0
 16 17  2  0
 17 18  1  0
 18 19  2  0
 19 20  1  0
 20 21  1  0
 20 22  1  0
 20 23  1  0
  9  2  1  0
 19 13  1  0
 10  5  1  0
M  END
>  <ref_mols>  (1907) 
7gpj-a

>  <gnina_score>  (1907) 
5.165

>  <smina_score_min>  (1907) 
-5.28

>  <ref_pdb>  (1907) 
7gpj-a

>  <inspiration_score>  (1907) 
None

>  <inchikey>  (1907) 
CFOMBUHGGJYHCZ-KCJUWKMLSA-N

>  <tags>  (1907) 
BulkDock Fragalysis export,openbind_d68ev3c_c2_elabs_scored,openbind_d68ev3c_c2_elabs_scored_4.5plus,openbind_d68ev3c_c2_elabs,openbind_d68ev3c_c2_elabs_scored_5plus,syndirella_product,openbind_d68ev3c_c2_elabs_scored_top80percent,syndirella_placed

>  <smiles>  (1907) 
O=C1NC[C@H]2CCC[C@@H]1N2C(=O)c1c(Br)cccc1C(F)(F)F

>  <subsites>  (1907) 
None

>  <rmsd(smina/fragmenstein)>  (1907) 
0.733

>  <alias>  (1907) 
None

>  <energy_score>  (1907) 
-45.391744

>  <HIPPO Pose ID>  (1907) 
138720

>  <distance_score>  (1907) 
0.874788

>  <HIPPO Compound ID>  (1907) 
161877

>  <gnina_score_min>  (1907) 
5.194

>  <name>  (1907) 
P138720

>  <exports>  (1907) 
['/opt/xchem-fragalysis-2/maxwin/BulkDock/OUTPUTS/openbind_d68ev3c_c2_elabs_1LOTQJ3.sdf', '/opt/xchem-fragalysis-2/maxwin/BulkDock/OUTPUTS/openbind_d68ev3c_c2_elabs_1LSYI5W.sdf']

$$$$
P138722
     RDKit          3D

 23 25  0  0  0  0  0  0  0  0999 V2000
   -5.1960    3.8436    3.5467 C   0  0  0  0  0  0  0  0  0  0  0  0
   -5.0589    2.7149    4.5239 C   0  0  0  0  0  0  0  0  0  0  0  0
   -4.5215    2.9299    5.7867 C   0  0  0  0  0  0  0  0  0  0  0  0
   -4.4188    1.8749    6.6942 C   0  0  0  0  0  0  0  0  0  0  0  0
   -4.8471    0.5657    6.3725 C   0  0  0  0  0  0  0  0  0  0  0  0
   -4.5960   -0.5117    7.3926 C   0  0  0  0  0  0  0  0  0  0  0  0
   -3.6048   -0.1466    8.2657 F   0  0  0  0  0  0  0  0  0  0  0  0
   -4.1618   -1.6862    6.8615 F   0  0  0  0  0  0  0  0  0  0  0  0
   -5.6716   -0.7899    8.1727 F   0  0  0  0  0  0  0  0  0  0  0  0
   -5.4475    0.3596    5.1220 C   0  0  0  0  0  0  0  0  0  0  0  0
   -6.1440   -0.8764    4.6278 C   0  0  0  0  0  0  0  0  0  0  0  0
   -6.1526   -1.0393    3.4641 O   0  0  0  0  0  0  0  0  0  0  0  0
   -6.8082   -1.6587    5.7230 N   0  0  0  0  0  0  0  0  0  0  0  0
   -7.6116   -2.9628    5.6727 C   0  0  2  0  0  0  0  0  0  0  0  0
   -8.5498   -3.2311    4.4621 C   0  0  0  0  0  0  0  0  0  0  0  0
   -9.1478   -1.9936    3.8453 C   0  0  0  0  0  0  0  0  0  0  0  0
   -9.2139   -0.8915    4.8660 C   0  0  0  0  0  0  0  0  0  0  0  0
   -8.2226   -1.1080    6.0268 C   0  0  1  0  0  0  0  0  0  0  0  0
   -8.9490   -1.4273    7.3726 C   0  0  0  0  0  0  0  0  0  0  0  0
   -9.5017   -0.5805    8.0656 O   0  0  0  0  0  0  0  0  0  0  0  0
   -9.0421   -2.7591    7.6394 N   0  0  0  0  0  0  0  0  0  0  0  0
   -8.0964   -3.6000    6.9907 C   0  0  0  0  0  0  0  0  0  0  0  0
   -5.5345    1.4404    4.2124 C   0  0  0  0  0  0  0  0  0  0  0  0
  1  2  1  0
  2  3  2  0
  3  4  1  0
  4  5  2  0
  5  6  1  0
  6  7  1  0
  6  8  1  0
  6  9  1  0
  5 10  1  0
 10 11  1  0
 11 12  2  0
 11 13  1  0
 13 14  1  0
 14 15  1  6
 15 16  1  0
 16 17  1  0
 18 17  1  6
 18 19  1  0
 19 20  2  0
 19 21  1  0
 21 22  1  0
 10 23  2  0
 23  2  1  0
 18 13  1  0
 22 14  1  0
M  END
>  <ref_mols>  (1908) 
7gpj-a

>  <gnina_score>  (1908) 
5.018

>  <smina_score_min>  (1908) 
-5.515

>  <ref_pdb>  (1908) 
7gpj-a

>  <inspiration_score>  (1908) 
None

>  <inchikey>  (1908) 
WNYLLDFDPNYFBA-MFKMUULPSA-N

>  <tags>  (1908) 
BulkDock Fragalysis export,openbind_d68ev3c_c2_elabs_scored,openbind_d68ev3c_c2_elabs_scored_4.5plus,openbind_d68ev3c_c2_elabs,openbind_d68ev3c_c2_elabs_scored_5plus,syndirella_product,openbind_d68ev3c_c2_elabs_scored_top80percent,syndirella_placed

>  <smiles>  (1908) 
Cc1ccc(C(F)(F)F)c(C(=O)N2[C@@H]3CCC[C@H]2C(=O)NC3)c1

>  <subsites>  (1908) 
None

>  <rmsd(smina/fragmenstein)>  (1908) 
0.752

>  <alias>  (1908) 
None

>  <energy_score>  (1908) 
-38.043556

>  <HIPPO Pose ID>  (1908) 
138722

>  <distance_score>  (1908) 
0.827822

>  <HIPPO Compound ID>  (1908) 
161936

>  <gnina_score_min>  (1908) 
5.087

>  <name>  (1908) 
P138722

>  <exports>  (1908) 
['/opt/xchem-fragalysis-2/maxwin/BulkDock/OUTPUTS/openbind_d68ev3c_c2_elabs_1LOTQJ3.sdf', '/opt/xchem-fragalysis-2/maxwin/BulkDock/OUTPUTS/openbind_d68ev3c_c2_elabs_1LSYI5W.sdf']

$$$$
P138725
     RDKit          3D

 23 24  0  0  0  0  0  0  0  0999 V2000
   -7.0966   -4.0709    6.5618 C   0  0  0  0  0  0  0  0  0  0  0  0
   -8.0435   -3.4351    5.5754 C   0  0  0  0  0  0  0  0  0  0  0  0
   -8.5606   -2.0386    5.9759 C   0  0  1  0  0  0  0  0  0  0  0  0
   -9.2541   -2.1517    7.3604 C   0  0  0  0  0  0  0  0  0  0  0  0
   -9.8282   -0.8860    7.7429 N   0  0  0  0  0  0  0  0  0  0  0  0
  -10.6012   -0.7605    8.9602 C   0  0  0  0  0  0  0  0  0  0  0  0
   -9.1285    0.1987    7.2835 C   0  0  0  0  0  0  0  0  0  0  0  0
   -9.0372    1.2601    7.8836 O   0  0  0  0  0  0  0  0  0  0  0  0
   -8.5215   -0.0539    5.9024 C   0  0  0  0  0  0  0  0  0  0  0  0
   -7.3645   -1.0269    5.8624 N   0  0  0  0  0  0  0  0  0  0  0  0
   -6.4436   -0.7279    4.7192 C   0  0  0  0  0  0  0  0  0  0  0  0
   -6.4510   -1.1241    3.6121 O   0  0  0  0  0  0  0  0  0  0  0  0
   -5.4270    0.3221    5.0620 C   0  0  0  0  0  0  0  0  0  0  0  0
   -5.2574    1.2945    4.0463 C   0  0  0  0  0  0  0  0  0  0  0  0
   -5.6848    1.1281    2.7506 O   0  0  0  0  0  0  0  0  0  0  0  0
   -4.6714    2.5264    4.3068 C   0  0  0  0  0  0  0  0  0  0  0  0
   -4.2439    2.8216    5.5907 C   0  0  0  0  0  0  0  0  0  0  0  0
   -4.3429    1.8558    6.5905 C   0  0  0  0  0  0  0  0  0  0  0  0
   -4.8895    0.5761    6.3359 C   0  0  0  0  0  0  0  0  0  0  0  0
   -4.7786   -0.4516    7.4293 C   0  0  0  0  0  0  0  0  0  0  0  0
   -4.4482   -1.6882    6.9666 F   0  0  0  0  0  0  0  0  0  0  0  0
   -5.8869   -0.5897    8.1967 F   0  0  0  0  0  0  0  0  0  0  0  0
   -3.7713   -0.1348    8.3029 F   0  0  0  0  0  0  0  0  0  0  0  0
  1  2  1  0
  3  2  1  1
  3  4  1  0
  4  5  1  0
  5  6  1  0
  5  7  1  0
  7  8  2  0
  7  9  1  0
  9 10  1  0
 10 11  1  0
 11 12  2  0
 11 13  1  0
 13 14  2  0
 14 15  1  0
 14 16  1  0
 16 17  2  0
 17 18  1  0
 18 19  2  0
 19 20  1  0
 20 21  1  0
 20 22  1  0
 20 23  1  0
 10  3  1  0
 19 13  1  0
M  END
>  <ref_mols>  (1909) 
7gpj-a

>  <gnina_score>  (1909) 
4.996

>  <smina_score_min>  (1909) 
-5.652

>  <ref_pdb>  (1909) 
7gpj-a

>  <inspiration_score>  (1909) 
None

>  <inchikey>  (1909) 
FNJCJNMOHOPPQT-VIFPVBQESA-N

>  <tags>  (1909) 
BulkDock Fragalysis export,openbind_d68ev3c_c2_elabs_scored,openbind_d68ev3c_c2_elabs_scored_4.5plus,openbind_d68ev3c_c2_elabs,openbind_d68ev3c_c2_elabs_scored_5plus,syndirella_product,openbind_d68ev3c_c2_elabs_scored_top80percent,syndirella_placed

>  <smiles>  (1909) 
CC[C@H]1CN(C)C(=O)CN1C(=O)c1c(O)cccc1C(F)(F)F

>  <subsites>  (1909) 
None

>  <rmsd(smina/fragmenstein)>  (1909) 
0.813

>  <alias>  (1909) 
None

>  <energy_score>  (1909) 
-6.018565

>  <HIPPO Pose ID>  (1909) 
138725

>  <distance_score>  (1909) 
1.409624

>  <HIPPO Compound ID>  (1909) 
161966

>  <gnina_score_min>  (1909) 
5.015

>  <name>  (1909) 
P138725

>  <exports>  (1909) 
['/opt/xchem-fragalysis-2/maxwin/BulkDock/OUTPUTS/openbind_d68ev3c_c2_elabs_1LOTQJ3.sdf', '/opt/xchem-fragalysis-2/maxwin/BulkDock/OUTPUTS/openbind_d68ev3c_c2_elabs_1LSYI5W.sdf']

$$$$
P138726
     RDKit          3D

 23 25  0  0  0  0  0  0  0  0999 V2000
   -3.9509    4.2787    6.1495 C   0  0  0  0  0  0  0  0  0  0  0  0
   -4.4983    2.9286    5.7886 C   0  0  0  0  0  0  0  0  0  0  0  0
   -5.0423    2.6963    4.5317 C   0  0  0  0  0  0  0  0  0  0  0  0
   -5.5226    1.4307    4.2104 C   0  0  0  0  0  0  0  0  0  0  0  0
   -5.4500    0.3520    5.1199 C   0  0  0  0  0  0  0  0  0  0  0  0
   -6.1538   -0.8797    4.6247 C   0  0  0  0  0  0  0  0  0  0  0  0
   -6.1698   -1.0383    3.4605 O   0  0  0  0  0  0  0  0  0  0  0  0
   -6.8143   -1.6634    5.7207 N   0  0  0  0  0  0  0  0  0  0  0  0
   -7.6225   -2.9642    5.6704 C   0  0  2  0  0  0  0  0  0  0  0  0
   -8.5677   -3.2249    4.4636 C   0  0  0  0  0  0  0  0  0  0  0  0
   -9.1699   -1.9842    3.8571 C   0  0  0  0  0  0  0  0  0  0  0  0
   -9.2194   -0.8820    4.8786 C   0  0  0  0  0  0  0  0  0  0  0  0
   -8.2252   -1.1087    6.0349 C   0  0  1  0  0  0  0  0  0  0  0  0
   -8.9480   -1.4302    7.3815 C   0  0  0  0  0  0  0  0  0  0  0  0
   -9.5007   -0.5846    8.0761 O   0  0  0  0  0  0  0  0  0  0  0  0
   -9.0390   -2.7621    7.6475 N   0  0  0  0  0  0  0  0  0  0  0  0
   -8.1021   -3.6049    6.9887 C   0  0  0  0  0  0  0  0  0  0  0  0
   -4.8480    0.5560    6.3701 C   0  0  0  0  0  0  0  0  0  0  0  0
   -4.6023   -0.5225    7.3909 C   0  0  0  0  0  0  0  0  0  0  0  0
   -3.6100   -0.1625    8.2649 F   0  0  0  0  0  0  0  0  0  0  0  0
   -4.1727   -1.6989    6.8601 F   0  0  0  0  0  0  0  0  0  0  0  0
   -5.6795   -0.7959    8.1703 F   0  0  0  0  0  0  0  0  0  0  0  0
   -4.4034    1.8626    6.6909 C   0  0  0  0  0  0  0  0  0  0  0  0
  1  2  1  0
  2  3  2  0
  3  4  1  0
  4  5  2  0
  5  6  1  0
  6  7  2  0
  6  8  1  0
  8  9  1  0
  9 10  1  6
 10 11  1  0
 11 12  1  0
 13 12  1  6
 13 14  1  0
 14 15  2  0
 14 16  1  0
 16 17  1  0
  5 18  1  0
 18 19  1  0
 19 20  1  0
 19 21  1  0
 19 22  1  0
 18 23  2  0
 23  2  1  0
 13  8  1  0
 17  9  1  0
M  END
>  <ref_mols>  (1910) 
7gpj-a

>  <gnina_score>  (1910) 
5.067

>  <smina_score_min>  (1910) 
-5.642

>  <ref_pdb>  (1910) 
7gpj-a

>  <inspiration_score>  (1910) 
None

>  <inchikey>  (1910) 
KODKHWQXYPNECO-MFKMUULPSA-N

>  <tags>  (1910) 
BulkDock Fragalysis export,openbind_d68ev3c_c2_elabs_scored,openbind_d68ev3c_c2_elabs_scored_4.5plus,openbind_d68ev3c_c2_elabs,openbind_d68ev3c_c2_elabs_scored_5plus,syndirella_product,openbind_d68ev3c_c2_elabs_scored_top80percent,syndirella_placed

>  <smiles>  (1910) 
Cc1ccc(C(=O)N2[C@@H]3CCC[C@H]2C(=O)NC3)c(C(F)(F)F)c1

>  <subsites>  (1910) 
None

>  <rmsd(smina/fragmenstein)>  (1910) 
0.607

>  <alias>  (1910) 
None

>  <energy_score>  (1910) 
-60.054452

>  <HIPPO Pose ID>  (1910) 
138726

>  <distance_score>  (1910) 
0.830469

>  <HIPPO Compound ID>  (1910) 
162008

>  <gnina_score_min>  (1910) 
5.076

>  <name>  (1910) 
P138726

>  <exports>  (1910) 
['/opt/xchem-fragalysis-2/maxwin/BulkDock/OUTPUTS/openbind_d68ev3c_c2_elabs_1LOTQJ3.sdf', '/opt/xchem-fragalysis-2/maxwin/BulkDock/OUTPUTS/openbind_d68ev3c_c2_elabs_1LSYI5W.sdf']

$$$$
P138729
     RDKit          3D

 23 24  0  0  0  0  0  0  0  0999 V2000
   -8.1646    0.4938    6.7840 O   0  0  0  0  0  0  0  0  0  0  0  0
   -8.9811   -0.4227    6.6880 C   0  0  0  0  0  0  0  0  0  0  0  0
   -9.0046   -1.6047    7.6574 C   0  0  0  0  0  0  0  0  0  0  0  0
   -9.3385   -2.8755    7.0025 N   0  0  0  0  0  0  0  0  0  0  0  0
   -8.3497   -3.4630    6.0876 C   0  0  0  0  0  0  0  0  0  0  0  0
   -6.8578   -3.2738    6.3836 C   0  0  0  0  0  0  0  0  0  0  0  0
   -6.4198   -1.9236    6.1379 N   0  0  0  0  0  0  0  0  0  0  0  0
   -5.8499   -1.2786    4.8754 C   0  0  0  0  0  0  0  0  0  0  0  0
   -5.7115   -1.7103    3.8052 O   0  0  0  0  0  0  0  0  0  0  0  0
   -5.5169    0.1696    5.0656 C   0  0  0  0  0  0  0  0  0  0  0  0
   -5.9214    0.9827    3.9856 C   0  0  0  0  0  0  0  0  0  0  0  0
   -5.6878    2.3479    3.9903 C   0  0  0  0  0  0  0  0  0  0  0  0
   -5.0539    2.9139    5.0831 C   0  0  0  0  0  0  0  0  0  0  0  0
   -4.6431    2.1196    6.1637 C   0  0  0  0  0  0  0  0  0  0  0  0
   -3.8825    2.9904    7.4407 Cl  0  0  0  0  0  0  0  0  0  0  0  0
   -4.8379    0.7255    6.1747 C   0  0  0  0  0  0  0  0  0  0  0  0
   -4.3570   -0.1403    7.3103 C   0  0  0  0  0  0  0  0  0  0  0  0
   -5.3709   -0.5099    8.1436 F   0  0  0  0  0  0  0  0  0  0  0  0
   -3.7847   -1.3029    6.8806 F   0  0  0  0  0  0  0  0  0  0  0  0
   -3.4086    0.4105    8.1138 F   0  0  0  0  0  0  0  0  0  0  0  0
  -10.6473   -2.7227    6.3343 C   0  0  0  0  0  0  0  0  0  0  0  0
  -10.6822   -1.5751    5.3094 C   0  0  0  0  0  0  0  0  0  0  0  0
   -9.9724   -0.3793    5.7373 N   0  0  0  0  0  0  0  0  0  0  0  0
  1  2  2  0
  2  3  1  0
  3  4  1  0
  4  5  1  0
  5  6  1  0
  6  7  1  0
  7  8  1  0
  8  9  2  0
  8 10  1  0
 10 11  2  0
 11 12  1  0
 12 13  2  0
 13 14  1  0
 14 15  1  0
 14 16  2  0
 16 17  1  0
 17 18  1  0
 17 19  1  0
 17 20  1  0
  4 21  1  0
 21 22  1  0
 22 23  1  0
 23  2  1  0
 16 10  1  0
M  END
>  <ref_mols>  (1911) 
7gpj-a

>  <gnina_score>  (1911) 
4.974

>  <smina_score_min>  (1911) 
-4.47

>  <ref_pdb>  (1911) 
7gpj-a

>  <inspiration_score>  (1911) 
None

>  <inchikey>  (1911) 
SGKAYOVGLCYWRU-UHFFFAOYSA-N

>  <tags>  (1911) 
BulkDock Fragalysis export,openbind_d68ev3c_c2_elabs_scored,openbind_d68ev3c_c2_elabs_scored_4.5plus,openbind_d68ev3c_c2_elabs,openbind_d68ev3c_c2_elabs_scored_5plus,syndirella_product,openbind_d68ev3c_c2_elabs_scored_top80percent,syndirella_placed

>  <smiles>  (1911) 
O=C1CN(CCNC(=O)c2cccc(Cl)c2C(F)(F)F)CCN1

>  <subsites>  (1911) 
None

>  <rmsd(smina/fragmenstein)>  (1911) 
1.605

>  <alias>  (1911) 
None

>  <energy_score>  (1911) 
-34.324331

>  <HIPPO Pose ID>  (1911) 
138729

>  <distance_score>  (1911) 
0.701123

>  <HIPPO Compound ID>  (1911) 
162093

>  <gnina_score_min>  (1911) 
5.025

>  <name>  (1911) 
P138729

>  <exports>  (1911) 
['/opt/xchem-fragalysis-2/maxwin/BulkDock/OUTPUTS/openbind_d68ev3c_c2_elabs_1LOTQJ3.sdf', '/opt/xchem-fragalysis-2/maxwin/BulkDock/OUTPUTS/openbind_d68ev3c_c2_elabs_1LSYI5W.sdf']

$$$$
P138730
     RDKit          3D

 23 25  0  0  0  0  0  0  0  0999 V2000
   -9.5129   -0.5044    7.9968 O   0  0  0  0  0  0  0  0  0  0  0  0
   -8.9786   -1.3827    7.3295 C   0  0  0  0  0  0  0  0  0  0  0  0
   -9.0650   -2.6994    7.6622 N   0  0  0  0  0  0  0  0  0  0  0  0
   -8.1341   -3.5679    7.0334 C   0  0  0  0  0  0  0  0  0  0  0  0
   -7.7019   -3.0022    5.6710 C   0  0  1  0  0  0  0  0  0  0  0  0
   -8.6842   -3.3209    4.5077 C   0  0  0  0  0  0  0  0  0  0  0  0
   -9.3428   -2.1217    3.8742 C   0  0  0  0  0  0  0  0  0  0  0  0
   -9.3227   -0.9509    4.8157 C   0  0  0  0  0  0  0  0  0  0  0  0
   -8.2918   -1.1286    5.9451 C   0  0  2  0  0  0  0  0  0  0  0  0
   -6.8936   -1.7087    5.6039 N   0  0  0  0  0  0  0  0  0  0  0  0
   -6.2822   -0.9994    4.4348 C   0  0  0  0  0  0  0  0  0  0  0  0
   -6.3497   -1.2308    3.2850 O   0  0  0  0  0  0  0  0  0  0  0  0
   -5.5515    0.2636    4.8004 C   0  0  0  0  0  0  0  0  0  0  0  0
   -5.6719    1.2424    3.7782 C   0  0  0  0  0  0  0  0  0  0  0  0
   -5.2211    2.5401    3.9396 C   0  0  0  0  0  0  0  0  0  0  0  0
   -4.6644    2.8942    5.1485 C   0  0  0  0  0  0  0  0  0  0  0  0
   -4.5292    1.9446    6.1705 C   0  0  0  0  0  0  0  0  0  0  0  0
   -3.8604    2.5778    7.6197 Cl  0  0  0  0  0  0  0  0  0  0  0  0
   -4.9195    0.5955    6.0156 C   0  0  0  0  0  0  0  0  0  0  0  0
   -4.6437   -0.4092    7.1073 C   0  0  0  0  0  0  0  0  0  0  0  0
   -5.6718   -0.5545    7.9847 F   0  0  0  0  0  0  0  0  0  0  0  0
   -3.5526   -0.1029    7.8737 F   0  0  0  0  0  0  0  0  0  0  0  0
   -4.3478   -1.6546    6.6366 F   0  0  0  0  0  0  0  0  0  0  0  0
  1  2  2  0
  2  3  1  0
  3  4  1  0
  5  4  1  1
  5  6  1  0
  6  7  1  0
  7  8  1  0
  9  8  1  6
  9 10  1  0
 10 11  1  0
 11 12  2  0
 11 13  1  0
 13 14  2  0
 14 15  1  0
 15 16  2  0
 16 17  1  0
 17 18  1  0
 17 19  2  0
 19 20  1  0
 20 21  1  0
 20 22  1  0
 20 23  1  0
  9  2  1  0
 19 13  1  0
 10  5  1  0
M  END
>  <ref_mols>  (1912) 
7gpj-a

>  <gnina_score>  (1912) 
5.118

>  <smina_score_min>  (1912) 
-5.027

>  <ref_pdb>  (1912) 
7gpj-a

>  <inspiration_score>  (1912) 
None

>  <inchikey>  (1912) 
ZLRTVUJDGOMOJB-KCJUWKMLSA-N

>  <tags>  (1912) 
BulkDock Fragalysis export,openbind_d68ev3c_c2_elabs_scored,openbind_d68ev3c_c2_elabs_scored_4.5plus,openbind_d68ev3c_c2_elabs,openbind_d68ev3c_c2_elabs_scored_5plus,syndirella_product,openbind_d68ev3c_c2_elabs_scored_top80percent,syndirella_placed

>  <smiles>  (1912) 
O=C1NC[C@H]2CCC[C@@H]1N2C(=O)c1cccc(Cl)c1C(F)(F)F

>  <subsites>  (1912) 
None

>  <rmsd(smina/fragmenstein)>  (1912) 
0.276

>  <alias>  (1912) 
None

>  <energy_score>  (1912) 
-72.277242

>  <HIPPO Pose ID>  (1912) 
138730

>  <distance_score>  (1912) 
0.870307

>  <HIPPO Compound ID>  (1912) 
162095

>  <gnina_score_min>  (1912) 
5.157

>  <name>  (1912) 
P138730

>  <exports>  (1912) 
['/opt/xchem-fragalysis-2/maxwin/BulkDock/OUTPUTS/openbind_d68ev3c_c2_elabs_1LOTQJ3.sdf', '/opt/xchem-fragalysis-2/maxwin/BulkDock/OUTPUTS/openbind_d68ev3c_c2_elabs_1LSYI5W.sdf']

$$$$
P138731
     RDKit          3D

 23 25  0  0  0  0  0  0  0  0999 V2000
   -9.5514   -0.5205    7.9840 O   0  0  0  0  0  0  0  0  0  0  0  0
   -9.0168   -1.3847    7.2990 C   0  0  0  0  0  0  0  0  0  0  0  0
   -9.1314   -2.7122    7.5813 N   0  0  0  0  0  0  0  0  0  0  0  0
   -8.1473   -3.5571    6.9983 C   0  0  0  0  0  0  0  0  0  0  0  0
   -7.5977   -2.9449    5.6938 C   0  0  1  0  0  0  0  0  0  0  0  0
   -8.4589   -3.2664    4.4396 C   0  0  0  0  0  0  0  0  0  0  0  0
   -9.0512   -2.0607    3.7594 C   0  0  0  0  0  0  0  0  0  0  0  0
   -9.2201   -0.9510    4.7582 C   0  0  0  0  0  0  0  0  0  0  0  0
   -8.2657   -1.0946    5.9593 C   0  0  2  0  0  0  0  0  0  0  0  0
   -6.8263   -1.6199    5.7470 N   0  0  0  0  0  0  0  0  0  0  0  0
   -6.1218   -0.8539    4.6643 C   0  0  0  0  0  0  0  0  0  0  0  0
   -6.0650   -1.0506    3.5083 O   0  0  0  0  0  0  0  0  0  0  0  0
   -5.4866    0.4025    5.1653 C   0  0  0  0  0  0  0  0  0  0  0  0
   -5.6567    1.5107    4.3106 C   0  0  0  0  0  0  0  0  0  0  0  0
   -6.3224    1.4059    3.1497 F   0  0  0  0  0  0  0  0  0  0  0  0
   -5.1955    2.7764    4.6462 C   0  0  0  0  0  0  0  0  0  0  0  0
   -4.5742    2.9734    5.8670 C   0  0  0  0  0  0  0  0  0  0  0  0
   -4.4117    1.8962    6.7368 C   0  0  0  0  0  0  0  0  0  0  0  0
   -4.8408    0.5894    6.3986 C   0  0  0  0  0  0  0  0  0  0  0  0
   -4.5553   -0.5100    7.3861 C   0  0  0  0  0  0  0  0  0  0  0  0
   -3.5445   -0.1572    8.2399 F   0  0  0  0  0  0  0  0  0  0  0  0
   -4.1306   -1.6688    6.8169 F   0  0  0  0  0  0  0  0  0  0  0  0
   -5.6097   -0.8098    8.1861 F   0  0  0  0  0  0  0  0  0  0  0  0
  1  2  2  0
  2  3  1  0
  3  4  1  0
  5  4  1  1
  5  6  1  0
  6  7  1  0
  7  8  1  0
  9  8  1  6
  9 10  1  0
 10 11  1  0
 11 12  2  0
 11 13  1  0
 13 14  2  0
 14 15  1  0
 14 16  1  0
 16 17  2  0
 17 18  1  0
 18 19  2  0
 19 20  1  0
 20 21  1  0
 20 22  1  0
 20 23  1  0
  9  2  1  0
 19 13  1  0
 10  5  1  0
M  END
>  <ref_mols>  (1913) 
7gpj-a

>  <gnina_score>  (1913) 
5.07

>  <smina_score_min>  (1913) 
-5.242

>  <ref_pdb>  (1913) 
7gpj-a

>  <inspiration_score>  (1913) 
None

>  <inchikey>  (1913) 
IJEIIODLKSTNAS-KCJUWKMLSA-N

>  <tags>  (1913) 
BulkDock Fragalysis export,openbind_d68ev3c_c2_elabs_scored,openbind_d68ev3c_c2_elabs_scored_4.5plus,openbind_d68ev3c_c2_elabs,openbind_d68ev3c_c2_elabs_scored_5plus,syndirella_product,openbind_d68ev3c_c2_elabs_scored_top80percent,syndirella_placed

>  <smiles>  (1913) 
O=C1NC[C@H]2CCC[C@@H]1N2C(=O)c1c(F)cccc1C(F)(F)F

>  <subsites>  (1913) 
None

>  <rmsd(smina/fragmenstein)>  (1913) 
0.894

>  <alias>  (1913) 
None

>  <energy_score>  (1913) 
-32.867455

>  <HIPPO Pose ID>  (1913) 
138731

>  <distance_score>  (1913) 
0.839449

>  <HIPPO Compound ID>  (1913) 
162110

>  <gnina_score_min>  (1913) 
5.146

>  <name>  (1913) 
P138731

>  <exports>  (1913) 
['/opt/xchem-fragalysis-2/maxwin/BulkDock/OUTPUTS/openbind_d68ev3c_c2_elabs_1LOTQJ3.sdf', '/opt/xchem-fragalysis-2/maxwin/BulkDock/OUTPUTS/openbind_d68ev3c_c2_elabs_1LSYI5W.sdf']

$$$$
P138732
     RDKit          3D

 23 24  0  0  0  0  0  0  0  0999 V2000
  -10.3876   -2.0844    4.6726 C   0  0  0  0  0  0  0  0  0  0  0  0
   -9.1125   -1.2376    4.5990 C   0  0  0  0  0  0  0  0  0  0  0  0
   -9.5246    0.2147    4.3056 C   0  0  0  0  0  0  0  0  0  0  0  0
   -8.2148   -1.3208    5.8950 C   0  0  1  0  0  0  0  0  0  0  0  0
   -8.9790   -1.5417    7.2360 C   0  0  0  0  0  0  0  0  0  0  0  0
   -9.5647   -0.6547    7.8463 O   0  0  0  0  0  0  0  0  0  0  0  0
   -9.0257   -2.8463    7.6202 N   0  0  0  0  0  0  0  0  0  0  0  0
   -8.0821   -3.7353    7.0326 C   0  0  0  0  0  0  0  0  0  0  0  0
   -7.4377   -3.1432    5.7755 C   0  0  0  0  0  0  0  0  0  0  0  0
   -6.7309   -1.8024    5.7837 N   0  0  0  0  0  0  0  0  0  0  0  0
   -6.0032   -1.0733    4.6902 C   0  0  0  0  0  0  0  0  0  0  0  0
   -5.8809   -1.3361    3.5529 O   0  0  0  0  0  0  0  0  0  0  0  0
   -5.4437    0.2372    5.1460 C   0  0  0  0  0  0  0  0  0  0  0  0
   -5.6228    1.2967    4.2345 C   0  0  0  0  0  0  0  0  0  0  0  0
   -6.2337    1.1083    3.0543 F   0  0  0  0  0  0  0  0  0  0  0  0
   -5.2245    2.5952    4.5270 C   0  0  0  0  0  0  0  0  0  0  0  0
   -4.6516    2.8724    5.7565 C   0  0  0  0  0  0  0  0  0  0  0  0
   -4.4731    1.8418    6.6783 C   0  0  0  0  0  0  0  0  0  0  0  0
   -4.8414    0.5054    6.3862 C   0  0  0  0  0  0  0  0  0  0  0  0
   -4.5367   -0.5409    7.4239 C   0  0  0  0  0  0  0  0  0  0  0  0
   -5.5936   -0.8372    8.2219 F   0  0  0  0  0  0  0  0  0  0  0  0
   -3.5491   -0.1213    8.2742 F   0  0  0  0  0  0  0  0  0  0  0  0
   -4.0708   -1.7096    6.9104 F   0  0  0  0  0  0  0  0  0  0  0  0
  1  2  1  0
  2  3  1  0
  4  2  1  6
  4  5  1  0
  5  6  2  0
  5  7  1  0
  7  8  1  0
  8  9  1  0
  9 10  1  0
 10 11  1  0
 11 12  2  0
 11 13  1  0
 13 14  2  0
 14 15  1  0
 14 16  1  0
 16 17  2  0
 17 18  1  0
 18 19  2  0
 19 20  1  0
 20 21  1  0
 20 22  1  0
 20 23  1  0
 10  4  1  0
 19 13  1  0
M  END
>  <ref_mols>  (1914) 
7gpj-a

>  <gnina_score>  (1914) 
5.149

>  <smina_score_min>  (1914) 
-5.381

>  <ref_pdb>  (1914) 
7gpj-a

>  <inspiration_score>  (1914) 
None

>  <inchikey>  (1914) 
YUIAPXGHUPOILF-LBPRGKRZSA-N

>  <tags>  (1914) 
BulkDock Fragalysis export,openbind_d68ev3c_c2_elabs_scored,openbind_d68ev3c_c2_elabs_scored_4.5plus,openbind_d68ev3c_c2_elabs,openbind_d68ev3c_c2_elabs_scored_5plus,syndirella_product,openbind_d68ev3c_c2_elabs_scored_top80percent,syndirella_placed

>  <smiles>  (1914) 
CC(C)[C@H]1C(=O)NCCN1C(=O)c1c(F)cccc1C(F)(F)F

>  <subsites>  (1914) 
None

>  <rmsd(smina/fragmenstein)>  (1914) 
0.678

>  <alias>  (1914) 
None

>  <energy_score>  (1914) 
-1.940682

>  <HIPPO Pose ID>  (1914) 
138732

>  <distance_score>  (1914) 
0.726842

>  <HIPPO Compound ID>  (1914) 
162111

>  <gnina_score_min>  (1914) 
5.175

>  <name>  (1914) 
P138732

>  <exports>  (1914) 
['/opt/xchem-fragalysis-2/maxwin/BulkDock/OUTPUTS/openbind_d68ev3c_c2_elabs_1LOTQJ3.sdf', '/opt/xchem-fragalysis-2/maxwin/BulkDock/OUTPUTS/openbind_d68ev3c_c2_elabs_1LSYI5W.sdf']

$$$$
P138738
     RDKit          3D

 23 24  0  0  0  0  0  0  0  0999 V2000
   -9.4788    0.3307    4.4452 C   0  0  0  0  0  0  0  0  0  0  0  0
   -9.1320   -1.1459    4.6945 C   0  0  0  0  0  0  0  0  0  0  0  0
  -10.4429   -1.9345    4.7959 C   0  0  0  0  0  0  0  0  0  0  0  0
   -8.1925   -1.3025    5.9556 C   0  0  1  0  0  0  0  0  0  0  0  0
   -8.9286   -1.5534    7.3073 C   0  0  0  0  0  0  0  0  0  0  0  0
   -9.5195   -0.6825    7.9354 O   0  0  0  0  0  0  0  0  0  0  0  0
   -8.9625   -2.8649    7.6688 N   0  0  0  0  0  0  0  0  0  0  0  0
   -8.0459   -3.7479    7.0316 C   0  0  0  0  0  0  0  0  0  0  0  0
   -7.4682   -3.1417    5.7507 C   0  0  0  0  0  0  0  0  0  0  0  0
   -6.7261   -1.8199    5.7548 N   0  0  0  0  0  0  0  0  0  0  0  0
   -6.0370   -1.0821    4.6449 C   0  0  0  0  0  0  0  0  0  0  0  0
   -5.9800   -1.3184    3.4938 O   0  0  0  0  0  0  0  0  0  0  0  0
   -5.4088    0.2143    5.0762 C   0  0  0  0  0  0  0  0  0  0  0  0
   -5.4768    1.2625    4.1243 C   0  0  0  0  0  0  0  0  0  0  0  0
   -5.9417    1.1007    2.8409 O   0  0  0  0  0  0  0  0  0  0  0  0
   -5.0843    2.5607    4.4297 C   0  0  0  0  0  0  0  0  0  0  0  0
   -4.6065    2.8501    5.6960 C   0  0  0  0  0  0  0  0  0  0  0  0
   -4.4973    1.8310    6.6393 C   0  0  0  0  0  0  0  0  0  0  0  0
   -4.8643    0.4948    6.3428 C   0  0  0  0  0  0  0  0  0  0  0  0
   -4.5959   -0.5371    7.4062 C   0  0  0  0  0  0  0  0  0  0  0  0
   -4.1266   -1.7181    6.9220 F   0  0  0  0  0  0  0  0  0  0  0  0
   -3.6231   -0.1144    8.2736 F   0  0  0  0  0  0  0  0  0  0  0  0
   -5.6722   -0.8130    8.1852 F   0  0  0  0  0  0  0  0  0  0  0  0
  1  2  1  0
  2  3  1  0
  4  2  1  6
  4  5  1  0
  5  6  2  0
  5  7  1  0
  7  8  1  0
  8  9  1  0
  9 10  1  0
 10 11  1  0
 11 12  2  0
 11 13  1  0
 13 14  2  0
 14 15  1  0
 14 16  1  0
 16 17  2  0
 17 18  1  0
 18 19  2  0
 19 20  1  0
 20 21  1  0
 20 22  1  0
 20 23  1  0
 10  4  1  0
 19 13  1  0
M  END
>  <ref_mols>  (1915) 
7gpj-a

>  <gnina_score>  (1915) 
5.003

>  <smina_score_min>  (1915) 
-5.39

>  <ref_pdb>  (1915) 
7gpj-a

>  <inspiration_score>  (1915) 
None

>  <inchikey>  (1915) 
NFSLMKDPEVJNNV-LBPRGKRZSA-N

>  <tags>  (1915) 
BulkDock Fragalysis export,openbind_d68ev3c_c2_elabs_scored,openbind_d68ev3c_c2_elabs_scored_4.5plus,openbind_d68ev3c_c2_elabs,openbind_d68ev3c_c2_elabs_scored_5plus,syndirella_product,openbind_d68ev3c_c2_elabs_scored_top80percent,syndirella_placed

>  <smiles>  (1915) 
CC(C)[C@H]1C(=O)NCCN1C(=O)c1c(O)cccc1C(F)(F)F

>  <subsites>  (1915) 
None

>  <rmsd(smina/fragmenstein)>  (1915) 
0.684

>  <alias>  (1915) 
None

>  <energy_score>  (1915) 
-28.177748

>  <HIPPO Pose ID>  (1915) 
138738

>  <distance_score>  (1915) 
0.736867

>  <HIPPO Compound ID>  (1915) 
162139

>  <gnina_score_min>  (1915) 
5.044

>  <name>  (1915) 
P138738

>  <exports>  (1915) 
['/opt/xchem-fragalysis-2/maxwin/BulkDock/OUTPUTS/openbind_d68ev3c_c2_elabs_1LOTQJ3.sdf', '/opt/xchem-fragalysis-2/maxwin/BulkDock/OUTPUTS/openbind_d68ev3c_c2_elabs_1LSYI5W.sdf']

$$$$
P138739
     RDKit          3D

 23 25  0  0  0  0  0  0  0  0999 V2000
   -9.4948   -0.5671    8.0738 O   0  0  0  0  0  0  0  0  0  0  0  0
   -8.9480   -1.4172    7.3806 C   0  0  0  0  0  0  0  0  0  0  0  0
   -9.0451   -2.7479    7.6499 N   0  0  0  0  0  0  0  0  0  0  0  0
   -8.1052   -3.5945    7.0012 C   0  0  0  0  0  0  0  0  0  0  0  0
   -7.6179   -2.9617    5.6825 C   0  0  1  0  0  0  0  0  0  0  0  0
   -8.5563   -3.2306    4.4720 C   0  0  0  0  0  0  0  0  0  0  0  0
   -9.1607   -1.9947    3.8577 C   0  0  0  0  0  0  0  0  0  0  0  0
   -9.2177   -0.8876    4.8735 C   0  0  0  0  0  0  0  0  0  0  0  0
   -8.2241   -1.1030    6.0324 C   0  0  2  0  0  0  0  0  0  0  0  0
   -6.8109   -1.6587    5.7231 N   0  0  0  0  0  0  0  0  0  0  0  0
   -6.1509   -0.8828    4.6217 C   0  0  0  0  0  0  0  0  0  0  0  0
   -6.1659   -1.0506    3.4573 O   0  0  0  0  0  0  0  0  0  0  0  0
   -5.4444    0.3592    5.0890 C   0  0  0  0  0  0  0  0  0  0  0  0
   -5.4904    1.4488    4.1817 C   0  0  0  0  0  0  0  0  0  0  0  0
   -5.9999    1.3671    2.9073 O   0  0  0  0  0  0  0  0  0  0  0  0
   -5.0300    2.7138    4.5260 C   0  0  0  0  0  0  0  0  0  0  0  0
   -4.5119    2.9311    5.7902 C   0  0  0  0  0  0  0  0  0  0  0  0
   -4.4295    1.8721    6.6910 C   0  0  0  0  0  0  0  0  0  0  0  0
   -4.8599    0.5650    6.3527 C   0  0  0  0  0  0  0  0  0  0  0  0
   -4.6138   -0.5146    7.3738 C   0  0  0  0  0  0  0  0  0  0  0  0
   -3.6190   -0.1557    8.2452 F   0  0  0  0  0  0  0  0  0  0  0  0
   -4.1858   -1.6902    6.8404 F   0  0  0  0  0  0  0  0  0  0  0  0
   -5.6893   -0.7873    8.1550 F   0  0  0  0  0  0  0  0  0  0  0  0
  1  2  2  0
  2  3  1  0
  3  4  1  0
  5  4  1  1
  5  6  1  0
  6  7  1  0
  7  8  1  0
  9  8  1  6
  9 10  1  0
 10 11  1  0
 11 12  2  0
 11 13  1  0
 13 14  2  0
 14 15  1  0
 14 16  1  0
 16 17  2  0
 17 18  1  0
 18 19  2  0
 19 20  1  0
 20 21  1  0
 20 22  1  0
 20 23  1  0
  9  2  1  0
 19 13  1  0
 10  5  1  0
M  END
>  <ref_mols>  (1916) 
7gpj-a

>  <gnina_score>  (1916) 
4.916

>  <smina_score_min>  (1916) 
-5.26

>  <ref_pdb>  (1916) 
7gpj-a

>  <inspiration_score>  (1916) 
None

>  <inchikey>  (1916) 
HOHCVDFHLLZVLK-SCZZXKLOSA-N

>  <tags>  (1916) 
BulkDock Fragalysis export,openbind_d68ev3c_c2_elabs_scored,openbind_d68ev3c_c2_elabs_scored_4.5plus,openbind_d68ev3c_c2_elabs,openbind_d68ev3c_c2_elabs_scored_5plus,syndirella_product,openbind_d68ev3c_c2_elabs_scored_top80percent,syndirella_placed

>  <smiles>  (1916) 
O=C1NC[C@H]2CCC[C@@H]1N2C(=O)c1c(O)cccc1C(F)(F)F

>  <subsites>  (1916) 
None

>  <rmsd(smina/fragmenstein)>  (1916) 
0.903

>  <alias>  (1916) 
None

>  <energy_score>  (1916) 
-109.876909

>  <HIPPO Pose ID>  (1916) 
138739

>  <distance_score>  (1916) 
0.835512

>  <HIPPO Compound ID>  (1916) 
162140

>  <gnina_score_min>  (1916) 
5.03

>  <name>  (1916) 
P138739

>  <exports>  (1916) 
['/opt/xchem-fragalysis-2/maxwin/BulkDock/OUTPUTS/openbind_d68ev3c_c2_elabs_1LOTQJ3.sdf', '/opt/xchem-fragalysis-2/maxwin/BulkDock/OUTPUTS/openbind_d68ev3c_c2_elabs_1LSYI5W.sdf']

$$$$
P138742
     RDKit          3D

 24 26  0  0  0  0  0  0  0  0999 V2000
   -3.6273    5.3105    6.4816 C   0  0  0  0  0  0  0  0  0  0  0  0
   -4.0396    4.2279    6.1664 C   0  0  0  0  0  0  0  0  0  0  0  0
   -4.5204    2.9323    5.8014 C   0  0  0  0  0  0  0  0  0  0  0  0
   -5.0771    2.7156    4.5508 C   0  0  0  0  0  0  0  0  0  0  0  0
   -5.5475    1.4470    4.2237 C   0  0  0  0  0  0  0  0  0  0  0  0
   -5.4584    0.3629    5.1276 C   0  0  0  0  0  0  0  0  0  0  0  0
   -6.1545   -0.8714    4.6311 C   0  0  0  0  0  0  0  0  0  0  0  0
   -6.1635   -1.0312    3.4670 O   0  0  0  0  0  0  0  0  0  0  0  0
   -6.8178   -1.6562    5.7239 N   0  0  0  0  0  0  0  0  0  0  0  0
   -7.6210   -2.9606    5.6705 C   0  0  2  0  0  0  0  0  0  0  0  0
   -8.5576   -3.2265    4.4583 C   0  0  0  0  0  0  0  0  0  0  0  0
   -9.1595   -1.9885    3.8468 C   0  0  0  0  0  0  0  0  0  0  0  0
   -9.2257   -0.8894    4.8706 C   0  0  0  0  0  0  0  0  0  0  0  0
   -8.2326   -1.1066    6.0298 C   0  0  1  0  0  0  0  0  0  0  0  0
   -8.9555   -1.4275    7.3762 C   0  0  0  0  0  0  0  0  0  0  0  0
   -9.5039   -0.5808    8.0726 O   0  0  0  0  0  0  0  0  0  0  0  0
   -9.0488   -2.7594    7.6406 N   0  0  0  0  0  0  0  0  0  0  0  0
   -8.1068   -3.6010    6.9872 C   0  0  0  0  0  0  0  0  0  0  0  0
   -4.8533    0.5644    6.3776 C   0  0  0  0  0  0  0  0  0  0  0  0
   -4.6001   -0.5164    7.3937 C   0  0  0  0  0  0  0  0  0  0  0  0
   -3.6051   -0.1560    8.2636 F   0  0  0  0  0  0  0  0  0  0  0  0
   -5.6737   -0.7946    8.1757 F   0  0  0  0  0  0  0  0  0  0  0  0
   -4.1703   -1.6894    6.8563 F   0  0  0  0  0  0  0  0  0  0  0  0
   -4.4171    1.8721    6.7040 C   0  0  0  0  0  0  0  0  0  0  0  0
  1  2  3  0
  2  3  1  0
  3  4  2  0
  4  5  1  0
  5  6  2  0
  6  7  1  0
  7  8  2  0
  7  9  1  0
  9 10  1  0
 10 11  1  6
 11 12  1  0
 12 13  1  0
 14 13  1  6
 14 15  1  0
 15 16  2  0
 15 17  1  0
 17 18  1  0
  6 19  1  0
 19 20  1  0
 20 21  1  0
 20 22  1  0
 20 23  1  0
 19 24  2  0
 24  3  1  0
 14  9  1  0
 18 10  1  0
M  END
>  <ref_mols>  (1917) 
7gpj-a

>  <gnina_score>  (1917) 
5.183

>  <smina_score_min>  (1917) 
-5.463

>  <ref_pdb>  (1917) 
7gpj-a

>  <inspiration_score>  (1917) 
None

>  <inchikey>  (1917) 
HNUPAOGGESGYNU-RISCZKNCSA-N

>  <tags>  (1917) 
BulkDock Fragalysis export,openbind_d68ev3c_c2_elabs_scored,openbind_d68ev3c_c2_elabs_scored_4.5plus,openbind_d68ev3c_c2_elabs,openbind_d68ev3c_c2_elabs_scored_5plus,syndirella_product,openbind_d68ev3c_c2_elabs_scored_top80percent,syndirella_placed

>  <smiles>  (1917) 
C#Cc1ccc(C(=O)N2[C@@H]3CCC[C@H]2C(=O)NC3)c(C(F)(F)F)c1

>  <subsites>  (1917) 
None

>  <rmsd(smina/fragmenstein)>  (1917) 
0.618

>  <alias>  (1917) 
None

>  <energy_score>  (1917) 
-37.185777

>  <HIPPO Pose ID>  (1917) 
138742

>  <distance_score>  (1917) 
0.831717

>  <HIPPO Compound ID>  (1917) 
162202

>  <gnina_score_min>  (1917) 
5.192

>  <name>  (1917) 
P138742

>  <exports>  (1917) 
['/opt/xchem-fragalysis-2/maxwin/BulkDock/OUTPUTS/openbind_d68ev3c_c2_elabs_1LOTQJ3.sdf', '/opt/xchem-fragalysis-2/maxwin/BulkDock/OUTPUTS/openbind_d68ev3c_c2_elabs_1LSYI5W.sdf']

$$$$
P138747
     RDKit          3D

 24 25  0  0  0  0  0  0  0  0999 V2000
   -7.3103   -3.8276    6.6378 C   0  0  0  0  0  0  0  0  0  0  0  0
   -8.1098   -3.1975    5.5148 C   0  0  0  0  0  0  0  0  0  0  0  0
   -8.7091   -1.7935    5.8067 C   0  0  1  0  0  0  0  0  0  0  0  0
   -9.4897   -1.8575    7.1410 C   0  0  0  0  0  0  0  0  0  0  0  0
  -10.2190   -0.6348    7.3627 N   0  0  0  0  0  0  0  0  0  0  0  0
  -11.1546   -0.5591    8.4655 C   0  0  0  0  0  0  0  0  0  0  0  0
   -9.7820    0.4911    6.7096 C   0  0  0  0  0  0  0  0  0  0  0  0
  -10.2587    1.6082    6.8903 O   0  0  0  0  0  0  0  0  0  0  0  0
   -8.7362    0.2167    5.6078 C   0  0  0  0  0  0  0  0  0  0  0  0
   -7.5643   -0.7497    5.8303 N   0  0  0  0  0  0  0  0  0  0  0  0
   -6.5295   -0.4856    4.8917 C   0  0  0  0  0  0  0  0  0  0  0  0
   -6.3298   -0.9430    3.7991 O   0  0  0  0  0  0  0  0  0  0  0  0
   -5.6355    0.6176    5.3618 C   0  0  0  0  0  0  0  0  0  0  0  0
   -5.5870    1.7871    4.5785 C   0  0  0  0  0  0  0  0  0  0  0  0
   -6.3125    1.8893    3.4178 O   0  0  0  0  0  0  0  0  0  0  0  0
   -5.4557    1.7464    2.2838 C   0  0  0  0  0  0  0  0  0  0  0  0
   -4.9128    2.9232    5.0274 C   0  0  0  0  0  0  0  0  0  0  0  0
   -4.2686    2.9008    6.2578 C   0  0  0  0  0  0  0  0  0  0  0  0
   -4.2849    1.7374    7.0268 C   0  0  0  0  0  0  0  0  0  0  0  0
   -4.9412    0.5717    6.5802 C   0  0  0  0  0  0  0  0  0  0  0  0
   -4.8459   -0.6804    7.4035 C   0  0  0  0  0  0  0  0  0  0  0  0
   -5.9392   -0.9215    8.1703 F   0  0  0  0  0  0  0  0  0  0  0  0
   -4.6207   -1.7955    6.6567 F   0  0  0  0  0  0  0  0  0  0  0  0
   -3.7927   -0.6324    8.2730 F   0  0  0  0  0  0  0  0  0  0  0  0
  1  2  1  0
  3  2  1  1
  3  4  1  0
  4  5  1  0
  5  6  1  0
  5  7  1  0
  7  8  2  0
  7  9  1  0
  9 10  1  0
 10 11  1  0
 11 12  2  0
 11 13  1  0
 13 14  2  0
 14 15  1  0
 15 16  1  0
 14 17  1  0
 17 18  2  0
 18 19  1  0
 19 20  2  0
 20 21  1  0
 21 22  1  0
 21 23  1  0
 21 24  1  0
 10  3  1  0
 20 13  1  0
M  END
>  <ref_mols>  (1918) 
7gpj-a

>  <gnina_score>  (1918) 
5.051

>  <smina_score_min>  (1918) 
-5.347

>  <ref_pdb>  (1918) 
7gpj-a

>  <inspiration_score>  (1918) 
None

>  <inchikey>  (1918) 
ALDXKJUXGJFCKI-JTQLQIEISA-N

>  <tags>  (1918) 
BulkDock Fragalysis export,openbind_d68ev3c_c2_elabs_scored,openbind_d68ev3c_c2_elabs_scored_4.5plus,openbind_d68ev3c_c2_elabs,openbind_d68ev3c_c2_elabs_scored_5plus,syndirella_product,openbind_d68ev3c_c2_elabs_scored_top80percent,syndirella_placed

>  <smiles>  (1918) 
CC[C@H]1CN(C)C(=O)CN1C(=O)c1c(OC)cccc1C(F)(F)F

>  <subsites>  (1918) 
None

>  <rmsd(smina/fragmenstein)>  (1918) 
0.935

>  <alias>  (1918) 
None

>  <energy_score>  (1918) 
-18.753381

>  <HIPPO Pose ID>  (1918) 
138747

>  <distance_score>  (1918) 
1.763405

>  <HIPPO Compound ID>  (1918) 
162276

>  <gnina_score_min>  (1918) 
5.124

>  <name>  (1918) 
P138747

>  <exports>  (1918) 
['/opt/xchem-fragalysis-2/maxwin/BulkDock/OUTPUTS/openbind_d68ev3c_c2_elabs_1LOTQJ3.sdf', '/opt/xchem-fragalysis-2/maxwin/BulkDock/OUTPUTS/openbind_d68ev3c_c2_elabs_1LSYI5W.sdf']

$$$$
P138749
     RDKit          3D

 24 26  0  0  0  0  0  0  0  0999 V2000
   -5.7339    1.6211    2.0635 C   0  0  0  0  0  0  0  0  0  0  0  0
   -6.5253    1.5212    3.2488 O   0  0  0  0  0  0  0  0  0  0  0  0
   -5.7349    1.5866    4.3727 C   0  0  0  0  0  0  0  0  0  0  0  0
   -5.2909    2.8524    4.7516 C   0  0  0  0  0  0  0  0  0  0  0  0
   -4.6179    3.0118    5.9504 C   0  0  0  0  0  0  0  0  0  0  0  0
   -4.4059    1.9083    6.7732 C   0  0  0  0  0  0  0  0  0  0  0  0
   -4.8318    0.6088    6.4072 C   0  0  0  0  0  0  0  0  0  0  0  0
   -4.5224   -0.5116    7.3633 C   0  0  0  0  0  0  0  0  0  0  0  0
   -3.4922   -0.1764    8.2021 F   0  0  0  0  0  0  0  0  0  0  0  0
   -4.1087   -1.6591    6.7631 F   0  0  0  0  0  0  0  0  0  0  0  0
   -5.5566   -0.8304    8.1831 F   0  0  0  0  0  0  0  0  0  0  0  0
   -5.5124    0.4490    5.1875 C   0  0  0  0  0  0  0  0  0  0  0  0
   -6.1096   -0.8307    4.6842 C   0  0  0  0  0  0  0  0  0  0  0  0
   -6.0116   -1.0510    3.5348 O   0  0  0  0  0  0  0  0  0  0  0  0
   -6.8367   -1.5853    5.7598 N   0  0  0  0  0  0  0  0  0  0  0  0
   -7.5837   -2.9232    5.7104 C   0  0  2  0  0  0  0  0  0  0  0  0
   -8.3997   -3.2840    4.4361 C   0  0  0  0  0  0  0  0  0  0  0  0
   -8.9843   -2.1017    3.7106 C   0  0  0  0  0  0  0  0  0  0  0  0
   -9.2170   -0.9850    4.6870 C   0  0  0  0  0  0  0  0  0  0  0  0
   -8.2905   -1.0803    5.9136 C   0  0  1  0  0  0  0  0  0  0  0  0
   -9.0630   -1.3549    7.2465 C   0  0  0  0  0  0  0  0  0  0  0  0
   -9.6009   -0.4851    7.9218 O   0  0  0  0  0  0  0  0  0  0  0  0
   -9.1830   -2.6803    7.5411 N   0  0  0  0  0  0  0  0  0  0  0  0
   -8.1661   -3.5183    7.0075 C   0  0  0  0  0  0  0  0  0  0  0  0
  1  2  1  0
  2  3  1  0
  3  4  2  0
  4  5  1  0
  5  6  2  0
  6  7  1  0
  7  8  1  0
  8  9  1  0
  8 10  1  0
  8 11  1  0
  7 12  2  0
 12 13  1  0
 13 14  2  0
 13 15  1  0
 15 16  1  0
 16 17  1  6
 17 18  1  0
 18 19  1  0
 20 19  1  6
 20 21  1  0
 21 22  2  0
 21 23  1  0
 23 24  1  0
 12  3  1  0
 20 15  1  0
 24 16  1  0
M  END
>  <ref_mols>  (1919) 
7gpj-a

>  <gnina_score>  (1919) 
5.021

>  <smina_score_min>  (1919) 
-5.042

>  <ref_pdb>  (1919) 
7gpj-a

>  <inspiration_score>  (1919) 
None

>  <inchikey>  (1919) 
ARDWSVLVFDPUNP-KOLCDFICSA-N

>  <tags>  (1919) 
BulkDock Fragalysis export,openbind_d68ev3c_c2_elabs_scored,openbind_d68ev3c_c2_elabs_scored_4.5plus,openbind_d68ev3c_c2_elabs,openbind_d68ev3c_c2_elabs_scored_5plus,syndirella_product,openbind_d68ev3c_c2_elabs_scored_top80percent,syndirella_placed

>  <smiles>  (1919) 
COc1cccc(C(F)(F)F)c1C(=O)N1[C@@H]2CCC[C@H]1C(=O)NC2

>  <subsites>  (1919) 
None

>  <rmsd(smina/fragmenstein)>  (1919) 
0.876

>  <alias>  (1919) 
None

>  <energy_score>  (1919) 
-42.124083

>  <HIPPO Pose ID>  (1919) 
138749

>  <distance_score>  (1919) 
0.865172

>  <HIPPO Compound ID>  (1919) 
162307

>  <gnina_score_min>  (1919) 
5.062

>  <name>  (1919) 
P138749

>  <exports>  (1919) 
['/opt/xchem-fragalysis-2/maxwin/BulkDock/OUTPUTS/openbind_d68ev3c_c2_elabs_1LOTQJ3.sdf', '/opt/xchem-fragalysis-2/maxwin/BulkDock/OUTPUTS/openbind_d68ev3c_c2_elabs_1LSYI5W.sdf']

$$$$
P138750
     RDKit          3D

 24 25  0  0  0  0  0  0  0  0999 V2000
   -5.1606    0.7932    1.8413 C   0  0  0  0  0  0  0  0  0  0  0  0
   -6.0937    1.0000    2.9017 O   0  0  0  0  0  0  0  0  0  0  0  0
   -5.4338    1.2491    4.0795 C   0  0  0  0  0  0  0  0  0  0  0  0
   -5.0007    2.5543    4.3055 C   0  0  0  0  0  0  0  0  0  0  0  0
   -4.4602    2.8975    5.5369 C   0  0  0  0  0  0  0  0  0  0  0  0
   -4.3463    1.9342    6.5383 C   0  0  0  0  0  0  0  0  0  0  0  0
   -4.7572    0.5998    6.3264 C   0  0  0  0  0  0  0  0  0  0  0  0
   -4.5381   -0.3956    7.4357 C   0  0  0  0  0  0  0  0  0  0  0  0
   -5.6045   -0.5615    8.2599 F   0  0  0  0  0  0  0  0  0  0  0  0
   -3.5139   -0.0023    8.2560 F   0  0  0  0  0  0  0  0  0  0  0  0
   -4.1683   -1.6317    7.0024 F   0  0  0  0  0  0  0  0  0  0  0  0
   -5.3370    0.2685    5.0875 C   0  0  0  0  0  0  0  0  0  0  0  0
   -6.0604   -1.0162    4.8268 C   0  0  0  0  0  0  0  0  0  0  0  0
   -5.8875   -1.6036    3.8274 O   0  0  0  0  0  0  0  0  0  0  0  0
   -7.0148   -1.2765    5.9522 N   0  0  0  0  0  0  0  0  0  0  0  0
   -8.3265   -0.5699    5.7283 C   0  0  0  0  0  0  0  0  0  0  0  0
   -9.1598   -0.1632    6.9354 C   0  0  0  0  0  0  0  0  0  0  0  0
   -9.6732    0.9435    7.0458 O   0  0  0  0  0  0  0  0  0  0  0  0
   -9.3477   -1.1529    7.8477 N   0  0  0  0  0  0  0  0  0  0  0  0
  -10.2387   -0.9127    8.9630 C   0  0  0  0  0  0  0  0  0  0  0  0
   -8.7901   -2.4499    7.5652 C   0  0  0  0  0  0  0  0  0  0  0  0
   -8.0184   -2.4864    6.2021 C   0  0  0  0  0  0  0  0  0  0  0  0
   -7.0084   -3.6702    6.3762 C   0  0  0  0  0  0  0  0  0  0  0  0
   -8.9313   -3.0187    5.0413 C   0  0  0  0  0  0  0  0  0  0  0  0
  1  2  1  0
  2  3  1  0
  3  4  2  0
  4  5  1  0
  5  6  2  0
  6  7  1  0
  7  8  1  0
  8  9  1  0
  8 10  1  0
  8 11  1  0
  7 12  2  0
 12 13  1  0
 13 14  2  0
 13 15  1  0
 15 16  1  0
 16 17  1  0
 17 18  2  0
 17 19  1  0
 19 20  1  0
 19 21  1  0
 21 22  1  0
 22 23  1  0
 22 24  1  0
 12  3  1  0
 22 15  1  0
M  END
>  <ref_mols>  (1920) 
7gpj-a

>  <gnina_score>  (1920) 
5.113

>  <smina_score_min>  (1920) 
-5.053

>  <ref_pdb>  (1920) 
7gpj-a

>  <inspiration_score>  (1920) 
None

>  <inchikey>  (1920) 
XQBVPPWNTRKQAH-UHFFFAOYSA-N

>  <tags>  (1920) 
BulkDock Fragalysis export,openbind_d68ev3c_c2_elabs_scored,openbind_d68ev3c_c2_elabs_scored_4.5plus,openbind_d68ev3c_c2_elabs,openbind_d68ev3c_c2_elabs_scored_5plus,syndirella_product,openbind_d68ev3c_c2_elabs_scored_top80percent,syndirella_placed

>  <smiles>  (1920) 
COc1cccc(C(F)(F)F)c1C(=O)N1CC(=O)N(C)CC1(C)C

>  <subsites>  (1920) 
None

>  <rmsd(smina/fragmenstein)>  (1920) 
0.996

>  <alias>  (1920) 
None

>  <energy_score>  (1920) 
-53.071809

>  <HIPPO Pose ID>  (1920) 
138750

>  <distance_score>  (1920) 
1.16227

>  <HIPPO Compound ID>  (1920) 
162324

>  <gnina_score_min>  (1920) 
5.075

>  <name>  (1920) 
P138750

>  <exports>  (1920) 
['/opt/xchem-fragalysis-2/maxwin/BulkDock/OUTPUTS/openbind_d68ev3c_c2_elabs_1LOTQJ3.sdf', '/opt/xchem-fragalysis-2/maxwin/BulkDock/OUTPUTS/openbind_d68ev3c_c2_elabs_1LSYI5W.sdf']

$$$$
P138751
     RDKit          3D

 24 26  0  0  0  0  0  0  0  0999 V2000
   -9.4852   -0.5775    8.0544 O   0  0  0  0  0  0  0  0  0  0  0  0
   -8.9360   -1.4229    7.3570 C   0  0  0  0  0  0  0  0  0  0  0  0
   -9.0382   -2.7563    7.6125 N   0  0  0  0  0  0  0  0  0  0  0  0
   -8.0854   -3.5948    6.9689 C   0  0  0  0  0  0  0  0  0  0  0  0
   -7.5785   -2.9491    5.6612 C   0  0  1  0  0  0  0  0  0  0  0  0
   -8.4969   -3.2123    4.4349 C   0  0  0  0  0  0  0  0  0  0  0  0
   -9.0853   -1.9713    3.8168 C   0  0  0  0  0  0  0  0  0  0  0  0
   -9.1758   -0.8801    4.8473 C   0  0  0  0  0  0  0  0  0  0  0  0
   -8.1977   -1.0972    6.0197 C   0  0  2  0  0  0  0  0  0  0  0  0
   -6.7780   -1.6425    5.7338 N   0  0  0  0  0  0  0  0  0  0  0  0
   -6.0980   -0.8501    4.6541 C   0  0  0  0  0  0  0  0  0  0  0  0
   -6.0882   -1.0044    3.4890 O   0  0  0  0  0  0  0  0  0  0  0  0
   -5.4131    0.3820    5.1728 C   0  0  0  0  0  0  0  0  0  0  0  0
   -5.4933    1.4782    4.2864 C   0  0  0  0  0  0  0  0  0  0  0  0
   -5.0654    2.7524    4.6530 C   0  0  0  0  0  0  0  0  0  0  0  0
   -4.5602    2.9758    5.9308 C   0  0  0  0  0  0  0  0  0  0  0  0
   -4.1677    4.3569    6.3752 C   0  0  0  0  0  0  0  0  0  0  0  0
   -2.2450    4.4777    6.6178 Br  0  0  0  0  0  0  0  0  0  0  0  0
   -4.4529    1.8836    6.8046 C   0  0  0  0  0  0  0  0  0  0  0  0
   -4.8407    0.5716    6.4370 C   0  0  0  0  0  0  0  0  0  0  0  0
   -4.5815   -0.5268    7.4323 C   0  0  0  0  0  0  0  0  0  0  0  0
   -3.5884   -0.1747    8.3073 F   0  0  0  0  0  0  0  0  0  0  0  0
   -4.1482   -1.6897    6.8771 F   0  0  0  0  0  0  0  0  0  0  0  0
   -5.6543   -0.8201    8.2105 F   0  0  0  0  0  0  0  0  0  0  0  0
  1  2  2  0
  2  3  1  0
  3  4  1  0
  5  4  1  1
  5  6  1  0
  6  7  1  0
  7  8  1  0
  9  8  1  6
  9 10  1  0
 10 11  1  0
 11 12  2  0
 11 13  1  0
 13 14  2  0
 14 15  1  0
 15 16  2  0
 16 17  1  0
 17 18  1  0
 16 19  1  0
 19 20  2  0
 20 21  1  0
 21 22  1  0
 21 23  1  0
 21 24  1  0
  9  2  1  0
 20 13  1  0
 10  5  1  0
M  END
>  <ref_mols>  (1921) 
7gpj-a

>  <gnina_score>  (1921) 
5.157

>  <smina_score_min>  (1921) 
-5.211

>  <ref_pdb>  (1921) 
7gpj-a

>  <inspiration_score>  (1921) 
None

>  <inchikey>  (1921) 
NLZKQKBYVXDWPU-MFKMUULPSA-N

>  <tags>  (1921) 
BulkDock Fragalysis export,openbind_d68ev3c_c2_elabs_scored,openbind_d68ev3c_c2_elabs_scored_4.5plus,openbind_d68ev3c_c2_elabs,openbind_d68ev3c_c2_elabs_scored_5plus,syndirella_product,openbind_d68ev3c_c2_elabs_scored_top80percent,syndirella_placed

>  <smiles>  (1921) 
O=C1NC[C@H]2CCC[C@@H]1N2C(=O)c1ccc(CBr)cc1C(F)(F)F

>  <subsites>  (1921) 
None

>  <rmsd(smina/fragmenstein)>  (1921) 
0.844

>  <alias>  (1921) 
None

>  <energy_score>  (1921) 
-32.341656

>  <HIPPO Pose ID>  (1921) 
138751

>  <distance_score>  (1921) 
0.838962

>  <HIPPO Compound ID>  (1921) 
162336

>  <gnina_score_min>  (1921) 
5.277

>  <name>  (1921) 
P138751

>  <exports>  (1921) 
['/opt/xchem-fragalysis-2/maxwin/BulkDock/OUTPUTS/openbind_d68ev3c_c2_elabs_1LOTQJ3.sdf', '/opt/xchem-fragalysis-2/maxwin/BulkDock/OUTPUTS/openbind_d68ev3c_c2_elabs_1LSYI5W.sdf']

$$$$
P138753
     RDKit          3D

 24 26  0  0  0  0  0  0  0  0999 V2000
   -9.4982   -0.5528    8.0517 O   0  0  0  0  0  0  0  0  0  0  0  0
   -8.9646   -1.4075    7.3541 C   0  0  0  0  0  0  0  0  0  0  0  0
   -9.0694   -2.7383    7.6199 N   0  0  0  0  0  0  0  0  0  0  0  0
   -8.1134   -3.5810    6.9881 C   0  0  0  0  0  0  0  0  0  0  0  0
   -7.6033   -2.9496    5.6752 C   0  0  1  0  0  0  0  0  0  0  0  0
   -8.5101   -3.2375    4.4457 C   0  0  0  0  0  0  0  0  0  0  0  0
   -9.1196   -2.0122    3.8165 C   0  0  0  0  0  0  0  0  0  0  0  0
   -9.2287   -0.9143    4.8375 C   0  0  0  0  0  0  0  0  0  0  0  0
   -8.2400   -1.0978    6.0066 C   0  0  2  0  0  0  0  0  0  0  0  0
   -6.8152   -1.6335    5.7263 N   0  0  0  0  0  0  0  0  0  0  0  0
   -6.1461   -0.8523    4.6350 C   0  0  0  0  0  0  0  0  0  0  0  0
   -6.1368   -1.0241    3.4731 O   0  0  0  0  0  0  0  0  0  0  0  0
   -5.4720    0.3937    5.1246 C   0  0  0  0  0  0  0  0  0  0  0  0
   -5.5928    1.4701    4.2148 C   0  0  0  0  0  0  0  0  0  0  0  0
   -5.1495    2.7397    4.5448 C   0  0  0  0  0  0  0  0  0  0  0  0
   -5.2920    3.7393    3.6653 F   0  0  0  0  0  0  0  0  0  0  0  0
   -4.5872    2.9693    5.7842 C   0  0  0  0  0  0  0  0  0  0  0  0
   -4.1707    4.1955    6.1244 F   0  0  0  0  0  0  0  0  0  0  0  0
   -4.4453    1.9246    6.6923 C   0  0  0  0  0  0  0  0  0  0  0  0
   -4.8618    0.6087    6.3738 C   0  0  0  0  0  0  0  0  0  0  0  0
   -4.5909   -0.4693    7.3922 C   0  0  0  0  0  0  0  0  0  0  0  0
   -3.5993   -0.0919    8.2564 F   0  0  0  0  0  0  0  0  0  0  0  0
   -5.6597   -0.7597    8.1750 F   0  0  0  0  0  0  0  0  0  0  0  0
   -4.1482   -1.6354    6.8524 F   0  0  0  0  0  0  0  0  0  0  0  0
  1  2  2  0
  2  3  1  0
  3  4  1  0
  5  4  1  1
  5  6  1  0
  6  7  1  0
  7  8  1  0
  9  8  1  6
  9 10  1  0
 10 11  1  0
 11 12  2  0
 11 13  1  0
 13 14  2  0
 14 15  1  0
 15 16  1  0
 15 17  2  0
 17 18  1  0
 17 19  1  0
 19 20  2  0
 20 21  1  0
 21 22  1  0
 21 23  1  0
 21 24  1  0
  9  2  1  0
 20 13  1  0
 10  5  1  0
M  END
>  <ref_mols>  (1922) 
7gpj-a

>  <gnina_score>  (1922) 
5.149

>  <smina_score_min>  (1922) 
-5.514

>  <ref_pdb>  (1922) 
7gpj-a

>  <inspiration_score>  (1922) 
None

>  <inchikey>  (1922) 
FEYJTENXBGFBJF-KRTXAFLBSA-N

>  <tags>  (1922) 
BulkDock Fragalysis export,openbind_d68ev3c_c2_elabs_scored,openbind_d68ev3c_c2_elabs_scored_4.5plus,openbind_d68ev3c_c2_elabs,openbind_d68ev3c_c2_elabs_scored_5plus,syndirella_product,openbind_d68ev3c_c2_elabs_scored_top80percent,syndirella_placed

>  <smiles>  (1922) 
O=C1NC[C@H]2CCC[C@@H]1N2C(=O)c1cc(F)c(F)cc1C(F)(F)F

>  <subsites>  (1922) 
None

>  <rmsd(smina/fragmenstein)>  (1922) 
0.741

>  <alias>  (1922) 
None

>  <energy_score>  (1922) 
-36.556717

>  <HIPPO Pose ID>  (1922) 
138753

>  <distance_score>  (1922) 
0.828602

>  <HIPPO Compound ID>  (1922) 
162409

>  <gnina_score_min>  (1922) 
5.206

>  <name>  (1922) 
P138753

>  <exports>  (1922) 
['/opt/xchem-fragalysis-2/maxwin/BulkDock/OUTPUTS/openbind_d68ev3c_c2_elabs_1LOTQJ3.sdf', '/opt/xchem-fragalysis-2/maxwin/BulkDock/OUTPUTS/openbind_d68ev3c_c2_elabs_1LSYI5W.sdf']

$$$$
P138756
     RDKit          3D

 24 26  0  0  0  0  0  0  0  0999 V2000
   -3.9170    4.2693    6.2275 C   0  0  0  0  0  0  0  0  0  0  0  0
   -4.4667    2.9350    5.8006 C   0  0  0  0  0  0  0  0  0  0  0  0
   -4.3932    1.8592    6.7019 C   0  0  0  0  0  0  0  0  0  0  0  0
   -4.8439    0.5550    6.3823 C   0  0  0  0  0  0  0  0  0  0  0  0
   -4.6020   -0.5269    7.4025 C   0  0  0  0  0  0  0  0  0  0  0  0
   -5.6802   -0.7958    8.1810 F   0  0  0  0  0  0  0  0  0  0  0  0
   -3.6082   -0.1704    8.2753 F   0  0  0  0  0  0  0  0  0  0  0  0
   -4.1770   -1.7029    6.8689 F   0  0  0  0  0  0  0  0  0  0  0  0
   -5.4465    0.3565    5.1339 C   0  0  0  0  0  0  0  0  0  0  0  0
   -6.1512   -0.8739    4.6376 C   0  0  0  0  0  0  0  0  0  0  0  0
   -6.1660   -1.0296    3.4732 O   0  0  0  0  0  0  0  0  0  0  0  0
   -6.8133   -1.6595    5.7306 N   0  0  0  0  0  0  0  0  0  0  0  0
   -7.6229   -2.9603    5.6761 C   0  0  2  0  0  0  0  0  0  0  0  0
   -8.5656   -3.2177    4.4667 C   0  0  0  0  0  0  0  0  0  0  0  0
   -9.1665   -1.9745    3.8633 C   0  0  0  0  0  0  0  0  0  0  0  0
   -9.2197   -0.8765    4.8895 C   0  0  0  0  0  0  0  0  0  0  0  0
   -8.2243   -1.1045    6.0445 C   0  0  1  0  0  0  0  0  0  0  0  0
   -8.9456   -1.4277    7.3911 C   0  0  0  0  0  0  0  0  0  0  0  0
   -9.4895   -0.5816    8.0917 O   0  0  0  0  0  0  0  0  0  0  0  0
   -9.0433   -2.7605    7.6504 N   0  0  0  0  0  0  0  0  0  0  0  0
   -8.1061   -3.6032    6.9922 C   0  0  0  0  0  0  0  0  0  0  0  0
   -5.5167    1.4365    4.2258 C   0  0  0  0  0  0  0  0  0  0  0  0
   -5.0271    2.7035    4.5449 C   0  0  0  0  0  0  0  0  0  0  0  0
   -5.1902    4.1919    3.0793 I   0  0  0  0  0  0  0  0  0  0  0  0
  1  2  1  0
  2  3  2  0
  3  4  1  0
  4  5  1  0
  5  6  1  0
  5  7  1  0
  5  8  1  0
  4  9  2  0
  9 10  1  0
 10 11  2  0
 10 12  1  0
 12 13  1  0
 13 14  1  6
 14 15  1  0
 15 16  1  0
 17 16  1  6
 17 18  1  0
 18 19  2  0
 18 20  1  0
 20 21  1  0
  9 22  1  0
 22 23  2  0
 23 24  1  0
 23  2  1  0
 17 12  1  0
 21 13  1  0
M  END
>  <ref_mols>  (1923) 
7gpj-a

>  <gnina_score>  (1923) 
5.29

>  <smina_score_min>  (1923) 
-5.655

>  <ref_pdb>  (1923) 
7gpj-a

>  <inspiration_score>  (1923) 
None

>  <inchikey>  (1923) 
VSTMWGCUXFHWKM-RNCFNFMXSA-N

>  <tags>  (1923) 
BulkDock Fragalysis export,openbind_d68ev3c_c2_elabs_scored,openbind_d68ev3c_c2_elabs_scored_4.5plus,openbind_d68ev3c_c2_elabs,openbind_d68ev3c_c2_elabs_scored_5plus,syndirella_product,openbind_d68ev3c_c2_elabs_scored_top80percent,syndirella_placed

>  <smiles>  (1923) 
Cc1cc(C(F)(F)F)c(C(=O)N2[C@@H]3CCC[C@H]2C(=O)NC3)cc1I

>  <subsites>  (1923) 
None

>  <rmsd(smina/fragmenstein)>  (1923) 
0.607

>  <alias>  (1923) 
None

>  <energy_score>  (1923) 
-50.261977

>  <HIPPO Pose ID>  (1923) 
138756

>  <distance_score>  (1923) 
0.831186

>  <HIPPO Compound ID>  (1923) 
162507

>  <gnina_score_min>  (1923) 
5.306

>  <name>  (1923) 
P138756

>  <exports>  (1923) 
['/opt/xchem-fragalysis-2/maxwin/BulkDock/OUTPUTS/openbind_d68ev3c_c2_elabs_1LOTQJ3.sdf', '/opt/xchem-fragalysis-2/maxwin/BulkDock/OUTPUTS/openbind_d68ev3c_c2_elabs_1LSYI5W.sdf']

$$$$
P138757
     RDKit          3D

 24 25  0  0  0  0  0  0  0  0999 V2000
   -4.0986    4.2261    6.0880 C   0  0  0  0  0  0  0  0  0  0  0  0
   -4.5714    2.8496    5.7053 C   0  0  0  0  0  0  0  0  0  0  0  0
   -4.4609    1.8139    6.6491 C   0  0  0  0  0  0  0  0  0  0  0  0
   -4.8450    0.4789    6.3730 C   0  0  0  0  0  0  0  0  0  0  0  0
   -4.5771   -0.5538    7.4357 C   0  0  0  0  0  0  0  0  0  0  0  0
   -5.6539   -0.8249    8.2153 F   0  0  0  0  0  0  0  0  0  0  0  0
   -4.1132   -1.7360    6.9509 F   0  0  0  0  0  0  0  0  0  0  0  0
   -3.6024   -0.1323    8.3005 F   0  0  0  0  0  0  0  0  0  0  0  0
   -5.4119    0.2028    5.1238 C   0  0  0  0  0  0  0  0  0  0  0  0
   -6.0316   -1.0868    4.6678 C   0  0  0  0  0  0  0  0  0  0  0  0
   -5.9623   -1.3218    3.5189 O   0  0  0  0  0  0  0  0  0  0  0  0
   -6.7339   -1.8246    5.7688 N   0  0  0  0  0  0  0  0  0  0  0  0
   -7.4779   -3.1451    5.7548 C   0  0  0  0  0  0  0  0  0  0  0  0
   -8.0683   -3.7505    7.0312 C   0  0  0  0  0  0  0  0  0  0  0  0
   -8.9802   -2.8613    7.6671 N   0  0  0  0  0  0  0  0  0  0  0  0
   -8.9410   -1.5510    7.3025 C   0  0  0  0  0  0  0  0  0  0  0  0
   -9.5297   -0.6761    7.9273 O   0  0  0  0  0  0  0  0  0  0  0  0
   -8.1995   -1.3059    5.9535 C   0  0  2  0  0  0  0  0  0  0  0  0
   -9.1310   -1.1512    4.6864 C   0  0  0  0  0  0  0  0  0  0  0  0
  -10.4450   -1.9348    4.7851 C   0  0  0  0  0  0  0  0  0  0  0  0
   -9.4719    0.3252    4.4277 C   0  0  0  0  0  0  0  0  0  0  0  0
   -5.5166    1.2402    4.1713 C   0  0  0  0  0  0  0  0  0  0  0  0
   -5.0984    2.5420    4.4505 C   0  0  0  0  0  0  0  0  0  0  0  0
   -5.3154    3.9640    2.9266 I   0  0  0  0  0  0  0  0  0  0  0  0
  1  2  1  0
  2  3  2  0
  3  4  1  0
  4  5  1  0
  5  6  1  0
  5  7  1  0
  5  8  1  0
  4  9  2  0
  9 10  1  0
 10 11  2  0
 10 12  1  0
 12 13  1  0
 13 14  1  0
 14 15  1  0
 15 16  1  0
 16 17  2  0
 16 18  1  0
 18 19  1  6
 19 20  1  0
 19 21  1  0
  9 22  1  0
 22 23  2  0
 23 24  1  0
 23  2  1  0
 18 12  1  0
M  END
>  <ref_mols>  (1924) 
7gpj-a

>  <gnina_score>  (1924) 
5.337

>  <smina_score_min>  (1924) 
-5.629

>  <ref_pdb>  (1924) 
7gpj-a

>  <inspiration_score>  (1924) 
None

>  <inchikey>  (1924) 
DJIQJEABQATIGD-ZDUSSCGKSA-N

>  <tags>  (1924) 
BulkDock Fragalysis export,openbind_d68ev3c_c2_elabs_scored,openbind_d68ev3c_c2_elabs_scored_4.5plus,openbind_d68ev3c_c2_elabs,openbind_d68ev3c_c2_elabs_scored_5plus,syndirella_product,openbind_d68ev3c_c2_elabs_scored_top80percent,syndirella_placed

>  <smiles>  (1924) 
Cc1cc(C(F)(F)F)c(C(=O)N2CCNC(=O)[C@@H]2C(C)C)cc1I

>  <subsites>  (1924) 
None

>  <rmsd(smina/fragmenstein)>  (1924) 
0.659

>  <alias>  (1924) 
None

>  <energy_score>  (1924) 
-359.975992

>  <HIPPO Pose ID>  (1924) 
138757

>  <distance_score>  (1924) 
0.726978

>  <HIPPO Compound ID>  (1924) 
162508

>  <gnina_score_min>  (1924) 
5.352

>  <name>  (1924) 
P138757

>  <exports>  (1924) 
['/opt/xchem-fragalysis-2/maxwin/BulkDock/OUTPUTS/openbind_d68ev3c_c2_elabs_1LOTQJ3.sdf', '/opt/xchem-fragalysis-2/maxwin/BulkDock/OUTPUTS/openbind_d68ev3c_c2_elabs_1LSYI5W.sdf']

$$$$
P138758
     RDKit          3D

 24 25  0  0  0  0  0  0  0  0999 V2000
   -4.5513    4.3696    5.8668 C   0  0  0  0  0  0  0  0  0  0  0  0
   -4.8927    2.9234    5.6297 C   0  0  0  0  0  0  0  0  0  0  0  0
   -4.5307    1.9796    6.6076 C   0  0  0  0  0  0  0  0  0  0  0  0
   -4.7911    0.5989    6.4618 C   0  0  0  0  0  0  0  0  0  0  0  0
   -4.3095   -0.3409    7.5342 C   0  0  0  0  0  0  0  0  0  0  0  0
   -5.3198   -0.8559    8.2841 F   0  0  0  0  0  0  0  0  0  0  0  0
   -3.4605    0.2560    8.4172 F   0  0  0  0  0  0  0  0  0  0  0  0
   -3.6169   -1.4024    7.0392 F   0  0  0  0  0  0  0  0  0  0  0  0
   -5.4711    0.1726    5.3126 C   0  0  0  0  0  0  0  0  0  0  0  0
   -5.8210   -1.2430    4.9748 C   0  0  0  0  0  0  0  0  0  0  0  0
   -5.6889   -1.5547    3.8616 O   0  0  0  0  0  0  0  0  0  0  0  0
   -6.3974   -2.0203    6.1619 N   0  0  0  0  0  0  0  0  0  0  0  0
   -6.8501   -3.3861    6.2568 C   0  0  0  0  0  0  0  0  0  0  0  0
   -8.1974   -3.5913    6.9808 C   0  0  0  0  0  0  0  0  0  0  0  0
   -9.1549   -2.4875    6.9913 N   0  0  0  0  0  0  0  0  0  0  0  0
   -9.6038   -2.0711    5.6676 C   0  0  0  0  0  0  0  0  0  0  0  0
  -10.1701   -0.6497    5.6460 C   0  0  0  0  0  0  0  0  0  0  0  0
   -9.2325    0.2857    6.2121 N   0  0  0  0  0  0  0  0  0  0  0  0
   -8.5389   -0.0571    7.3413 C   0  0  0  0  0  0  0  0  0  0  0  0
   -7.6970    0.7037    7.8137 O   0  0  0  0  0  0  0  0  0  0  0  0
   -8.8834   -1.4152    7.9641 C   0  0  0  0  0  0  0  0  0  0  0  0
   -5.8374    1.1127    4.3301 C   0  0  0  0  0  0  0  0  0  0  0  0
   -5.5511    2.4703    4.4825 C   0  0  0  0  0  0  0  0  0  0  0  0
   -6.1546    3.7507    2.9362 I   0  0  0  0  0  0  0  0  0  0  0  0
  1  2  1  0
  2  3  2  0
  3  4  1  0
  4  5  1  0
  5  6  1  0
  5  7  1  0
  5  8  1  0
  4  9  2  0
  9 10  1  0
 10 11  2  0
 10 12  1  0
 12 13  1  0
 13 14  1  0
 14 15  1  0
 15 16  1  0
 16 17  1  0
 17 18  1  0
 18 19  1  0
 19 20  2  0
 19 21  1  0
  9 22  1  0
 22 23  2  0
 23 24  1  0
 23  2  1  0
 21 15  1  0
M  END
>  <ref_mols>  (1925) 
7gpj-a

>  <gnina_score>  (1925) 
5.042

>  <smina_score_min>  (1925) 
-4.387

>  <ref_pdb>  (1925) 
7gpj-a

>  <inspiration_score>  (1925) 
None

>  <inchikey>  (1925) 
YPACATMPGYYLBV-UHFFFAOYSA-N

>  <tags>  (1925) 
BulkDock Fragalysis export,openbind_d68ev3c_c2_elabs_scored,openbind_d68ev3c_c2_elabs_scored_4.5plus,openbind_d68ev3c_c2_elabs,openbind_d68ev3c_c2_elabs_scored_5plus,syndirella_product,openbind_d68ev3c_c2_elabs_scored_top80percent,syndirella_placed

>  <smiles>  (1925) 
Cc1cc(C(F)(F)F)c(C(=O)NCCN2CCNC(=O)C2)cc1I

>  <subsites>  (1925) 
None

>  <rmsd(smina/fragmenstein)>  (1925) 
1.541

>  <alias>  (1925) 
None

>  <energy_score>  (1925) 
-27.646896

>  <HIPPO Pose ID>  (1925) 
138758

>  <distance_score>  (1925) 
1.316586

>  <HIPPO Compound ID>  (1925) 
162509

>  <gnina_score_min>  (1925) 
5.173

>  <name>  (1925) 
P138758

>  <exports>  (1925) 
['/opt/xchem-fragalysis-2/maxwin/BulkDock/OUTPUTS/openbind_d68ev3c_c2_elabs_1LOTQJ3.sdf', '/opt/xchem-fragalysis-2/maxwin/BulkDock/OUTPUTS/openbind_d68ev3c_c2_elabs_1LSYI5W.sdf']

$$$$
P138759
     RDKit          3D

 24 26  0  0  0  0  0  0  0  0999 V2000
   -3.7754    5.3699    6.4383 N   0  0  0  0  0  0  0  0  0  0  0  0
   -4.1147    4.2984    6.1507 C   0  0  0  0  0  0  0  0  0  0  0  0
   -4.5530    2.9798    5.7918 C   0  0  0  0  0  0  0  0  0  0  0  0
   -5.1062    2.7453    4.5399 C   0  0  0  0  0  0  0  0  0  0  0  0
   -5.5559    1.4677    4.2174 C   0  0  0  0  0  0  0  0  0  0  0  0
   -5.4540    0.3880    5.1255 C   0  0  0  0  0  0  0  0  0  0  0  0
   -6.1365   -0.8549    4.6310 C   0  0  0  0  0  0  0  0  0  0  0  0
   -6.1354   -1.0193    3.4678 O   0  0  0  0  0  0  0  0  0  0  0  0
   -6.8013   -1.6413    5.7221 N   0  0  0  0  0  0  0  0  0  0  0  0
   -7.5938   -2.9541    5.6678 C   0  0  2  0  0  0  0  0  0  0  0  0
   -8.5159   -3.2314    4.4472 C   0  0  0  0  0  0  0  0  0  0  0  0
   -9.1209   -1.9998    3.8262 C   0  0  0  0  0  0  0  0  0  0  0  0
   -9.2133   -0.9033    4.8506 C   0  0  0  0  0  0  0  0  0  0  0  0
   -8.2226   -1.1028    6.0152 C   0  0  1  0  0  0  0  0  0  0  0  0
   -8.9450   -1.4216    7.3622 C   0  0  0  0  0  0  0  0  0  0  0  0
   -9.4869   -0.5722    8.0601 O   0  0  0  0  0  0  0  0  0  0  0  0
   -9.0402   -2.7532    7.6271 N   0  0  0  0  0  0  0  0  0  0  0  0
   -8.0906   -3.5929    6.9817 C   0  0  0  0  0  0  0  0  0  0  0  0
   -4.8513    0.6014    6.3746 C   0  0  0  0  0  0  0  0  0  0  0  0
   -4.5901   -0.4794    7.3924 C   0  0  0  0  0  0  0  0  0  0  0  0
   -5.6623   -0.7644    8.1726 F   0  0  0  0  0  0  0  0  0  0  0  0
   -3.5998   -0.1063    8.2607 F   0  0  0  0  0  0  0  0  0  0  0  0
   -4.1494   -1.6477    6.8553 F   0  0  0  0  0  0  0  0  0  0  0  0
   -4.4305    1.9185    6.6969 C   0  0  0  0  0  0  0  0  0  0  0  0
  1  2  3  0
  2  3  1  0
  3  4  2  0
  4  5  1  0
  5  6  2  0
  6  7  1  0
  7  8  2  0
  7  9  1  0
  9 10  1  0
 10 11  1  6
 11 12  1  0
 12 13  1  0
 14 13  1  6
 14 15  1  0
 15 16  2  0
 15 17  1  0
 17 18  1  0
  6 19  1  0
 19 20  1  0
 20 21  1  0
 20 22  1  0
 20 23  1  0
 19 24  2  0
 24  3  1  0
 14  9  1  0
 18 10  1  0
M  END
>  <ref_mols>  (1926) 
7gpj-a

>  <gnina_score>  (1926) 
5.034

>  <smina_score_min>  (1926) 
-5.457

>  <ref_pdb>  (1926) 
7gpj-a

>  <inspiration_score>  (1926) 
None

>  <inchikey>  (1926) 
UGNMNRJDXTXESS-MFKMUULPSA-N

>  <tags>  (1926) 
BulkDock Fragalysis export,openbind_d68ev3c_c2_elabs_scored,openbind_d68ev3c_c2_elabs_scored_4.5plus,openbind_d68ev3c_c2_elabs,openbind_d68ev3c_c2_elabs_scored_5plus,syndirella_product,openbind_d68ev3c_c2_elabs_scored_top80percent,syndirella_placed

>  <smiles>  (1926) 
N#Cc1ccc(C(=O)N2[C@@H]3CCC[C@H]2C(=O)NC3)c(C(F)(F)F)c1

>  <subsites>  (1926) 
None

>  <rmsd(smina/fragmenstein)>  (1926) 
0.665

>  <alias>  (1926) 
None

>  <energy_score>  (1926) 
-36.637911

>  <HIPPO Pose ID>  (1926) 
138759

>  <distance_score>  (1926) 
0.829395

>  <HIPPO Compound ID>  (1926) 
162553

>  <gnina_score_min>  (1926) 
5.078

>  <name>  (1926) 
P138759

>  <exports>  (1926) 
['/opt/xchem-fragalysis-2/maxwin/BulkDock/OUTPUTS/openbind_d68ev3c_c2_elabs_1LOTQJ3.sdf', '/opt/xchem-fragalysis-2/maxwin/BulkDock/OUTPUTS/openbind_d68ev3c_c2_elabs_1LSYI5W.sdf']

$$$$
P138761
     RDKit          3D

 24 26  0  0  0  0  0  0  0  0999 V2000
   -4.4820    4.8419    3.6713 C   0  0  0  0  0  0  0  0  0  0  0  0
   -5.1410    3.5947    3.4796 O   0  0  0  0  0  0  0  0  0  0  0  0
   -5.0192    2.6769    4.4833 C   0  0  0  0  0  0  0  0  0  0  0  0
   -4.4861    2.9070    5.7410 C   0  0  0  0  0  0  0  0  0  0  0  0
   -4.4095    1.8625    6.6668 C   0  0  0  0  0  0  0  0  0  0  0  0
   -4.8499    0.5537    6.3612 C   0  0  0  0  0  0  0  0  0  0  0  0
   -4.6113   -0.5140    7.3958 C   0  0  0  0  0  0  0  0  0  0  0  0
   -5.6927   -0.7788    8.1716 F   0  0  0  0  0  0  0  0  0  0  0  0
   -3.6248   -0.1417    8.2712 F   0  0  0  0  0  0  0  0  0  0  0  0
   -4.1769   -1.6952    6.8805 F   0  0  0  0  0  0  0  0  0  0  0  0
   -5.4436    0.3386    5.1097 C   0  0  0  0  0  0  0  0  0  0  0  0
   -6.1500   -0.8953    4.6248 C   0  0  0  0  0  0  0  0  0  0  0  0
   -6.1622   -1.0629    3.4620 O   0  0  0  0  0  0  0  0  0  0  0  0
   -6.8169   -1.6682    5.7241 N   0  0  0  0  0  0  0  0  0  0  0  0
   -7.6290   -2.9668    5.6809 C   0  0  2  0  0  0  0  0  0  0  0  0
   -8.5662   -3.2327    4.4689 C   0  0  0  0  0  0  0  0  0  0  0  0
   -9.1675   -1.9953    3.8545 C   0  0  0  0  0  0  0  0  0  0  0  0
   -9.2190   -0.8870    4.8691 C   0  0  0  0  0  0  0  0  0  0  0  0
   -8.2276   -1.1066    6.0288 C   0  0  1  0  0  0  0  0  0  0  0  0
   -8.9531   -1.4164    7.3772 C   0  0  0  0  0  0  0  0  0  0  0  0
   -9.4965   -0.5637    8.0701 O   0  0  0  0  0  0  0  0  0  0  0  0
   -9.0554   -2.7464    7.6484 N   0  0  0  0  0  0  0  0  0  0  0  0
   -8.1198   -3.5978    6.9992 C   0  0  0  0  0  0  0  0  0  0  0  0
   -5.5066    1.4079    4.1862 C   0  0  0  0  0  0  0  0  0  0  0  0
  1  2  1  0
  2  3  1  0
  3  4  2  0
  4  5  1  0
  5  6  2  0
  6  7  1  0
  7  8  1  0
  7  9  1  0
  7 10  1  0
  6 11  1  0
 11 12  1  0
 12 13  2  0
 12 14  1  0
 14 15  1  0
 15 16  1  6
 16 17  1  0
 17 18  1  0
 19 18  1  6
 19 20  1  0
 20 21  2  0
 20 22  1  0
 22 23  1  0
 11 24  2  0
 24  3  1  0
 19 14  1  0
 23 15  1  0
M  END
>  <ref_mols>  (1927) 
7gpj-a

>  <gnina_score>  (1927) 
5.028

>  <smina_score_min>  (1927) 
-5.263

>  <ref_pdb>  (1927) 
7gpj-a

>  <inspiration_score>  (1927) 
None

>  <inchikey>  (1927) 
DYHCKNHGZRYOSC-RNCFNFMXSA-N

>  <tags>  (1927) 
BulkDock Fragalysis export,openbind_d68ev3c_c2_elabs_scored,openbind_d68ev3c_c2_elabs_scored_4.5plus,openbind_d68ev3c_c2_elabs,openbind_d68ev3c_c2_elabs_scored_5plus,syndirella_product,openbind_d68ev3c_c2_elabs_scored_top80percent,syndirella_placed

>  <smiles>  (1927) 
COc1ccc(C(F)(F)F)c(C(=O)N2[C@@H]3CCC[C@H]2C(=O)NC3)c1

>  <subsites>  (1927) 
None

>  <rmsd(smina/fragmenstein)>  (1927) 
0.827

>  <alias>  (1927) 
None

>  <energy_score>  (1927) 
-43.501873

>  <HIPPO Pose ID>  (1927) 
138761

>  <distance_score>  (1927) 
0.822152

>  <HIPPO Compound ID>  (1927) 
162569

>  <gnina_score_min>  (1927) 
5.083

>  <name>  (1927) 
P138761

>  <exports>  (1927) 
['/opt/xchem-fragalysis-2/maxwin/BulkDock/OUTPUTS/openbind_d68ev3c_c2_elabs_1LOTQJ3.sdf', '/opt/xchem-fragalysis-2/maxwin/BulkDock/OUTPUTS/openbind_d68ev3c_c2_elabs_1LSYI5W.sdf']

$$$$
P138764
     RDKit          3D

 24 26  0  0  0  0  0  0  0  0999 V2000
   -3.4214    4.4860    7.2215 C   0  0  0  0  0  0  0  0  0  0  0  0
   -4.1451    4.2301    6.0228 O   0  0  0  0  0  0  0  0  0  0  0  0
   -4.5398    2.9429    5.7957 C   0  0  0  0  0  0  0  0  0  0  0  0
   -5.1048    2.7151    4.5500 C   0  0  0  0  0  0  0  0  0  0  0  0
   -5.5654    1.4459    4.2148 C   0  0  0  0  0  0  0  0  0  0  0  0
   -5.4658    0.3618    5.1123 C   0  0  0  0  0  0  0  0  0  0  0  0
   -6.1640   -0.8720    4.6179 C   0  0  0  0  0  0  0  0  0  0  0  0
   -6.1792   -1.0318    3.4540 O   0  0  0  0  0  0  0  0  0  0  0  0
   -6.8215   -1.6575    5.7149 N   0  0  0  0  0  0  0  0  0  0  0  0
   -7.6249   -2.9623    5.6657 C   0  0  2  0  0  0  0  0  0  0  0  0
   -8.5715   -3.2271    4.4606 C   0  0  0  0  0  0  0  0  0  0  0  0
   -9.1750   -1.9884    3.8514 C   0  0  0  0  0  0  0  0  0  0  0  0
   -9.2310   -0.8870    4.8730 C   0  0  0  0  0  0  0  0  0  0  0  0
   -8.2347   -1.1082    6.0285 C   0  0  1  0  0  0  0  0  0  0  0  0
   -8.9531   -1.4304    7.3776 C   0  0  0  0  0  0  0  0  0  0  0  0
   -9.5041   -0.5850    8.0732 O   0  0  0  0  0  0  0  0  0  0  0  0
   -9.0378   -2.7621    7.6460 N   0  0  0  0  0  0  0  0  0  0  0  0
   -8.1006   -3.6035    6.9853 C   0  0  0  0  0  0  0  0  0  0  0  0
   -4.8574    0.5672    6.3593 C   0  0  0  0  0  0  0  0  0  0  0  0
   -4.5993   -0.5141    7.3747 C   0  0  0  0  0  0  0  0  0  0  0  0
   -4.1713   -1.6881    6.8389 F   0  0  0  0  0  0  0  0  0  0  0  0
   -5.6680   -0.7896    8.1643 F   0  0  0  0  0  0  0  0  0  0  0  0
   -3.5999   -0.1509    8.2397 F   0  0  0  0  0  0  0  0  0  0  0  0
   -4.4264    1.8793    6.6907 C   0  0  0  0  0  0  0  0  0  0  0  0
  1  2  1  0
  2  3  1  0
  3  4  2  0
  4  5  1  0
  5  6  2  0
  6  7  1  0
  7  8  2  0
  7  9  1  0
  9 10  1  0
 10 11  1  6
 11 12  1  0
 12 13  1  0
 14 13  1  6
 14 15  1  0
 15 16  2  0
 15 17  1  0
 17 18  1  0
  6 19  1  0
 19 20  1  0
 20 21  1  0
 20 22  1  0
 20 23  1  0
 19 24  2  0
 24  3  1  0
 14  9  1  0
 18 10  1  0
M  END
>  <ref_mols>  (1928) 
7gpj-a

>  <gnina_score>  (1928) 
5.077

>  <smina_score_min>  (1928) 
-5.316

>  <ref_pdb>  (1928) 
7gpj-a

>  <inspiration_score>  (1928) 
None

>  <inchikey>  (1928) 
UFZUQQCMKFDRFX-RNCFNFMXSA-N

>  <tags>  (1928) 
BulkDock Fragalysis export,openbind_d68ev3c_c2_elabs_scored,openbind_d68ev3c_c2_elabs_scored_4.5plus,openbind_d68ev3c_c2_elabs,openbind_d68ev3c_c2_elabs_scored_5plus,syndirella_product,openbind_d68ev3c_c2_elabs_scored_top80percent,syndirella_placed

>  <smiles>  (1928) 
COc1ccc(C(=O)N2[C@@H]3CCC[C@H]2C(=O)NC3)c(C(F)(F)F)c1

>  <subsites>  (1928) 
None

>  <rmsd(smina/fragmenstein)>  (1928) 
0.751

>  <alias>  (1928) 
None

>  <energy_score>  (1928) 
-38.972374

>  <HIPPO Pose ID>  (1928) 
138764

>  <distance_score>  (1928) 
0.833814

>  <HIPPO Compound ID>  (1928) 
162631

>  <gnina_score_min>  (1928) 
5.147

>  <name>  (1928) 
P138764

>  <exports>  (1928) 
['/opt/xchem-fragalysis-2/maxwin/BulkDock/OUTPUTS/openbind_d68ev3c_c2_elabs_1LOTQJ3.sdf', '/opt/xchem-fragalysis-2/maxwin/BulkDock/OUTPUTS/openbind_d68ev3c_c2_elabs_1LSYI5W.sdf']

$$$$
P138766
     RDKit          3D

 24 26  0  0  0  0  0  0  0  0999 V2000
   -9.5524   -0.5072    7.9758 O   0  0  0  0  0  0  0  0  0  0  0  0
   -9.0252   -1.3749    7.2897 C   0  0  0  0  0  0  0  0  0  0  0  0
   -9.1444   -2.7019    7.5730 N   0  0  0  0  0  0  0  0  0  0  0  0
   -8.1549   -3.5474    7.0001 C   0  0  0  0  0  0  0  0  0  0  0  0
   -7.5948   -2.9387    5.6983 C   0  0  1  0  0  0  0  0  0  0  0  0
   -8.4436   -3.2685    4.4377 C   0  0  0  0  0  0  0  0  0  0  0  0
   -9.0355   -2.0680    3.7485 C   0  0  0  0  0  0  0  0  0  0  0  0
   -9.2216   -0.9582    4.7438 C   0  0  0  0  0  0  0  0  0  0  0  0
   -8.2723   -1.0893    5.9501 C   0  0  2  0  0  0  0  0  0  0  0  0
   -6.8291   -1.6093    5.7519 N   0  0  0  0  0  0  0  0  0  0  0  0
   -6.1195   -0.8455    4.6722 C   0  0  0  0  0  0  0  0  0  0  0  0
   -6.0524   -1.0471    3.5178 O   0  0  0  0  0  0  0  0  0  0  0  0
   -5.4937    0.4154    5.1708 C   0  0  0  0  0  0  0  0  0  0  0  0
   -4.8408    0.5995    6.4016 C   0  0  0  0  0  0  0  0  0  0  0  0
   -4.5513   -0.5033    7.3869 C   0  0  0  0  0  0  0  0  0  0  0  0
   -5.6039   -0.8048    8.1878 F   0  0  0  0  0  0  0  0  0  0  0  0
   -3.5391   -0.1499    8.2379 F   0  0  0  0  0  0  0  0  0  0  0  0
   -4.1269   -1.6593    6.8131 F   0  0  0  0  0  0  0  0  0  0  0  0
   -4.4101    1.9048    6.7386 C   0  0  0  0  0  0  0  0  0  0  0  0
   -4.5788    2.9830    5.8696 C   0  0  0  0  0  0  0  0  0  0  0  0
   -5.2121    2.7860    4.6529 C   0  0  0  0  0  0  0  0  0  0  0  0
   -5.4592    4.2561    3.4893 Br  0  0  0  0  0  0  0  0  0  0  0  0
   -5.6779    1.5213    4.3134 C   0  0  0  0  0  0  0  0  0  0  0  0
   -6.3605    1.3902    3.1631 F   0  0  0  0  0  0  0  0  0  0  0  0
  1  2  2  0
  2  3  1  0
  3  4  1  0
  5  4  1  1
  5  6  1  0
  6  7  1  0
  7  8  1  0
  9  8  1  6
  9 10  1  0
 10 11  1  0
 11 12  2  0
 11 13  1  0
 13 14  2  0
 14 15  1  0
 15 16  1  0
 15 17  1  0
 15 18  1  0
 14 19  1  0
 19 20  2  0
 20 21  1  0
 21 22  1  0
 21 23  2  0
 23 24  1  0
  9  2  1  0
 23 13  1  0
 10  5  1  0
M  END
>  <ref_mols>  (1929) 
7gpj-a

>  <gnina_score>  (1929) 
5.239

>  <smina_score_min>  (1929) 
-5.293

>  <ref_pdb>  (1929) 
7gpj-a

>  <inspiration_score>  (1929) 
None

>  <inchikey>  (1929) 
GBOBXVWFYGVPQH-XCBNKYQSSA-N

>  <tags>  (1929) 
BulkDock Fragalysis export,openbind_d68ev3c_c2_elabs_scored,openbind_d68ev3c_c2_elabs_scored_4.5plus,openbind_d68ev3c_c2_elabs,openbind_d68ev3c_c2_elabs_scored_5plus,syndirella_product,openbind_d68ev3c_c2_elabs_scored_top80percent,syndirella_placed

>  <smiles>  (1929) 
O=C1NC[C@H]2CCC[C@@H]1N2C(=O)c1c(C(F)(F)F)ccc(Br)c1F

>  <subsites>  (1929) 
None

>  <rmsd(smina/fragmenstein)>  (1929) 
1.048

>  <alias>  (1929) 
None

>  <energy_score>  (1929) 
-33.802041

>  <HIPPO Pose ID>  (1929) 
138766

>  <distance_score>  (1929) 
0.841319

>  <HIPPO Compound ID>  (1929) 
162669

>  <gnina_score_min>  (1929) 
5.418

>  <name>  (1929) 
P138766

>  <exports>  (1929) 
['/opt/xchem-fragalysis-2/maxwin/BulkDock/OUTPUTS/openbind_d68ev3c_c2_elabs_1LOTQJ3.sdf', '/opt/xchem-fragalysis-2/maxwin/BulkDock/OUTPUTS/openbind_d68ev3c_c2_elabs_1LSYI5W.sdf']

$$$$
P138768
     RDKit          3D

 24 26  0  0  0  0  0  0  0  0999 V2000
   -4.8397    3.9100    5.0802 C   0  0  0  0  0  0  0  0  0  0  0  0
   -4.9702    2.4213    5.2268 C   0  0  0  0  0  0  0  0  0  0  0  0
   -5.4605    1.6432    4.1727 C   0  0  0  0  0  0  0  0  0  0  0  0
   -5.5982    0.2627    4.3218 C   0  0  0  0  0  0  0  0  0  0  0  0
   -5.2603   -0.3443    5.5371 C   0  0  0  0  0  0  0  0  0  0  0  0
   -5.3876   -1.8133    5.6589 C   0  0  0  0  0  0  0  0  0  0  0  0
   -4.4852   -2.4908    5.3377 O   0  0  0  0  0  0  0  0  0  0  0  0
   -6.7382   -2.1846    6.1812 N   0  0  0  0  0  0  0  0  0  0  0  0
   -7.7696   -2.3658    5.0227 C   0  0  0  0  0  0  0  0  0  0  0  0
   -8.6444   -3.1705    5.9452 C   0  0  0  0  0  0  0  0  0  0  0  0
   -9.5476   -2.3954    6.8249 N   0  0  0  0  0  0  0  0  0  0  0  0
  -10.6795   -1.8816    6.0418 C   0  0  0  0  0  0  0  0  0  0  0  0
  -11.7713   -1.3553    6.9728 C   0  0  0  0  0  0  0  0  0  0  0  0
  -11.2622   -0.4098    7.9419 N   0  0  0  0  0  0  0  0  0  0  0  0
  -10.0033   -0.5569    8.4785 C   0  0  0  0  0  0  0  0  0  0  0  0
   -9.7255    0.0360    9.5211 O   0  0  0  0  0  0  0  0  0  0  0  0
   -8.9585   -1.3205    7.6515 C   0  0  0  0  0  0  0  0  0  0  0  0
   -7.3217   -3.5410    6.5516 C   0  0  0  0  0  0  0  0  0  0  0  0
   -4.7606    0.4093    6.6028 C   0  0  0  0  0  0  0  0  0  0  0  0
   -4.3609   -0.2553    7.8899 C   0  0  0  0  0  0  0  0  0  0  0  0
   -3.6712    0.5864    8.7075 F   0  0  0  0  0  0  0  0  0  0  0  0
   -3.5435   -1.3265    7.7136 F   0  0  0  0  0  0  0  0  0  0  0  0
   -5.4288   -0.6856    8.6070 F   0  0  0  0  0  0  0  0  0  0  0  0
   -4.6410    1.8018    6.4411 C   0  0  0  0  0  0  0  0  0  0  0  0
  1  2  1  0
  2  3  2  0
  3  4  1  0
  4  5  2  0
  5  6  1  0
  6  7  2  0
  6  8  1  0
  8  9  1  0
  9 10  1  0
 10 11  1  0
 11 12  1  0
 12 13  1  0
 13 14  1  0
 14 15  1  0
 15 16  2  0
 15 17  1  0
 10 18  1  0
  5 19  1  0
 19 20  1  0
 20 21  1  0
 20 22  1  0
 20 23  1  0
 19 24  2  0
 24  2  1  0
 18  8  1  0
 17 11  1  0
M  END
>  <ref_mols>  (1930) 
7gpj-a

>  <gnina_score>  (1930) 
5.125

>  <smina_score_min>  (1930) 
-5.921

>  <ref_pdb>  (1930) 
7gpj-a

>  <inspiration_score>  (1930) 
None

>  <inchikey>  (1930) 
VOTSBDKIWGHLLH-UHFFFAOYSA-N

>  <tags>  (1930) 
BulkDock Fragalysis export,openbind_d68ev3c_c2_elabs_scored,openbind_d68ev3c_c2_elabs_scored_4.5plus,openbind_d68ev3c_c2_elabs,openbind_d68ev3c_c2_elabs_scored_5plus,syndirella_product,openbind_d68ev3c_c2_elabs_scored_top80percent,syndirella_placed

>  <smiles>  (1930) 
Cc1ccc(C(=O)N2CC(N3CCNC(=O)C3)C2)c(C(F)(F)F)c1

>  <subsites>  (1930) 
None

>  <rmsd(smina/fragmenstein)>  (1930) 
0.585

>  <alias>  (1930) 
None

>  <energy_score>  (1930) 
-8.445153

>  <HIPPO Pose ID>  (1930) 
138768

>  <distance_score>  (1930) 
0.73445

>  <HIPPO Compound ID>  (1930) 
162693

>  <gnina_score_min>  (1930) 
5.12

>  <name>  (1930) 
P138768

>  <exports>  (1930) 
['/opt/xchem-fragalysis-2/maxwin/BulkDock/OUTPUTS/openbind_d68ev3c_c2_elabs_1LOTQJ3.sdf', '/opt/xchem-fragalysis-2/maxwin/BulkDock/OUTPUTS/openbind_d68ev3c_c2_elabs_1LSYI5W.sdf']

$$$$
P138776
     RDKit          3D

 24 25  0  0  0  0  0  0  0  0999 V2000
   -9.9159    1.5898    9.4754 O   0  0  0  0  0  0  0  0  0  0  0  0
   -9.7675    0.9327    8.4461 C   0  0  0  0  0  0  0  0  0  0  0  0
   -9.6696   -0.5962    8.4484 C   0  0  0  0  0  0  0  0  0  0  0  0
   -8.9071   -1.1655    7.2965 N   0  0  0  0  0  0  0  0  0  0  0  0
   -9.0896   -2.6384    7.3218 C   0  0  0  0  0  0  0  0  0  0  0  0
   -8.3654   -3.4428    6.2342 C   0  0  0  0  0  0  0  0  0  0  0  0
   -6.8499   -3.3383    6.2806 C   0  0  0  0  0  0  0  0  0  0  0  0
   -6.3815   -1.9849    6.1830 N   0  0  0  0  0  0  0  0  0  0  0  0
   -5.7667   -1.2288    5.0055 C   0  0  0  0  0  0  0  0  0  0  0  0
   -5.4684   -1.5992    3.9455 O   0  0  0  0  0  0  0  0  0  0  0  0
   -5.4995    0.2055    5.3084 C   0  0  0  0  0  0  0  0  0  0  0  0
   -5.8452    1.1058    4.2823 C   0  0  0  0  0  0  0  0  0  0  0  0
   -5.6056    2.4706    4.4207 C   0  0  0  0  0  0  0  0  0  0  0  0
   -5.0152    2.9441    5.5853 C   0  0  0  0  0  0  0  0  0  0  0  0
   -4.7273    4.6281    5.7728 Cl  0  0  0  0  0  0  0  0  0  0  0  0
   -4.6506    2.0617    6.6028 C   0  0  0  0  0  0  0  0  0  0  0  0
   -4.8663    0.6730    6.4734 C   0  0  0  0  0  0  0  0  0  0  0  0
   -4.3830   -0.2407    7.5696 C   0  0  0  0  0  0  0  0  0  0  0  0
   -5.4023   -0.7099    8.3353 F   0  0  0  0  0  0  0  0  0  0  0  0
   -3.6955   -1.3209    7.1138 F   0  0  0  0  0  0  0  0  0  0  0  0
   -3.5334    0.3859    8.4307 F   0  0  0  0  0  0  0  0  0  0  0  0
   -9.4392   -0.5878    6.0477 C   0  0  0  0  0  0  0  0  0  0  0  0
   -9.2677    0.9361    6.0503 C   0  0  0  0  0  0  0  0  0  0  0  0
   -9.8088    1.5647    7.2296 N   0  0  0  0  0  0  0  0  0  0  0  0
  1  2  2  0
  2  3  1  0
  3  4  1  0
  4  5  1  0
  5  6  1  0
  6  7  1  0
  7  8  1  0
  8  9  1  0
  9 10  2  0
  9 11  1  0
 11 12  2  0
 12 13  1  0
 13 14  2  0
 14 15  1  0
 14 16  1  0
 16 17  2  0
 17 18  1  0
 18 19  1  0
 18 20  1  0
 18 21  1  0
  4 22  1  0
 22 23  1  0
 23 24  1  0
 24  2  1  0
 17 11  1  0
M  END
>  <ref_mols>  (1931) 
7gpj-a

>  <gnina_score>  (1931) 
4.96

>  <smina_score_min>  (1931) 
-4.488

>  <ref_pdb>  (1931) 
7gpj-a

>  <inspiration_score>  (1931) 
None

>  <inchikey>  (1931) 
YSNAXDFAQJNJHC-UHFFFAOYSA-N

>  <tags>  (1931) 
BulkDock Fragalysis export,openbind_d68ev3c_c2_elabs_scored,openbind_d68ev3c_c2_elabs_scored_4.5plus,openbind_d68ev3c_c2_elabs,openbind_d68ev3c_c2_elabs_scored_5plus,syndirella_product,openbind_d68ev3c_c2_elabs_scored_top80percent,syndirella_placed

>  <smiles>  (1931) 
O=C1CN(CCCNC(=O)c2ccc(Cl)cc2C(F)(F)F)CCN1

>  <subsites>  (1931) 
None

>  <rmsd(smina/fragmenstein)>  (1931) 
1.518

>  <alias>  (1931) 
None

>  <energy_score>  (1931) 
-39.898158

>  <HIPPO Pose ID>  (1931) 
138776

>  <distance_score>  (1931) 
0.683415

>  <HIPPO Compound ID>  (1931) 
162734

>  <gnina_score_min>  (1931) 
5.112

>  <name>  (1931) 
P138776

>  <exports>  (1931) 
['/opt/xchem-fragalysis-2/maxwin/BulkDock/OUTPUTS/openbind_d68ev3c_c2_elabs_1LOTQJ3.sdf', '/opt/xchem-fragalysis-2/maxwin/BulkDock/OUTPUTS/openbind_d68ev3c_c2_elabs_1LSYI5W.sdf']

$$$$
P138781
     RDKit          3D

 24 25  0  0  0  0  0  0  0  0999 V2000
  -11.6111   -0.7183    8.2232 C   0  0  0  0  0  0  0  0  0  0  0  0
  -11.3889   -1.6133    7.0145 C   0  0  0  0  0  0  0  0  0  0  0  0
  -10.0730   -1.4235    6.4253 N   0  0  0  0  0  0  0  0  0  0  0  0
   -8.9151   -2.0540    6.9817 C   0  0  0  0  0  0  0  0  0  0  0  0
   -7.8321   -2.0400    5.9091 C   0  0  0  0  0  0  0  0  0  0  0  0
   -6.9956   -0.8112    5.7856 N   0  0  0  0  0  0  0  0  0  0  0  0
   -5.8358   -0.5513    4.9956 C   0  0  0  0  0  0  0  0  0  0  0  0
   -5.2920   -1.2235    4.1628 O   0  0  0  0  0  0  0  0  0  0  0  0
   -5.1603    0.7281    5.3588 C   0  0  0  0  0  0  0  0  0  0  0  0
   -4.8937    1.6794    4.3565 C   0  0  0  0  0  0  0  0  0  0  0  0
   -5.2344    1.4329    3.0546 O   0  0  0  0  0  0  0  0  0  0  0  0
   -4.3261    2.9119    4.6752 C   0  0  0  0  0  0  0  0  0  0  0  0
   -4.0057    3.2017    5.9965 C   0  0  0  0  0  0  0  0  0  0  0  0
   -4.2186    2.2471    6.9897 C   0  0  0  0  0  0  0  0  0  0  0  0
   -4.7691    0.9859    6.6844 C   0  0  0  0  0  0  0  0  0  0  0  0
   -4.8629   -0.0563    7.7698 C   0  0  0  0  0  0  0  0  0  0  0  0
   -4.0043    0.2199    8.7955 F   0  0  0  0  0  0  0  0  0  0  0  0
   -4.5304   -1.3110    7.3640 F   0  0  0  0  0  0  0  0  0  0  0  0
   -6.0915   -0.1346    8.3468 F   0  0  0  0  0  0  0  0  0  0  0  0
   -8.3440   -0.2549    5.0163 C   0  0  0  0  0  0  0  0  0  0  0  0
   -8.2308    1.3120    5.1452 C   0  0  0  0  0  0  0  0  0  0  0  0
   -8.3465   -0.5376    3.4772 C   0  0  0  0  0  0  0  0  0  0  0  0
   -9.8490   -0.4259    5.5170 C   0  0  0  0  0  0  0  0  0  0  0  0
  -10.7786    0.2398    5.0595 O   0  0  0  0  0  0  0  0  0  0  0  0
  1  2  1  0
  2  3  1  0
  3  4  1  0
  4  5  1  0
  5  6  1  0
  6  7  1  0
  7  8  2  0
  7  9  1  0
  9 10  2  0
 10 11  1  0
 10 12  1  0
 12 13  2  0
 13 14  1  0
 14 15  2  0
 15 16  1  0
 16 17  1  0
 16 18  1  0
 16 19  1  0
  6 20  1  0
 20 21  1  0
 20 22  1  0
 20 23  1  0
 23 24  2  0
 23  3  1  0
 15  9  1  0
M  END
>  <ref_mols>  (1932) 
7gpj-a

>  <gnina_score>  (1932) 
5.009

>  <smina_score_min>  (1932) 
-4.793

>  <ref_pdb>  (1932) 
7gpj-a

>  <inspiration_score>  (1932) 
None

>  <inchikey>  (1932) 
SUNMEHDNBDREOM-UHFFFAOYSA-N

>  <tags>  (1932) 
BulkDock Fragalysis export,openbind_d68ev3c_c2_elabs_scored,openbind_d68ev3c_c2_elabs_scored_4.5plus,openbind_d68ev3c_c2_elabs,openbind_d68ev3c_c2_elabs_scored_5plus,syndirella_product,openbind_d68ev3c_c2_elabs_scored_top80percent,syndirella_placed

>  <smiles>  (1932) 
CCN1CCN(C(=O)c2c(O)cccc2C(F)(F)F)C(C)(C)C1=O

>  <subsites>  (1932) 
None

>  <rmsd(smina/fragmenstein)>  (1932) 
0.412

>  <alias>  (1932) 
None

>  <energy_score>  (1932) 
-10.935816

>  <HIPPO Pose ID>  (1932) 
138781

>  <distance_score>  (1932) 
1.699152

>  <HIPPO Compound ID>  (1932) 
162764

>  <gnina_score_min>  (1932) 
5.052

>  <name>  (1932) 
P138781

>  <exports>  (1932) 
['/opt/xchem-fragalysis-2/maxwin/BulkDock/OUTPUTS/openbind_d68ev3c_c2_elabs_1LOTQJ3.sdf', '/opt/xchem-fragalysis-2/maxwin/BulkDock/OUTPUTS/openbind_d68ev3c_c2_elabs_1LSYI5W.sdf']

$$$$
P138785
     RDKit          3D

 24 25  0  0  0  0  0  0  0  0999 V2000
  -10.0848    2.1046    5.4152 C   0  0  0  0  0  0  0  0  0  0  0  0
  -10.0354    0.5735    5.4201 C   0  0  0  0  0  0  0  0  0  0  0  0
  -10.7471    0.0354    4.1765 C   0  0  0  0  0  0  0  0  0  0  0  0
   -8.5578    0.1057    5.4985 C   0  0  0  0  0  0  0  0  0  0  0  0
   -8.3510   -1.4108    5.8353 C   0  0  2  0  0  0  0  0  0  0  0  0
   -8.8935   -1.5993    7.2915 C   0  0  0  0  0  0  0  0  0  0  0  0
   -9.1822   -0.7078    8.0795 O   0  0  0  0  0  0  0  0  0  0  0  0
   -9.0405   -2.9183    7.6179 N   0  0  0  0  0  0  0  0  0  0  0  0
   -8.1100   -3.8148    7.0177 C   0  0  0  0  0  0  0  0  0  0  0  0
   -7.4779   -3.2302    5.7517 C   0  0  0  0  0  0  0  0  0  0  0  0
   -6.8063   -1.8640    5.7540 N   0  0  0  0  0  0  0  0  0  0  0  0
   -6.0789   -1.1282    4.6631 C   0  0  0  0  0  0  0  0  0  0  0  0
   -5.9280   -1.4031    3.5284 O   0  0  0  0  0  0  0  0  0  0  0  0
   -5.4911    0.1928    5.0829 C   0  0  0  0  0  0  0  0  0  0  0  0
   -5.5371    1.2210    4.1093 C   0  0  0  0  0  0  0  0  0  0  0  0
   -5.9678    1.0241    2.8191 O   0  0  0  0  0  0  0  0  0  0  0  0
   -5.1570    2.5255    4.3996 C   0  0  0  0  0  0  0  0  0  0  0  0
   -4.6971    2.8366    5.6682 C   0  0  0  0  0  0  0  0  0  0  0  0
   -4.5873    1.8314    6.6265 C   0  0  0  0  0  0  0  0  0  0  0  0
   -4.9466    0.4898    6.3465 C   0  0  0  0  0  0  0  0  0  0  0  0
   -4.6532   -0.5336    7.4123 C   0  0  0  0  0  0  0  0  0  0  0  0
   -3.6758   -0.0938    8.2671 F   0  0  0  0  0  0  0  0  0  0  0  0
   -5.7150   -0.8259    8.2031 F   0  0  0  0  0  0  0  0  0  0  0  0
   -4.1712   -1.7095    6.9263 F   0  0  0  0  0  0  0  0  0  0  0  0
  1  2  1  0
  2  3  1  0
  2  4  1  0
  5  4  1  1
  5  6  1  0
  6  7  2  0
  6  8  1  0
  8  9  1  0
  9 10  1  0
 10 11  1  0
 11 12  1  0
 12 13  2  0
 12 14  1  0
 14 15  2  0
 15 16  1  0
 15 17  1  0
 17 18  2  0
 18 19  1  0
 19 20  2  0
 20 21  1  0
 21 22  1  0
 21 23  1  0
 21 24  1  0
 11  5  1  0
 20 14  1  0
M  END
>  <ref_mols>  (1933) 
7gpj-a

>  <gnina_score>  (1933) 
5.021

>  <smina_score_min>  (1933) 
-5.145

>  <ref_pdb>  (1933) 
7gpj-a

>  <inspiration_score>  (1933) 
None

>  <inchikey>  (1933) 
VRSRQVKGLCLIBN-LLVKDONJSA-N

>  <tags>  (1933) 
BulkDock Fragalysis export,openbind_d68ev3c_c2_elabs_scored,openbind_d68ev3c_c2_elabs_scored_4.5plus,openbind_d68ev3c_c2_elabs,openbind_d68ev3c_c2_elabs_scored_5plus,syndirella_product,openbind_d68ev3c_c2_elabs_scored_top80percent,syndirella_placed

>  <smiles>  (1933) 
CC(C)C[C@@H]1C(=O)NCCN1C(=O)c1c(O)cccc1C(F)(F)F

>  <subsites>  (1933) 
None

>  <rmsd(smina/fragmenstein)>  (1933) 
0.747

>  <alias>  (1933) 
None

>  <energy_score>  (1933) 
-26.060404

>  <HIPPO Pose ID>  (1933) 
138785

>  <distance_score>  (1933) 
0.699564

>  <HIPPO Compound ID>  (1933) 
162772

>  <gnina_score_min>  (1933) 
5.04

>  <name>  (1933) 
P138785

>  <exports>  (1933) 
['/opt/xchem-fragalysis-2/maxwin/BulkDock/OUTPUTS/openbind_d68ev3c_c2_elabs_1LOTQJ3.sdf', '/opt/xchem-fragalysis-2/maxwin/BulkDock/OUTPUTS/openbind_d68ev3c_c2_elabs_1LSYI5W.sdf']

$$$$
P138787
     RDKit          3D

 24 25  0  0  0  0  0  0  0  0999 V2000
  -12.0968    0.6381    8.8791 C   0  0  0  0  0  0  0  0  0  0  0  0
  -11.4934   -0.5513    8.7508 C   0  0  0  0  0  0  0  0  0  0  0  0
  -10.0554   -0.8248    9.0968 C   0  0  0  0  0  0  0  0  0  0  0  0
   -9.3527   -1.1870    7.8805 N   0  0  0  0  0  0  0  0  0  0  0  0
   -8.8953   -2.5285    7.5825 C   0  0  0  0  0  0  0  0  0  0  0  0
   -7.9653   -2.5801    6.3361 C   0  0  0  0  0  0  0  0  0  0  0  0
   -7.0236   -1.4186    6.0400 N   0  0  0  0  0  0  0  0  0  0  0  0
   -6.0457   -1.2148    4.9241 C   0  0  0  0  0  0  0  0  0  0  0  0
   -5.8328   -1.8672    3.9717 O   0  0  0  0  0  0  0  0  0  0  0  0
   -5.2872    0.0653    5.0845 C   0  0  0  0  0  0  0  0  0  0  0  0
   -5.1421    0.8591    3.9310 C   0  0  0  0  0  0  0  0  0  0  0  0
   -5.4327    0.4067    2.6691 O   0  0  0  0  0  0  0  0  0  0  0  0
   -4.7122    2.1776    4.0223 C   0  0  0  0  0  0  0  0  0  0  0  0
   -4.3904    2.7123    5.2643 C   0  0  0  0  0  0  0  0  0  0  0  0
   -4.4379    1.9072    6.4026 C   0  0  0  0  0  0  0  0  0  0  0  0
   -4.8407    0.5578    6.3243 C   0  0  0  0  0  0  0  0  0  0  0  0
   -4.6743   -0.3148    7.5429 C   0  0  0  0  0  0  0  0  0  0  0  0
   -5.7770   -0.4214    8.3245 F   0  0  0  0  0  0  0  0  0  0  0  0
   -4.2672   -1.5806    7.2454 F   0  0  0  0  0  0  0  0  0  0  0  0
   -3.6944    0.1718    8.3673 F   0  0  0  0  0  0  0  0  0  0  0  0
   -8.4040   -0.7329    5.7213 C   0  0  2  0  0  0  0  0  0  0  0  0
   -8.3221    0.4881    4.7756 C   0  0  0  0  0  0  0  0  0  0  0  0
   -8.9231   -0.1845    7.0564 C   0  0  0  0  0  0  0  0  0  0  0  0
   -8.9450    0.9978    7.3718 O   0  0  0  0  0  0  0  0  0  0  0  0
  1  2  2  0
  2  3  1  0
  3  4  1  0
  4  5  1  0
  5  6  1  0
  6  7  1  0
  7  8  1  0
  8  9  2  0
  8 10  1  0
 10 11  2  0
 11 12  1  0
 11 13  1  0
 13 14  2  0
 14 15  1  0
 15 16  2  0
 16 17  1  0
 17 18  1  0
 17 19  1  0
 17 20  1  0
  7 21  1  0
 21 22  1  6
 21 23  1  0
 23 24  2  0
 23  4  1  0
 16 10  1  0
M  END
>  <ref_mols>  (1934) 
7gpj-a

>  <gnina_score>  (1934) 
5.033

>  <smina_score_min>  (1934) 
-4.508

>  <ref_pdb>  (1934) 
7gpj-a

>  <inspiration_score>  (1934) 
None

>  <inchikey>  (1934) 
IOMFLSQSQWOAMN-SNVBAGLBSA-N

>  <tags>  (1934) 
BulkDock Fragalysis export,openbind_d68ev3c_c2_elabs_scored,openbind_d68ev3c_c2_elabs_scored_4.5plus,openbind_d68ev3c_c2_elabs,openbind_d68ev3c_c2_elabs_scored_5plus,syndirella_product,openbind_d68ev3c_c2_elabs_scored_top80percent,syndirella_placed

>  <smiles>  (1934) 
C=CCN1CCN(C(=O)c2c(O)cccc2C(F)(F)F)[C@H](C)C1=O

>  <subsites>  (1934) 
None

>  <rmsd(smina/fragmenstein)>  (1934) 
0.692

>  <alias>  (1934) 
None

>  <energy_score>  (1934) 
-5.56504

>  <HIPPO Pose ID>  (1934) 
138787

>  <distance_score>  (1934) 
1.078265

>  <HIPPO Compound ID>  (1934) 
162775

>  <gnina_score_min>  (1934) 
5.063

>  <name>  (1934) 
P138787

>  <exports>  (1934) 
['/opt/xchem-fragalysis-2/maxwin/BulkDock/OUTPUTS/openbind_d68ev3c_c2_elabs_1LOTQJ3.sdf', '/opt/xchem-fragalysis-2/maxwin/BulkDock/OUTPUTS/openbind_d68ev3c_c2_elabs_1LSYI5W.sdf']

$$$$
P138788
     RDKit          3D

 24 25  0  0  0  0  0  0  0  0999 V2000
   -9.7028   -0.0906    7.9944 O   0  0  0  0  0  0  0  0  0  0  0  0
   -9.1564   -1.0010    7.3885 C   0  0  0  0  0  0  0  0  0  0  0  0
   -8.4133   -0.8361    6.0410 C   0  0  0  0  0  0  0  0  0  0  0  0
   -6.9935   -1.3927    5.8660 N   0  0  0  0  0  0  0  0  0  0  0  0
   -6.2732   -0.6988    4.7555 C   0  0  0  0  0  0  0  0  0  0  0  0
   -6.2138   -0.9549    3.6109 O   0  0  0  0  0  0  0  0  0  0  0  0
   -5.6138    0.5720    5.1820 C   0  0  0  0  0  0  0  0  0  0  0  0
   -5.7051    1.6372    4.2578 C   0  0  0  0  0  0  0  0  0  0  0  0
   -6.2757    1.5190    3.0142 O   0  0  0  0  0  0  0  0  0  0  0  0
   -5.2163    2.9008    4.5577 C   0  0  0  0  0  0  0  0  0  0  0  0
   -4.6112    3.1258    5.7841 C   0  0  0  0  0  0  0  0  0  0  0  0
   -4.4787    2.0795    6.6960 C   0  0  0  0  0  0  0  0  0  0  0  0
   -4.9501    0.7781    6.4070 C   0  0  0  0  0  0  0  0  0  0  0  0
   -4.6538   -0.3069    7.4128 C   0  0  0  0  0  0  0  0  0  0  0  0
   -4.1907   -1.4560    6.8540 F   0  0  0  0  0  0  0  0  0  0  0  0
   -5.7150   -0.6366    8.1933 F   0  0  0  0  0  0  0  0  0  0  0  0
   -3.6687    0.0703    8.2857 F   0  0  0  0  0  0  0  0  0  0  0  0
   -7.8058   -2.7334    5.8763 C   0  0  1  0  0  0  0  0  0  0  0  0
   -6.7896   -3.8260    5.4379 C   0  0  0  0  0  0  0  0  0  0  0  0
   -5.5186   -3.4740    5.7472 F   0  0  0  0  0  0  0  0  0  0  0  0
   -6.8424   -4.0239    4.0997 F   0  0  0  0  0  0  0  0  0  0  0  0
   -7.0251   -5.0009    6.0506 F   0  0  0  0  0  0  0  0  0  0  0  0
   -8.3212   -3.2125    7.2346 C   0  0  0  0  0  0  0  0  0  0  0  0
   -9.2604   -2.2989    7.7811 N   0  0  0  0  0  0  0  0  0  0  0  0
  1  2  2  0
  2  3  1  0
  3  4  1  0
  4  5  1  0
  5  6  2  0
  5  7  1  0
  7  8  2  0
  8  9  1  0
  8 10  1  0
 10 11  2  0
 11 12  1  0
 12 13  2  0
 13 14  1  0
 14 15  1  0
 14 16  1  0
 14 17  1  0
  4 18  1  0
 18 19  1  1
 19 20  1  0
 19 21  1  0
 19 22  1  0
 18 23  1  0
 23 24  1  0
 24  2  1  0
 13  7  1  0
M  END
>  <ref_mols>  (1935) 
7gpj-a

>  <gnina_score>  (1935) 
5.087

>  <smina_score_min>  (1935) 
-5.753

>  <ref_pdb>  (1935) 
7gpj-a

>  <inspiration_score>  (1935) 
None

>  <inchikey>  (1935) 
YZJHRARLCOXWGE-MRVPVSSYSA-N

>  <tags>  (1935) 
BulkDock Fragalysis export,openbind_d68ev3c_c2_elabs_scored,openbind_d68ev3c_c2_elabs_scored_4.5plus,openbind_d68ev3c_c2_elabs,openbind_d68ev3c_c2_elabs_scored_5plus,syndirella_product,openbind_d68ev3c_c2_elabs_scored_top80percent,syndirella_placed

>  <smiles>  (1935) 
O=C1CN(C(=O)c2c(O)cccc2C(F)(F)F)[C@@H](C(F)(F)F)CN1

>  <subsites>  (1935) 
None

>  <rmsd(smina/fragmenstein)>  (1935) 
0.79

>  <alias>  (1935) 
None

>  <energy_score>  (1935) 
-6.042624

>  <HIPPO Pose ID>  (1935) 
138788

>  <distance_score>  (1935) 
0.960703

>  <HIPPO Compound ID>  (1935) 
162776

>  <gnina_score_min>  (1935) 
5.072

>  <name>  (1935) 
P138788

>  <exports>  (1935) 
['/opt/xchem-fragalysis-2/maxwin/BulkDock/OUTPUTS/openbind_d68ev3c_c2_elabs_1LOTQJ3.sdf', '/opt/xchem-fragalysis-2/maxwin/BulkDock/OUTPUTS/openbind_d68ev3c_c2_elabs_1LSYI5W.sdf']

$$$$
P138789
     RDKit          3D

 24 25  0  0  0  0  0  0  0  0999 V2000
  -11.6089    2.4006    4.7914 C   0  0  0  0  0  0  0  0  0  0  0  0
  -10.1519    1.9886    4.9282 C   0  0  0  0  0  0  0  0  0  0  0  0
  -10.0203    0.5165    5.3244 C   0  0  0  0  0  0  0  0  0  0  0  0
   -8.5401    0.1124    5.4552 C   0  0  0  0  0  0  0  0  0  0  0  0
   -8.3362   -1.3958    5.8180 C   0  0  2  0  0  0  0  0  0  0  0  0
   -8.8853   -1.5738    7.2733 C   0  0  0  0  0  0  0  0  0  0  0  0
   -9.1922   -0.6766    8.0477 O   0  0  0  0  0  0  0  0  0  0  0  0
   -9.0220   -2.8905    7.6136 N   0  0  0  0  0  0  0  0  0  0  0  0
   -8.0992   -3.7937    7.0111 C   0  0  0  0  0  0  0  0  0  0  0  0
   -7.4681   -3.2163    5.7419 C   0  0  0  0  0  0  0  0  0  0  0  0
   -6.7937   -1.8518    5.7432 N   0  0  0  0  0  0  0  0  0  0  0  0
   -6.0609   -1.1204    4.6529 C   0  0  0  0  0  0  0  0  0  0  0  0
   -5.9067   -1.3984    3.5195 O   0  0  0  0  0  0  0  0  0  0  0  0
   -5.4696    0.1988    5.0750 C   0  0  0  0  0  0  0  0  0  0  0  0
   -5.5010    1.2257    4.0991 C   0  0  0  0  0  0  0  0  0  0  0  0
   -5.9224    1.0303    2.8055 O   0  0  0  0  0  0  0  0  0  0  0  0
   -5.1123    2.5279    4.3904 C   0  0  0  0  0  0  0  0  0  0  0  0
   -4.6594    2.8370    5.6620 C   0  0  0  0  0  0  0  0  0  0  0  0
   -4.5647    1.8321    6.6226 C   0  0  0  0  0  0  0  0  0  0  0  0
   -4.9316    0.4933    6.3411 C   0  0  0  0  0  0  0  0  0  0  0  0
   -4.6495   -0.5323    7.4073 C   0  0  0  0  0  0  0  0  0  0  0  0
   -3.6746   -0.0986    8.2677 F   0  0  0  0  0  0  0  0  0  0  0  0
   -5.7166   -0.8205    8.1922 F   0  0  0  0  0  0  0  0  0  0  0  0
   -4.1697   -1.7097    6.9224 F   0  0  0  0  0  0  0  0  0  0  0  0
  1  2  1  0
  2  3  1  0
  3  4  1  0
  5  4  1  1
  5  6  1  0
  6  7  2  0
  6  8  1  0
  8  9  1  0
  9 10  1  0
 10 11  1  0
 11 12  1  0
 12 13  2  0
 12 14  1  0
 14 15  2  0
 15 16  1  0
 15 17  1  0
 17 18  2  0
 18 19  1  0
 19 20  2  0
 20 21  1  0
 21 22  1  0
 21 23  1  0
 21 24  1  0
 11  5  1  0
 20 14  1  0
M  END
>  <ref_mols>  (1936) 
7gpj-a

>  <gnina_score>  (1936) 
5.016

>  <smina_score_min>  (1936) 
-4.859

>  <ref_pdb>  (1936) 
7gpj-a

>  <inspiration_score>  (1936) 
None

>  <inchikey>  (1936) 
BGQIEXYNSFPNAZ-LLVKDONJSA-N

>  <tags>  (1936) 
BulkDock Fragalysis export,openbind_d68ev3c_c2_elabs_scored,openbind_d68ev3c_c2_elabs_scored_4.5plus,openbind_d68ev3c_c2_elabs,openbind_d68ev3c_c2_elabs_scored_5plus,syndirella_product,openbind_d68ev3c_c2_elabs_scored_top80percent,syndirella_placed

>  <smiles>  (1936) 
CCCC[C@@H]1C(=O)NCCN1C(=O)c1c(O)cccc1C(F)(F)F

>  <subsites>  (1936) 
None

>  <rmsd(smina/fragmenstein)>  (1936) 
0.862

>  <alias>  (1936) 
None

>  <energy_score>  (1936) 
-1.378397

>  <HIPPO Pose ID>  (1936) 
138789

>  <distance_score>  (1936) 
0.705667

>  <HIPPO Compound ID>  (1936) 
162777

>  <gnina_score_min>  (1936) 
5.048

>  <name>  (1936) 
P138789

>  <exports>  (1936) 
['/opt/xchem-fragalysis-2/maxwin/BulkDock/OUTPUTS/openbind_d68ev3c_c2_elabs_1LOTQJ3.sdf', '/opt/xchem-fragalysis-2/maxwin/BulkDock/OUTPUTS/openbind_d68ev3c_c2_elabs_1LSYI5W.sdf']

$$$$
P138790
     RDKit          3D

 24 26  0  0  0  0  0  0  0  0999 V2000
   -8.3544   -3.5782    7.1090 C   0  0  0  0  0  0  0  0  0  0  0  0
   -8.9964   -2.2907    6.5776 C   0  0  2  0  0  0  0  0  0  0  0  0
  -10.4192   -2.5667    6.0894 C   0  0  0  0  0  0  0  0  0  0  0  0
  -11.6793   -2.1736    6.8383 C   0  0  0  0  0  0  0  0  0  0  0  0
  -11.3267   -1.4597    5.5719 C   0  0  0  0  0  0  0  0  0  0  0  0
   -8.1595   -1.7391    5.3645 C   0  0  0  0  0  0  0  0  0  0  0  0
   -7.0697   -0.7039    5.5870 N   0  0  0  0  0  0  0  0  0  0  0  0
   -6.2139   -0.0556    4.6715 C   0  0  0  0  0  0  0  0  0  0  0  0
   -6.1852   -0.0873    3.4697 O   0  0  0  0  0  0  0  0  0  0  0  0
   -5.2663    0.8916    5.3352 C   0  0  0  0  0  0  0  0  0  0  0  0
   -5.0578    2.1260    4.6855 C   0  0  0  0  0  0  0  0  0  0  0  0
   -5.5016    2.3923    3.4152 O   0  0  0  0  0  0  0  0  0  0  0  0
   -4.4034    3.1730    5.3238 C   0  0  0  0  0  0  0  0  0  0  0  0
   -3.9509    3.0074    6.6258 C   0  0  0  0  0  0  0  0  0  0  0  0
   -4.1044    1.7742    7.2592 C   0  0  0  0  0  0  0  0  0  0  0  0
   -4.7233    0.6848    6.6135 C   0  0  0  0  0  0  0  0  0  0  0  0
   -4.7266   -0.6493    7.3106 C   0  0  0  0  0  0  0  0  0  0  0  0
   -3.6416   -0.7794    8.1350 F   0  0  0  0  0  0  0  0  0  0  0  0
   -4.6338   -1.7168    6.4698 F   0  0  0  0  0  0  0  0  0  0  0  0
   -5.8068   -0.8530    8.1060 F   0  0  0  0  0  0  0  0  0  0  0  0
   -8.2814    0.1835    5.8959 C   0  0  0  0  0  0  0  0  0  0  0  0
   -8.9022   -0.0117    7.2921 C   0  0  0  0  0  0  0  0  0  0  0  0
   -9.3397    0.8961    7.9868 O   0  0  0  0  0  0  0  0  0  0  0  0
   -9.0176   -1.3239    7.6465 N   0  0  0  0  0  0  0  0  0  0  0  0
  2  1  1  1
  2  3  1  0
  3  4  1  0
  4  5  1  0
  2  6  1  0
  6  7  1  0
  7  8  1  0
  8  9  2  0
  8 10  1  0
 10 11  2  0
 11 12  1  0
 11 13  1  0
 13 14  2  0
 14 15  1  0
 15 16  2  0
 16 17  1  0
 17 18  1  0
 17 19  1  0
 17 20  1  0
  7 21  1  0
 21 22  1  0
 22 23  2  0
 22 24  1  0
 24  2  1  0
  5  3  1  0
 16 10  1  0
M  END
>  <ref_mols>  (1937) 
7gpj-a

>  <gnina_score>  (1937) 
5.018

>  <smina_score_min>  (1937) 
-5.099

>  <ref_pdb>  (1937) 
7gpj-a

>  <inspiration_score>  (1937) 
None

>  <inchikey>  (1937) 
ORPDZZNEFIYEDY-OAHLLOKOSA-N

>  <tags>  (1937) 
BulkDock Fragalysis export,openbind_d68ev3c_c2_elabs_scored,openbind_d68ev3c_c2_elabs_scored_4.5plus,openbind_d68ev3c_c2_elabs,openbind_d68ev3c_c2_elabs_scored_5plus,syndirella_product,openbind_d68ev3c_c2_elabs_scored_top80percent,syndirella_placed

>  <smiles>  (1937) 
C[C@]1(C2CC2)CN(C(=O)c2c(O)cccc2C(F)(F)F)CC(=O)N1

>  <subsites>  (1937) 
None

>  <rmsd(smina/fragmenstein)>  (1937) 
0.635

>  <alias>  (1937) 
None

>  <energy_score>  (1937) 
-27.33791

>  <HIPPO Pose ID>  (1937) 
138790

>  <distance_score>  (1937) 
1.611614

>  <HIPPO Compound ID>  (1937) 
162779

>  <gnina_score_min>  (1937) 
5.188

>  <name>  (1937) 
P138790

>  <exports>  (1937) 
['/opt/xchem-fragalysis-2/maxwin/BulkDock/OUTPUTS/openbind_d68ev3c_c2_elabs_1LOTQJ3.sdf', '/opt/xchem-fragalysis-2/maxwin/BulkDock/OUTPUTS/openbind_d68ev3c_c2_elabs_1LSYI5W.sdf']

$$$$
P138794
     RDKit          3D

 24 26  0  0  0  0  0  0  0  0999 V2000
  -13.0279   -1.7011    7.3311 O   0  0  0  0  0  0  0  0  0  0  0  0
  -11.8120   -1.4952    7.3478 C   0  0  0  0  0  0  0  0  0  0  0  0
  -10.8273   -2.2310    6.4291 C   0  0  0  0  0  0  0  0  0  0  0  0
   -9.4696   -2.3931    7.0050 N   0  0  0  0  0  0  0  0  0  0  0  0
   -8.6213   -3.0964    6.0123 C   0  0  0  0  0  0  0  0  0  0  0  0
   -7.2674   -3.4719    6.5416 C   0  0  0  0  0  0  0  0  0  0  0  0
   -6.7015   -2.1047    6.1926 N   0  0  0  0  0  0  0  0  0  0  0  0
   -5.3827   -1.7157    5.6076 C   0  0  0  0  0  0  0  0  0  0  0  0
   -4.5037   -2.3813    5.2074 O   0  0  0  0  0  0  0  0  0  0  0  0
   -5.2473   -0.2522    5.5068 C   0  0  0  0  0  0  0  0  0  0  0  0
   -5.4834    0.3761    4.2789 C   0  0  0  0  0  0  0  0  0  0  0  0
   -5.7732   -0.3162    3.1358 O   0  0  0  0  0  0  0  0  0  0  0  0
   -5.3965    1.7597    4.1712 C   0  0  0  0  0  0  0  0  0  0  0  0
   -5.0259    2.5168    5.2812 C   0  0  0  0  0  0  0  0  0  0  0  0
   -4.7330    1.8869    6.4933 C   0  0  0  0  0  0  0  0  0  0  0  0
   -4.8235    0.4885    6.6164 C   0  0  0  0  0  0  0  0  0  0  0  0
   -4.4501   -0.1935    7.9021 C   0  0  0  0  0  0  0  0  0  0  0  0
   -3.7157   -1.3238    7.7339 F   0  0  0  0  0  0  0  0  0  0  0  0
   -5.5339   -0.5343    8.6465 F   0  0  0  0  0  0  0  0  0  0  0  0
   -3.6918    0.6069    8.7009 F   0  0  0  0  0  0  0  0  0  0  0  0
   -7.8061   -2.2380    5.0838 C   0  0  0  0  0  0  0  0  0  0  0  0
   -8.9722   -1.1287    7.5587 C   0  0  0  0  0  0  0  0  0  0  0  0
   -9.9412   -0.5683    8.6041 C   0  0  0  0  0  0  0  0  0  0  0  0
  -11.3045   -0.4791    8.1257 N   0  0  0  0  0  0  0  0  0  0  0  0
  1  2  2  0
  2  3  1  0
  3  4  1  0
  4  5  1  0
  5  6  1  0
  6  7  1  0
  7  8  1  0
  8  9  2  0
  8 10  1  0
 10 11  2  0
 11 12  1  0
 11 13  1  0
 13 14  2  0
 14 15  1  0
 15 16  2  0
 16 17  1  0
 17 18  1  0
 17 19  1  0
 17 20  1  0
  7 21  1  0
  4 22  1  0
 22 23  1  0
 23 24  1  0
 24  2  1  0
 21  5  1  0
 16 10  1  0
M  END
>  <ref_mols>  (1938) 
7gpj-a

>  <gnina_score>  (1938) 
5.06

>  <smina_score_min>  (1938) 
-5.783

>  <ref_pdb>  (1938) 
7gpj-a

>  <inspiration_score>  (1938) 
None

>  <inchikey>  (1938) 
OTWVDOQHKRGYAG-UHFFFAOYSA-N

>  <tags>  (1938) 
BulkDock Fragalysis export,openbind_d68ev3c_c2_elabs_scored,openbind_d68ev3c_c2_elabs_scored_4.5plus,openbind_d68ev3c_c2_elabs,openbind_d68ev3c_c2_elabs_scored_5plus,syndirella_product,openbind_d68ev3c_c2_elabs_scored_top80percent,syndirella_placed

>  <smiles>  (1938) 
O=C1CN(C2CN(C(=O)c3c(O)cccc3C(F)(F)F)C2)CCN1

>  <subsites>  (1938) 
None

>  <rmsd(smina/fragmenstein)>  (1938) 
0.553

>  <alias>  (1938) 
None

>  <energy_score>  (1938) 
-72.380762

>  <HIPPO Pose ID>  (1938) 
138794

>  <distance_score>  (1938) 
0.697286

>  <HIPPO Compound ID>  (1938) 
162792

>  <gnina_score_min>  (1938) 
5.199

>  <name>  (1938) 
P138794

>  <exports>  (1938) 
['/opt/xchem-fragalysis-2/maxwin/BulkDock/OUTPUTS/openbind_d68ev3c_c2_elabs_1LOTQJ3.sdf', '/opt/xchem-fragalysis-2/maxwin/BulkDock/OUTPUTS/openbind_d68ev3c_c2_elabs_1LSYI5W.sdf']

$$$$
P138799
     RDKit          3D

 24 25  0  0  0  0  0  0  0  0999 V2000
   -8.1006   -2.8551    4.2427 C   0  0  0  0  0  0  0  0  0  0  0  0
   -7.9000   -2.4449    5.7404 C   0  0  0  0  0  0  0  0  0  0  0  0
   -6.6773   -3.3663    6.1353 C   0  0  0  0  0  0  0  0  0  0  0  0
   -9.0171   -3.0618    6.6442 C   0  0  0  0  0  0  0  0  0  0  0  0
   -9.1996   -2.3064    7.8191 N   0  0  0  0  0  0  0  0  0  0  0  0
   -9.3143   -0.9757    7.5775 C   0  0  0  0  0  0  0  0  0  0  0  0
   -9.9548   -0.2701    8.3515 O   0  0  0  0  0  0  0  0  0  0  0  0
   -8.7104   -0.5206    6.1832 C   0  0  0  0  0  0  0  0  0  0  0  0
   -9.7777   -0.5043    5.0519 C   0  0  0  0  0  0  0  0  0  0  0  0
   -8.5830    1.0329    6.4854 C   0  0  0  0  0  0  0  0  0  0  0  0
   -7.1717   -1.0344    5.8659 N   0  0  0  0  0  0  0  0  0  0  0  0
   -6.5747   -0.2021    4.8647 C   0  0  0  0  0  0  0  0  0  0  0  0
   -6.5541   -0.3123    3.6685 O   0  0  0  0  0  0  0  0  0  0  0  0
   -5.7586    0.9407    5.4256 C   0  0  0  0  0  0  0  0  0  0  0  0
   -5.8345    2.1926    4.7696 C   0  0  0  0  0  0  0  0  0  0  0  0
   -6.6485    2.3667    3.6807 O   0  0  0  0  0  0  0  0  0  0  0  0
   -5.1433    3.3098    5.2407 C   0  0  0  0  0  0  0  0  0  0  0  0
   -4.3752    3.2072    6.3900 C   0  0  0  0  0  0  0  0  0  0  0  0
   -4.2784    1.9836    7.0456 C   0  0  0  0  0  0  0  0  0  0  0  0
   -4.9316    0.8264    6.5617 C   0  0  0  0  0  0  0  0  0  0  0  0
   -4.6598   -0.4725    7.2730 C   0  0  0  0  0  0  0  0  0  0  0  0
   -4.3828   -1.5076    6.4356 F   0  0  0  0  0  0  0  0  0  0  0  0
   -5.6518   -0.8679    8.1107 F   0  0  0  0  0  0  0  0  0  0  0  0
   -3.5448   -0.3874    8.0667 F   0  0  0  0  0  0  0  0  0  0  0  0
  1  2  1  0
  2  3  1  0
  2  4  1  0
  4  5  1  0
  5  6  1  0
  6  7  2  0
  6  8  1  0
  8  9  1  0
  8 10  1  0
  8 11  1  0
 11 12  1  0
 12 13  2  0
 12 14  1  0
 14 15  2  0
 15 16  1  0
 15 17  1  0
 17 18  2  0
 18 19  1  0
 19 20  2  0
 20 21  1  0
 21 22  1  0
 21 23  1  0
 21 24  1  0
 11  2  1  0
 20 14  1  0
M  END
>  <ref_mols>  (1939) 
7gpj-a

>  <gnina_score>  (1939) 
5.026

>  <smina_score_min>  (1939) 
-5.75

>  <ref_pdb>  (1939) 
7gpj-a

>  <inspiration_score>  (1939) 
None

>  <inchikey>  (1939) 
JWPYRVCCRHZBJD-UHFFFAOYSA-N

>  <tags>  (1939) 
BulkDock Fragalysis export,openbind_d68ev3c_c2_elabs_scored,openbind_d68ev3c_c2_elabs_scored_4.5plus,openbind_d68ev3c_c2_elabs,openbind_d68ev3c_c2_elabs_scored_5plus,syndirella_product,openbind_d68ev3c_c2_elabs_scored_top80percent,syndirella_placed

>  <smiles>  (1939) 
CC1(C)CNC(=O)C(C)(C)N1C(=O)c1c(O)cccc1C(F)(F)F

>  <subsites>  (1939) 
None

>  <rmsd(smina/fragmenstein)>  (1939) 
0.569

>  <alias>  (1939) 
None

>  <energy_score>  (1939) 
-27.7882

>  <HIPPO Pose ID>  (1939) 
138799

>  <distance_score>  (1939) 
1.30041

>  <HIPPO Compound ID>  (1939) 
162798

>  <gnina_score_min>  (1939) 
5.045

>  <name>  (1939) 
P138799

>  <exports>  (1939) 
['/opt/xchem-fragalysis-2/maxwin/BulkDock/OUTPUTS/openbind_d68ev3c_c2_elabs_1LOTQJ3.sdf', '/opt/xchem-fragalysis-2/maxwin/BulkDock/OUTPUTS/openbind_d68ev3c_c2_elabs_1LSYI5W.sdf']

$$$$
P138801
     RDKit          3D

 24 25  0  0  0  0  0  0  0  0999 V2000
  -10.4634   -2.1520    4.8727 C   0  0  0  0  0  0  0  0  0  0  0  0
   -9.3143   -1.1282    4.7378 C   0  0  0  0  0  0  0  0  0  0  0  0
   -8.7937   -1.1899    3.2928 C   0  0  0  0  0  0  0  0  0  0  0  0
   -9.9848    0.2718    4.8813 C   0  0  0  0  0  0  0  0  0  0  0  0
   -8.2072   -1.2701    5.8998 C   0  0  1  0  0  0  0  0  0  0  0  0
   -8.8447   -1.4827    7.3173 C   0  0  0  0  0  0  0  0  0  0  0  0
   -9.3258   -0.5871    8.0013 O   0  0  0  0  0  0  0  0  0  0  0  0
   -8.9242   -2.7952    7.6779 N   0  0  0  0  0  0  0  0  0  0  0  0
   -8.0647   -3.7126    7.0097 C   0  0  0  0  0  0  0  0  0  0  0  0
   -7.4737   -3.1132    5.7306 C   0  0  0  0  0  0  0  0  0  0  0  0
   -6.7259   -1.8038    5.7530 N   0  0  0  0  0  0  0  0  0  0  0  0
   -5.9911   -1.0775    4.6626 C   0  0  0  0  0  0  0  0  0  0  0  0
   -5.8949   -1.3218    3.5154 O   0  0  0  0  0  0  0  0  0  0  0  0
   -5.3684    0.2165    5.1052 C   0  0  0  0  0  0  0  0  0  0  0  0
   -5.4051    1.2636    4.1507 C   0  0  0  0  0  0  0  0  0  0  0  0
   -5.8120    1.0974    2.8487 O   0  0  0  0  0  0  0  0  0  0  0  0
   -5.0257    2.5624    4.4688 C   0  0  0  0  0  0  0  0  0  0  0  0
   -4.5865    2.8512    5.7492 C   0  0  0  0  0  0  0  0  0  0  0  0
   -4.4976    1.8298    6.6924 C   0  0  0  0  0  0  0  0  0  0  0  0
   -4.8539    0.4941    6.3834 C   0  0  0  0  0  0  0  0  0  0  0  0
   -4.5965   -0.5447    7.4415 C   0  0  0  0  0  0  0  0  0  0  0  0
   -4.1287   -1.7241    6.9515 F   0  0  0  0  0  0  0  0  0  0  0  0
   -5.6776   -0.8225    8.2117 F   0  0  0  0  0  0  0  0  0  0  0  0
   -3.6263   -0.1301    8.3150 F   0  0  0  0  0  0  0  0  0  0  0  0
  1  2  1  0
  2  3  1  0
  2  4  1  0
  5  2  1  6
  5  6  1  0
  6  7  2  0
  6  8  1  0
  8  9  1  0
  9 10  1  0
 10 11  1  0
 11 12  1  0
 12 13  2  0
 12 14  1  0
 14 15  2  0
 15 16  1  0
 15 17  1  0
 17 18  2  0
 18 19  1  0
 19 20  2  0
 20 21  1  0
 21 22  1  0
 21 23  1  0
 21 24  1  0
 11  5  1  0
 20 14  1  0
M  END
>  <ref_mols>  (1940) 
7gpj-a

>  <gnina_score>  (1940) 
5.13

>  <smina_score_min>  (1940) 
-5.529

>  <ref_pdb>  (1940) 
7gpj-a

>  <inspiration_score>  (1940) 
None

>  <inchikey>  (1940) 
AHPWHUKYEZRUGA-GFCCVEGCSA-N

>  <tags>  (1940) 
BulkDock Fragalysis export,openbind_d68ev3c_c2_elabs_scored,openbind_d68ev3c_c2_elabs_scored_4.5plus,openbind_d68ev3c_c2_elabs,openbind_d68ev3c_c2_elabs_scored_5plus,syndirella_product,openbind_d68ev3c_c2_elabs_scored_top80percent,syndirella_placed

>  <smiles>  (1940) 
CC(C)(C)[C@H]1C(=O)NCCN1C(=O)c1c(O)cccc1C(F)(F)F

>  <subsites>  (1940) 
None

>  <rmsd(smina/fragmenstein)>  (1940) 
0.73

>  <alias>  (1940) 
None

>  <energy_score>  (1940) 
-23.36402

>  <HIPPO Pose ID>  (1940) 
138801

>  <distance_score>  (1940) 
0.72655

>  <HIPPO Compound ID>  (1940) 
162799

>  <gnina_score_min>  (1940) 
5.19

>  <name>  (1940) 
P138801

>  <exports>  (1940) 
['/opt/xchem-fragalysis-2/maxwin/BulkDock/OUTPUTS/openbind_d68ev3c_c2_elabs_1LOTQJ3.sdf', '/opt/xchem-fragalysis-2/maxwin/BulkDock/OUTPUTS/openbind_d68ev3c_c2_elabs_1LSYI5W.sdf']

$$$$
P138802
     RDKit          3D

 24 25  0  0  0  0  0  0  0  0999 V2000
  -11.3611   -0.7280    3.2981 C   0  0  0  0  0  0  0  0  0  0  0  0
  -10.5099   -0.3884    4.5144 C   0  0  0  0  0  0  0  0  0  0  0  0
   -9.3173   -1.3517    4.6524 C   0  0  0  0  0  0  0  0  0  0  0  0
   -8.3763   -1.1488    5.9175 C   0  0  1  0  0  0  0  0  0  0  0  0
   -8.2349    0.4092    6.0971 C   0  0  0  0  0  0  0  0  0  0  0  0
   -9.1233   -1.5221    7.2673 C   0  0  0  0  0  0  0  0  0  0  0  0
   -9.6531   -0.7251    8.0355 O   0  0  0  0  0  0  0  0  0  0  0  0
   -9.2372   -2.8581    7.4913 N   0  0  0  0  0  0  0  0  0  0  0  0
   -8.1563   -3.6382    7.0173 C   0  0  0  0  0  0  0  0  0  0  0  0
   -7.5302   -3.0191    5.7787 C   0  0  0  0  0  0  0  0  0  0  0  0
   -6.7968   -1.7050    5.7692 N   0  0  0  0  0  0  0  0  0  0  0  0
   -6.0705   -0.9948    4.6564 C   0  0  0  0  0  0  0  0  0  0  0  0
   -5.9760   -1.2647    3.5142 O   0  0  0  0  0  0  0  0  0  0  0  0
   -5.3904    0.2831    5.0606 C   0  0  0  0  0  0  0  0  0  0  0  0
   -5.4043    1.3152    4.0900 C   0  0  0  0  0  0  0  0  0  0  0  0
   -5.8678    1.1480    2.8072 O   0  0  0  0  0  0  0  0  0  0  0  0
   -4.9644    2.6002    4.3824 C   0  0  0  0  0  0  0  0  0  0  0  0
   -4.4866    2.8874    5.6504 C   0  0  0  0  0  0  0  0  0  0  0  0
   -4.4154    1.8758    6.6064 C   0  0  0  0  0  0  0  0  0  0  0  0
   -4.8254    0.5509    6.3221 C   0  0  0  0  0  0  0  0  0  0  0  0
   -4.5902   -0.4869    7.3890 C   0  0  0  0  0  0  0  0  0  0  0  0
   -4.1551   -1.6820    6.9071 F   0  0  0  0  0  0  0  0  0  0  0  0
   -5.6733   -0.7320    8.1696 F   0  0  0  0  0  0  0  0  0  0  0  0
   -3.6063   -0.0909    8.2563 F   0  0  0  0  0  0  0  0  0  0  0  0
  1  2  1  0
  2  3  1  0
  4  3  1  0
  4  5  1  1
  4  6  1  0
  6  7  2  0
  6  8  1  0
  8  9  1  0
  9 10  1  0
 10 11  1  0
 11 12  1  0
 12 13  2  0
 12 14  1  0
 14 15  2  0
 15 16  1  0
 15 17  1  0
 17 18  2  0
 18 19  1  0
 19 20  2  0
 20 21  1  0
 21 22  1  0
 21 23  1  0
 21 24  1  0
 11  4  1  0
 20 14  1  0
M  END
>  <ref_mols>  (1941) 
7gpj-a

>  <gnina_score>  (1941) 
5.113

>  <smina_score_min>  (1941) 
-5.047

>  <ref_pdb>  (1941) 
7gpj-a

>  <inspiration_score>  (1941) 
None

>  <inchikey>  (1941) 
XOTUMADWDJJDIV-HNNXBMFYSA-N

>  <tags>  (1941) 
BulkDock Fragalysis export,openbind_d68ev3c_c2_elabs_scored,openbind_d68ev3c_c2_elabs_scored_4.5plus,openbind_d68ev3c_c2_elabs,openbind_d68ev3c_c2_elabs_scored_5plus,syndirella_product,openbind_d68ev3c_c2_elabs_scored_top80percent,syndirella_placed

>  <smiles>  (1941) 
CCC[C@@]1(C)C(=O)NCCN1C(=O)c1c(O)cccc1C(F)(F)F

>  <subsites>  (1941) 
None

>  <rmsd(smina/fragmenstein)>  (1941) 
0.61

>  <alias>  (1941) 
None

>  <energy_score>  (1941) 
-17.35734

>  <HIPPO Pose ID>  (1941) 
138802

>  <distance_score>  (1941) 
0.779711

>  <HIPPO Compound ID>  (1941) 
162800

>  <gnina_score_min>  (1941) 
5.257

>  <name>  (1941) 
P138802

>  <exports>  (1941) 
['/opt/xchem-fragalysis-2/maxwin/BulkDock/OUTPUTS/openbind_d68ev3c_c2_elabs_1LOTQJ3.sdf', '/opt/xchem-fragalysis-2/maxwin/BulkDock/OUTPUTS/openbind_d68ev3c_c2_elabs_1LSYI5W.sdf']

$$$$
P138807
     RDKit          3D

 24 26  0  0  0  0  0  0  0  0999 V2000
   -5.9176   -1.4009    3.5128 O   0  0  0  0  0  0  0  0  0  0  0  0
   -6.0663   -1.0985    4.6402 C   0  0  0  0  0  0  0  0  0  0  0  0
   -5.4341    0.2069    5.0480 C   0  0  0  0  0  0  0  0  0  0  0  0
   -5.4263    1.2194    4.0574 C   0  0  0  0  0  0  0  0  0  0  0  0
   -5.8348    1.0156    2.7613 O   0  0  0  0  0  0  0  0  0  0  0  0
   -5.0132    2.5166    4.3379 C   0  0  0  0  0  0  0  0  0  0  0  0
   -4.5770    2.8342    5.6136 C   0  0  0  0  0  0  0  0  0  0  0  0
   -4.5196    1.8413    6.5895 C   0  0  0  0  0  0  0  0  0  0  0  0
   -4.9068    0.5062    6.3185 C   0  0  0  0  0  0  0  0  0  0  0  0
   -4.6542   -0.5129    7.3994 C   0  0  0  0  0  0  0  0  0  0  0  0
   -3.6826   -0.0851    8.2665 F   0  0  0  0  0  0  0  0  0  0  0  0
   -5.7338   -0.7769    8.1759 F   0  0  0  0  0  0  0  0  0  0  0  0
   -4.1859   -1.7022    6.9321 F   0  0  0  0  0  0  0  0  0  0  0  0
   -6.7896   -1.8090    5.7512 N   0  0  0  0  0  0  0  0  0  0  0  0
   -7.4523   -3.1659    5.7838 C   0  0  0  0  0  0  0  0  0  0  0  0
   -8.1272   -3.7615    7.0204 C   0  0  0  0  0  0  0  0  0  0  0  0
   -9.1286   -2.9088    7.5566 N   0  0  0  0  0  0  0  0  0  0  0  0
   -8.9662   -1.5861    7.2676 C   0  0  0  0  0  0  0  0  0  0  0  0
   -9.2781   -0.7196    8.0753 O   0  0  0  0  0  0  0  0  0  0  0  0
   -8.3664   -1.3480    5.8262 C   0  0  0  0  0  0  0  0  0  0  0  0
   -9.3629   -1.7324    4.6750 C   0  0  0  0  0  0  0  0  0  0  0  0
  -10.4913   -0.6997    4.6954 C   0  0  0  0  0  0  0  0  0  0  0  0
   -9.9338    0.5331    5.3835 C   0  0  0  0  0  0  0  0  0  0  0  0
   -8.4629    0.2121    5.6335 C   0  0  0  0  0  0  0  0  0  0  0  0
  1  2  2  0
  2  3  1  0
  3  4  2  0
  4  5  1  0
  4  6  1  0
  6  7  2  0
  7  8  1  0
  8  9  2  0
  9 10  1  0
 10 11  1  0
 10 12  1  0
 10 13  1  0
  2 14  1  0
 14 15  1  0
 15 16  1  0
 16 17  1  0
 17 18  1  0
 18 19  2  0
 18 20  1  0
 20 21  1  0
 21 22  1  0
 22 23  1  0
 23 24  1  0
  9  3  1  0
 20 14  1  0
 24 20  1  0
M  END
>  <ref_mols>  (1942) 
7gpj-a

>  <gnina_score>  (1942) 
5.143

>  <smina_score_min>  (1942) 
-5.801

>  <ref_pdb>  (1942) 
7gpj-a

>  <inspiration_score>  (1942) 
None

>  <inchikey>  (1942) 
LEICAAZDUVSSMQ-UHFFFAOYSA-N

>  <tags>  (1942) 
BulkDock Fragalysis export,openbind_d68ev3c_c2_elabs_scored,openbind_d68ev3c_c2_elabs_scored_4.5plus,openbind_d68ev3c_c2_elabs,openbind_d68ev3c_c2_elabs_scored_5plus,syndirella_product,openbind_d68ev3c_c2_elabs_scored_top80percent,syndirella_placed

>  <smiles>  (1942) 
O=C(c1c(O)cccc1C(F)(F)F)N1CCNC(=O)C12CCCC2

>  <subsites>  (1942) 
None

>  <rmsd(smina/fragmenstein)>  (1942) 
0.676

>  <alias>  (1942) 
None

>  <energy_score>  (1942) 
-6.011884

>  <HIPPO Pose ID>  (1942) 
138807

>  <distance_score>  (1942) 
0.718505

>  <HIPPO Compound ID>  (1942) 
162808

>  <gnina_score_min>  (1942) 
5.265

>  <name>  (1942) 
P138807

>  <exports>  (1942) 
['/opt/xchem-fragalysis-2/maxwin/BulkDock/OUTPUTS/openbind_d68ev3c_c2_elabs_1LOTQJ3.sdf', '/opt/xchem-fragalysis-2/maxwin/BulkDock/OUTPUTS/openbind_d68ev3c_c2_elabs_1LSYI5W.sdf']

$$$$
P138810
     RDKit          3D

 24 26  0  0  0  0  0  0  0  0999 V2000
   -6.0207    0.0075    3.0513 C   0  0  0  0  0  0  0  0  0  0  0  0
   -5.5565    0.6548    4.3261 C   0  0  0  0  0  0  0  0  0  0  0  0
   -5.4274    2.0510    4.3495 C   0  0  0  0  0  0  0  0  0  0  0  0
   -4.9851    2.7061    5.4963 C   0  0  0  0  0  0  0  0  0  0  0  0
   -4.6679    1.9758    6.6395 C   0  0  0  0  0  0  0  0  0  0  0  0
   -4.7948    0.5765    6.6549 C   0  0  0  0  0  0  0  0  0  0  0  0
   -4.4186   -0.2037    7.8859 C   0  0  0  0  0  0  0  0  0  0  0  0
   -3.6740    0.5409    8.7484 F   0  0  0  0  0  0  0  0  0  0  0  0
   -3.6727   -1.3114    7.6385 F   0  0  0  0  0  0  0  0  0  0  0  0
   -5.5073   -0.6079    8.5913 F   0  0  0  0  0  0  0  0  0  0  0  0
   -5.2750   -0.0689    5.5046 C   0  0  0  0  0  0  0  0  0  0  0  0
   -5.3718   -1.5450    5.5191 C   0  0  0  0  0  0  0  0  0  0  0  0
   -4.4816   -2.1556    5.0591 O   0  0  0  0  0  0  0  0  0  0  0  0
   -6.6625   -2.0144    6.1169 N   0  0  0  0  0  0  0  0  0  0  0  0
   -7.7867   -2.1252    5.0371 C   0  0  0  0  0  0  0  0  0  0  0  0
   -8.5482   -3.0624    5.9282 C   0  0  0  0  0  0  0  0  0  0  0  0
   -9.4217   -2.4545    6.9418 N   0  0  0  0  0  0  0  0  0  0  0  0
   -8.9017   -1.5653    7.9774 C   0  0  0  0  0  0  0  0  0  0  0  0
   -8.8067   -0.0935    7.5801 C   0  0  0  0  0  0  0  0  0  0  0  0
   -9.9379    0.3735    6.8083 N   0  0  0  0  0  0  0  0  0  0  0  0
  -10.6714   -0.4684    6.0109 C   0  0  0  0  0  0  0  0  0  0  0  0
  -11.3440    0.0085    5.0971 O   0  0  0  0  0  0  0  0  0  0  0  0
  -10.6872   -1.9597    6.3666 C   0  0  0  0  0  0  0  0  0  0  0  0
   -7.1713   -3.4209    6.4033 C   0  0  0  0  0  0  0  0  0  0  0  0
  1  2  1  0
  2  3  2  0
  3  4  1  0
  4  5  2  0
  5  6  1  0
  6  7  1  0
  7  8  1  0
  7  9  1  0
  7 10  1  0
  6 11  2  0
 11 12  1  0
 12 13  2  0
 12 14  1  0
 14 15  1  0
 15 16  1  0
 16 17  1  0
 17 18  1  0
 18 19  1  0
 19 20  1  0
 20 21  1  0
 21 22  2  0
 21 23  1  0
 16 24  1  0
 11  2  1  0
 24 14  1  0
 23 17  1  0
M  END
>  <ref_mols>  (1943) 
7gpj-a

>  <gnina_score>  (1943) 
5.139

>  <smina_score_min>  (1943) 
-5.234

>  <ref_pdb>  (1943) 
7gpj-a

>  <inspiration_score>  (1943) 
None

>  <inchikey>  (1943) 
SPZOTPMZUQTDFR-UHFFFAOYSA-N

>  <tags>  (1943) 
BulkDock Fragalysis export,openbind_d68ev3c_c2_elabs_scored,openbind_d68ev3c_c2_elabs_scored_4.5plus,openbind_d68ev3c_c2_elabs,openbind_d68ev3c_c2_elabs_scored_5plus,syndirella_product,openbind_d68ev3c_c2_elabs_scored_top80percent,syndirella_placed

>  <smiles>  (1943) 
Cc1cccc(C(F)(F)F)c1C(=O)N1CC(N2CCNC(=O)C2)C1

>  <subsites>  (1943) 
None

>  <rmsd(smina/fragmenstein)>  (1943) 
0.817

>  <alias>  (1943) 
None

>  <energy_score>  (1943) 
-14.555046

>  <HIPPO Pose ID>  (1943) 
138810

>  <distance_score>  (1943) 
0.688062

>  <HIPPO Compound ID>  (1943) 
162824

>  <gnina_score_min>  (1943) 
5.077

>  <name>  (1943) 
P138810

>  <exports>  (1943) 
['/opt/xchem-fragalysis-2/maxwin/BulkDock/OUTPUTS/openbind_d68ev3c_c2_elabs_1LOTQJ3.sdf', '/opt/xchem-fragalysis-2/maxwin/BulkDock/OUTPUTS/openbind_d68ev3c_c2_elabs_1LSYI5W.sdf']

$$$$
P138815
     RDKit          3D

 24 26  0  0  0  0  0  0  0  0999 V2000
   -9.7290    0.0394    9.5016 O   0  0  0  0  0  0  0  0  0  0  0  0
  -10.0067   -0.5619    8.4638 C   0  0  0  0  0  0  0  0  0  0  0  0
   -8.9565   -1.3158    7.6357 C   0  0  0  0  0  0  0  0  0  0  0  0
   -9.5337   -2.3998    6.8133 N   0  0  0  0  0  0  0  0  0  0  0  0
   -8.6233   -3.1609    5.9289 C   0  0  0  0  0  0  0  0  0  0  0  0
   -7.7600   -2.3412    5.0087 C   0  0  0  0  0  0  0  0  0  0  0  0
   -6.7258   -2.1559    6.1658 N   0  0  0  0  0  0  0  0  0  0  0  0
   -5.3812   -1.7697    5.6415 C   0  0  0  0  0  0  0  0  0  0  0  0
   -4.4739   -2.4369    5.3144 O   0  0  0  0  0  0  0  0  0  0  0  0
   -5.2646   -0.3007    5.5361 C   0  0  0  0  0  0  0  0  0  0  0  0
   -5.6057    0.3115    4.3240 C   0  0  0  0  0  0  0  0  0  0  0  0
   -5.4772    1.6912    4.1975 C   0  0  0  0  0  0  0  0  0  0  0  0
   -5.8906    2.4509    2.7115 Cl  0  0  0  0  0  0  0  0  0  0  0  0
   -5.0107    2.4579    5.2634 C   0  0  0  0  0  0  0  0  0  0  0  0
   -4.6606    1.8385    6.4668 C   0  0  0  0  0  0  0  0  0  0  0  0
   -4.7675    0.4441    6.6120 C   0  0  0  0  0  0  0  0  0  0  0  0
   -4.3580   -0.2364    7.8906 C   0  0  0  0  0  0  0  0  0  0  0  0
   -3.6711    0.6009    8.7133 F   0  0  0  0  0  0  0  0  0  0  0  0
   -5.4214   -0.6802    8.6047 F   0  0  0  0  0  0  0  0  0  0  0  0
   -3.5365   -1.3006    7.6961 F   0  0  0  0  0  0  0  0  0  0  0  0
   -7.2954   -3.5193    6.5313 C   0  0  0  0  0  0  0  0  0  0  0  0
  -10.6773   -1.9044    6.0345 C   0  0  0  0  0  0  0  0  0  0  0  0
  -11.7714   -1.3858    6.9672 C   0  0  0  0  0  0  0  0  0  0  0  0
  -11.2690   -0.4317    7.9316 N   0  0  0  0  0  0  0  0  0  0  0  0
  1  2  2  0
  2  3  1  0
  3  4  1  0
  4  5  1  0
  5  6  1  0
  6  7  1  0
  7  8  1  0
  8  9  2  0
  8 10  1  0
 10 11  2  0
 11 12  1  0
 12 13  1  0
 12 14  2  0
 14 15  1  0
 15 16  2  0
 16 17  1  0
 17 18  1  0
 17 19  1  0
 17 20  1  0
  7 21  1  0
  4 22  1  0
 22 23  1  0
 23 24  1  0
 24  2  1  0
 21  5  1  0
 16 10  1  0
M  END
>  <ref_mols>  (1944) 
7gpj-a

>  <gnina_score>  (1944) 
5.173

>  <smina_score_min>  (1944) 
-5.811

>  <ref_pdb>  (1944) 
7gpj-a

>  <inspiration_score>  (1944) 
None

>  <inchikey>  (1944) 
UEJNSYSLRYDJBA-UHFFFAOYSA-N

>  <tags>  (1944) 
BulkDock Fragalysis export,openbind_d68ev3c_c2_elabs_scored,openbind_d68ev3c_c2_elabs_scored_4.5plus,openbind_d68ev3c_c2_elabs,openbind_d68ev3c_c2_elabs_scored_5plus,syndirella_product,openbind_d68ev3c_c2_elabs_scored_top80percent,syndirella_placed

>  <smiles>  (1944) 
O=C1CN(C2CN(C(=O)c3cc(Cl)ccc3C(F)(F)F)C2)CCN1

>  <subsites>  (1944) 
None

>  <rmsd(smina/fragmenstein)>  (1944) 
0.63

>  <alias>  (1944) 
None

>  <energy_score>  (1944) 
-20.79476

>  <HIPPO Pose ID>  (1944) 
138815

>  <distance_score>  (1944) 
0.729548

>  <HIPPO Compound ID>  (1944) 
162860

>  <gnina_score_min>  (1944) 
5.156

>  <name>  (1944) 
P138815

>  <exports>  (1944) 
['/opt/xchem-fragalysis-2/maxwin/BulkDock/OUTPUTS/openbind_d68ev3c_c2_elabs_1LOTQJ3.sdf', '/opt/xchem-fragalysis-2/maxwin/BulkDock/OUTPUTS/openbind_d68ev3c_c2_elabs_1LSYI5W.sdf']

$$$$
P138817
     RDKit          3D

 24 26  0  0  0  0  0  0  0  0999 V2000
  -12.9558   -1.2107    7.1355 O   0  0  0  0  0  0  0  0  0  0  0  0
  -11.7317   -1.2075    7.2713 C   0  0  0  0  0  0  0  0  0  0  0  0
  -10.8032   -2.0803    6.4168 C   0  0  0  0  0  0  0  0  0  0  0  0
   -9.4811   -2.3627    7.0280 N   0  0  0  0  0  0  0  0  0  0  0  0
   -8.6607   -3.1227    6.0501 C   0  0  0  0  0  0  0  0  0  0  0  0
   -7.2964   -3.4968    6.5604 C   0  0  0  0  0  0  0  0  0  0  0  0
   -6.7517   -2.1293    6.1828 N   0  0  0  0  0  0  0  0  0  0  0  0
   -5.4386   -1.7323    5.5940 C   0  0  0  0  0  0  0  0  0  0  0  0
   -4.5479   -2.3920    5.2116 O   0  0  0  0  0  0  0  0  0  0  0  0
   -5.3200   -0.2620    5.5184 C   0  0  0  0  0  0  0  0  0  0  0  0
   -5.6804    0.3760    4.3241 C   0  0  0  0  0  0  0  0  0  0  0  0
   -5.5540    1.7611    4.2137 C   0  0  0  0  0  0  0  0  0  0  0  0
   -5.0642    2.4978    5.2903 C   0  0  0  0  0  0  0  0  0  0  0  0
   -4.9151    4.2051    5.1581 Cl  0  0  0  0  0  0  0  0  0  0  0  0
   -4.6918    1.8604    6.4751 C   0  0  0  0  0  0  0  0  0  0  0  0
   -4.8019    0.4627    6.5984 C   0  0  0  0  0  0  0  0  0  0  0  0
   -4.3813   -0.2312    7.8642 C   0  0  0  0  0  0  0  0  0  0  0  0
   -5.4432   -0.6241    8.6127 F   0  0  0  0  0  0  0  0  0  0  0  0
   -3.6409    0.5819    8.6657 F   0  0  0  0  0  0  0  0  0  0  0  0
   -3.6102   -1.3293    7.6577 F   0  0  0  0  0  0  0  0  0  0  0  0
   -7.8469   -2.3049    5.0774 C   0  0  0  0  0  0  0  0  0  0  0  0
   -8.8936   -1.1625    7.6346 C   0  0  0  0  0  0  0  0  0  0  0  0
   -9.8430   -0.5468    8.6636 C   0  0  0  0  0  0  0  0  0  0  0  0
  -11.1565   -0.2948    8.1211 N   0  0  0  0  0  0  0  0  0  0  0  0
  1  2  2  0
  2  3  1  0
  3  4  1  0
  4  5  1  0
  5  6  1  0
  6  7  1  0
  7  8  1  0
  8  9  2  0
  8 10  1  0
 10 11  2  0
 11 12  1  0
 12 13  2  0
 13 14  1  0
 13 15  1  0
 15 16  2  0
 16 17  1  0
 17 18  1  0
 17 19  1  0
 17 20  1  0
  7 21  1  0
  4 22  1  0
 22 23  1  0
 23 24  1  0
 24  2  1  0
 21  5  1  0
 16 10  1  0
M  END
>  <ref_mols>  (1945) 
7gpj-a

>  <gnina_score>  (1945) 
5.283

>  <smina_score_min>  (1945) 
-5.79

>  <ref_pdb>  (1945) 
7gpj-a

>  <inspiration_score>  (1945) 
None

>  <inchikey>  (1945) 
LZIUVQUKUHRHCN-UHFFFAOYSA-N

>  <tags>  (1945) 
BulkDock Fragalysis export,openbind_d68ev3c_c2_elabs_scored,openbind_d68ev3c_c2_elabs_scored_4.5plus,openbind_d68ev3c_c2_elabs,openbind_d68ev3c_c2_elabs_scored_5plus,syndirella_product,openbind_d68ev3c_c2_elabs_scored_top80percent,syndirella_placed

>  <smiles>  (1945) 
O=C1CN(C2CN(C(=O)c3ccc(Cl)cc3C(F)(F)F)C2)CCN1

>  <subsites>  (1945) 
None

>  <rmsd(smina/fragmenstein)>  (1945) 
0.733

>  <alias>  (1945) 
None

>  <energy_score>  (1945) 
-20.485866

>  <HIPPO Pose ID>  (1945) 
138817

>  <distance_score>  (1945) 
0.676404

>  <HIPPO Compound ID>  (1945) 
162889

>  <gnina_score_min>  (1945) 
5.222

>  <name>  (1945) 
P138817

>  <exports>  (1945) 
['/opt/xchem-fragalysis-2/maxwin/BulkDock/OUTPUTS/openbind_d68ev3c_c2_elabs_1LOTQJ3.sdf', '/opt/xchem-fragalysis-2/maxwin/BulkDock/OUTPUTS/openbind_d68ev3c_c2_elabs_1LSYI5W.sdf']

$$$$
P138819
     RDKit          3D

 24 25  0  0  0  0  0  0  0  0999 V2000
   -9.5134   -0.6009    8.5655 C   0  0  0  0  0  0  0  0  0  0  0  0
   -8.8902   -1.2460    7.3250 C   0  0  2  0  0  0  0  0  0  0  0  0
   -9.0451   -0.2650    6.1509 C   0  0  0  0  0  0  0  0  0  0  0  0
   -8.1262    0.4517    5.7578 O   0  0  0  0  0  0  0  0  0  0  0  0
  -10.2781   -0.1991    5.5453 N   0  0  0  0  0  0  0  0  0  0  0  0
  -11.1274   -1.3781    5.4715 C   0  0  0  0  0  0  0  0  0  0  0  0
  -10.9036   -2.3823    6.6152 C   0  0  0  0  0  0  0  0  0  0  0  0
   -9.4779   -2.5615    6.9851 N   0  0  0  0  0  0  0  0  0  0  0  0
   -8.7791   -3.3553    5.9503 C   0  0  0  0  0  0  0  0  0  0  0  0
   -7.2451   -3.4350    5.9790 C   0  0  0  0  0  0  0  0  0  0  0  0
   -6.6020   -2.1910    5.6208 N   0  0  0  0  0  0  0  0  0  0  0  0
   -5.1296   -1.8235    5.5559 C   0  0  0  0  0  0  0  0  0  0  0  0
   -4.1858   -2.4763    5.7042 O   0  0  0  0  0  0  0  0  0  0  0  0
   -4.9916   -0.3614    5.3593 C   0  0  0  0  0  0  0  0  0  0  0  0
   -5.3157    0.2015    4.1187 C   0  0  0  0  0  0  0  0  0  0  0  0
   -5.2625    1.5868    3.9559 C   0  0  0  0  0  0  0  0  0  0  0  0
   -4.8963    2.3974    5.0294 C   0  0  0  0  0  0  0  0  0  0  0  0
   -4.8423    4.1043    4.8277 Cl  0  0  0  0  0  0  0  0  0  0  0  0
   -4.5742    1.8359    6.2659 C   0  0  0  0  0  0  0  0  0  0  0  0
   -4.6095    0.4406    6.4457 C   0  0  0  0  0  0  0  0  0  0  0  0
   -4.2824   -0.1703    7.7839 C   0  0  0  0  0  0  0  0  0  0  0  0
   -3.3319   -1.1377    7.7259 F   0  0  0  0  0  0  0  0  0  0  0  0
   -5.3680   -0.7112    8.3955 F   0  0  0  0  0  0  0  0  0  0  0  0
   -3.7870    0.7508    8.6568 F   0  0  0  0  0  0  0  0  0  0  0  0
  2  1  1  1
  2  3  1  0
  3  4  2  0
  3  5  1  0
  5  6  1  0
  6  7  1  0
  7  8  1  0
  8  9  1  0
  9 10  1  0
 10 11  1  0
 11 12  1  0
 12 13  2  0
 12 14  1  0
 14 15  2  0
 15 16  1  0
 16 17  2  0
 17 18  1  0
 17 19  1  0
 19 20  2  0
 20 21  1  0
 21 22  1  0
 21 23  1  0
 21 24  1  0
  8  2  1  0
 20 14  1  0
M  END
>  <ref_mols>  (1946) 
7gpj-a

>  <gnina_score>  (1946) 
5.12

>  <smina_score_min>  (1946) 
-4.871

>  <ref_pdb>  (1946) 
7gpj-a

>  <inspiration_score>  (1946) 
None

>  <inchikey>  (1946) 
KXSMWYMUBAANJE-SECBINFHSA-N

>  <tags>  (1946) 
BulkDock Fragalysis export,openbind_d68ev3c_c2_elabs_scored,openbind_d68ev3c_c2_elabs_scored_4.5plus,openbind_d68ev3c_c2_elabs,openbind_d68ev3c_c2_elabs_scored_5plus,syndirella_product,openbind_d68ev3c_c2_elabs_scored_top80percent,syndirella_placed

>  <smiles>  (1946) 
C[C@@H]1C(=O)NCCN1CCNC(=O)c1ccc(Cl)cc1C(F)(F)F

>  <subsites>  (1946) 
None

>  <rmsd(smina/fragmenstein)>  (1946) 
0.534

>  <alias>  (1946) 
None

>  <energy_score>  (1946) 
-24.653383

>  <HIPPO Pose ID>  (1946) 
138819

>  <distance_score>  (1946) 
0.686642

>  <HIPPO Compound ID>  (1946) 
162896

>  <gnina_score_min>  (1946) 
5.128

>  <name>  (1946) 
P138819

>  <exports>  (1946) 
['/opt/xchem-fragalysis-2/maxwin/BulkDock/OUTPUTS/openbind_d68ev3c_c2_elabs_1LOTQJ3.sdf', '/opt/xchem-fragalysis-2/maxwin/BulkDock/OUTPUTS/openbind_d68ev3c_c2_elabs_1LSYI5W.sdf']

$$$$
P138821
     RDKit          3D

 24 26  0  0  0  0  0  0  0  0999 V2000
  -11.9247   -2.6517    6.7765 O   0  0  0  0  0  0  0  0  0  0  0  0
  -10.7867   -2.2581    7.0165 C   0  0  0  0  0  0  0  0  0  0  0  0
   -9.5401   -3.1709    7.0906 C   0  0  0  0  0  0  0  0  0  0  0  0
   -8.2978   -2.4509    6.7653 N   0  0  0  0  0  0  0  0  0  0  0  0
   -8.2841   -2.2577    5.3035 C   0  0  0  0  0  0  0  0  0  0  0  0
   -6.9294   -2.6858    4.7916 C   0  0  0  0  0  0  0  0  0  0  0  0
   -6.3623   -1.3071    5.0729 N   0  0  0  0  0  0  0  0  0  0  0  0
   -5.4119   -0.4704    4.2928 C   0  0  0  0  0  0  0  0  0  0  0  0
   -4.9361   -0.6471    3.2353 O   0  0  0  0  0  0  0  0  0  0  0  0
   -5.1492    0.8071    4.9836 C   0  0  0  0  0  0  0  0  0  0  0  0
   -5.4089    1.9288    4.1805 C   0  0  0  0  0  0  0  0  0  0  0  0
   -5.2317    3.1965    4.6956 C   0  0  0  0  0  0  0  0  0  0  0  0
   -5.4865    4.2656    3.9317 F   0  0  0  0  0  0  0  0  0  0  0  0
   -4.7965    3.3721    5.9982 C   0  0  0  0  0  0  0  0  0  0  0  0
   -4.5359    2.2583    6.7996 C   0  0  0  0  0  0  0  0  0  0  0  0
   -4.7013    0.9461    6.3091 C   0  0  0  0  0  0  0  0  0  0  0  0
   -4.3512   -0.1982    7.2336 C   0  0  0  0  0  0  0  0  0  0  0  0
   -5.3657   -0.5399    8.0699 F   0  0  0  0  0  0  0  0  0  0  0  0
   -3.9340   -1.3339    6.6197 F   0  0  0  0  0  0  0  0  0  0  0  0
   -3.3202    0.1449    8.0655 F   0  0  0  0  0  0  0  0  0  0  0  0
   -7.8434   -0.9354    4.7560 C   0  0  0  0  0  0  0  0  0  0  0  0
   -8.1492   -1.2729    7.6322 C   0  0  0  0  0  0  0  0  0  0  0  0
   -9.4388   -0.5813    8.1003 C   0  0  0  0  0  0  0  0  0  0  0  0
  -10.5762   -0.9227    7.2868 N   0  0  0  0  0  0  0  0  0  0  0  0
  1  2  2  0
  2  3  1  0
  3  4  1  0
  4  5  1  0
  5  6  1  0
  6  7  1  0
  7  8  1  0
  8  9  2  0
  8 10  1  0
 10 11  2  0
 11 12  1  0
 12 13  1  0
 12 14  2  0
 14 15  1  0
 15 16  2  0
 16 17  1  0
 17 18  1  0
 17 19  1  0
 17 20  1  0
  7 21  1  0
  4 22  1  0
 22 23  1  0
 23 24  1  0
 24  2  1  0
 21  5  1  0
 16 10  1  0
M  END
>  <ref_mols>  (1947) 
7gpj-a

>  <gnina_score>  (1947) 
5.134

>  <smina_score_min>  (1947) 
-5.18

>  <ref_pdb>  (1947) 
7gpj-a

>  <inspiration_score>  (1947) 
None

>  <inchikey>  (1947) 
YJHNCBQYZVSBHN-UHFFFAOYSA-N

>  <tags>  (1947) 
BulkDock Fragalysis export,openbind_d68ev3c_c2_elabs_scored,openbind_d68ev3c_c2_elabs_scored_4.5plus,openbind_d68ev3c_c2_elabs,openbind_d68ev3c_c2_elabs_scored_5plus,syndirella_product,openbind_d68ev3c_c2_elabs_scored_top80percent,syndirella_placed

>  <smiles>  (1947) 
O=C1CN(C2CN(C(=O)c3cc(F)ccc3C(F)(F)F)C2)CCN1

>  <subsites>  (1947) 
None

>  <rmsd(smina/fragmenstein)>  (1947) 
1.047

>  <alias>  (1947) 
None

>  <energy_score>  (1947) 
-8.421408

>  <HIPPO Pose ID>  (1947) 
138821

>  <distance_score>  (1947) 
1.242505

>  <HIPPO Compound ID>  (1947) 
162924

>  <gnina_score_min>  (1947) 
5.093

>  <name>  (1947) 
P138821

>  <exports>  (1947) 
['/opt/xchem-fragalysis-2/maxwin/BulkDock/OUTPUTS/openbind_d68ev3c_c2_elabs_1LOTQJ3.sdf', '/opt/xchem-fragalysis-2/maxwin/BulkDock/OUTPUTS/openbind_d68ev3c_c2_elabs_1LSYI5W.sdf']

$$$$
P138848
     RDKit          3D

 24 26  0  0  0  0  0  0  0  0999 V2000
   -9.6808    0.0949    9.5117 O   0  0  0  0  0  0  0  0  0  0  0  0
   -9.9632   -0.5123    8.4786 C   0  0  0  0  0  0  0  0  0  0  0  0
   -8.9138   -1.2493    7.6364 C   0  0  0  0  0  0  0  0  0  0  0  0
   -9.4825   -2.3592    6.8434 N   0  0  0  0  0  0  0  0  0  0  0  0
   -8.5684   -3.1029    5.9462 C   0  0  0  0  0  0  0  0  0  0  0  0
   -7.7645   -2.2684    4.9860 C   0  0  0  0  0  0  0  0  0  0  0  0
   -6.6949   -2.0321    6.1008 N   0  0  0  0  0  0  0  0  0  0  0  0
   -5.3787   -1.6155    5.5192 C   0  0  0  0  0  0  0  0  0  0  0  0
   -4.4639   -2.2623    5.1700 O   0  0  0  0  0  0  0  0  0  0  0  0
   -5.2600   -0.1439    5.4697 C   0  0  0  0  0  0  0  0  0  0  0  0
   -5.5161    0.5677    4.2887 C   0  0  0  0  0  0  0  0  0  0  0  0
   -6.0058   -0.2633    2.6542 Br  0  0  0  0  0  0  0  0  0  0  0  0
   -5.3789    1.9587    4.2706 C   0  0  0  0  0  0  0  0  0  0  0  0
   -4.9693    2.6374    5.4153 C   0  0  0  0  0  0  0  0  0  0  0  0
   -4.6779    1.9271    6.5781 C   0  0  0  0  0  0  0  0  0  0  0  0
   -4.7993    0.5260    6.6155 C   0  0  0  0  0  0  0  0  0  0  0  0
   -4.4219   -0.2296    7.8638 C   0  0  0  0  0  0  0  0  0  0  0  0
   -5.5014   -0.6726    8.5539 F   0  0  0  0  0  0  0  0  0  0  0  0
   -3.7151    0.5473    8.7301 F   0  0  0  0  0  0  0  0  0  0  0  0
   -3.6275   -1.3071    7.6323 F   0  0  0  0  0  0  0  0  0  0  0  0
   -7.2094   -3.4039    6.5100 C   0  0  0  0  0  0  0  0  0  0  0  0
  -10.6543   -1.9038    6.0793 C   0  0  0  0  0  0  0  0  0  0  0  0
  -11.7391   -1.3712    7.0156 C   0  0  0  0  0  0  0  0  0  0  0  0
  -11.2334   -0.4002    7.9616 N   0  0  0  0  0  0  0  0  0  0  0  0
  1  2  2  0
  2  3  1  0
  3  4  1  0
  4  5  1  0
  5  6  1  0
  6  7  1  0
  7  8  1  0
  8  9  2  0
  8 10  1  0
 10 11  2  0
 11 12  1  0
 11 13  1  0
 13 14  2  0
 14 15  1  0
 15 16  2  0
 16 17  1  0
 17 18  1  0
 17 19  1  0
 17 20  1  0
  7 21  1  0
  4 22  1  0
 22 23  1  0
 23 24  1  0
 24  2  1  0
 21  5  1  0
 16 10  1  0
M  END
>  <ref_mols>  (1948) 
7gpj-a

>  <gnina_score>  (1948) 
5.219

>  <smina_score_min>  (1948) 
-5.417

>  <ref_pdb>  (1948) 
7gpj-a

>  <inspiration_score>  (1948) 
None

>  <inchikey>  (1948) 
AMFMJIDGGINAJR-UHFFFAOYSA-N

>  <tags>  (1948) 
BulkDock Fragalysis export,openbind_d68ev3c_c2_elabs_scored,openbind_d68ev3c_c2_elabs_scored_4.5plus,openbind_d68ev3c_c2_elabs,openbind_d68ev3c_c2_elabs_scored_5plus,syndirella_product,openbind_d68ev3c_c2_elabs_scored_top80percent,syndirella_placed

>  <smiles>  (1948) 
O=C1CN(C2CN(C(=O)c3c(Br)cccc3C(F)(F)F)C2)CCN1

>  <subsites>  (1948) 
None

>  <rmsd(smina/fragmenstein)>  (1948) 
0.374

>  <alias>  (1948) 
None

>  <energy_score>  (1948) 
-26.038125

>  <HIPPO Pose ID>  (1948) 
138848

>  <distance_score>  (1948) 
0.711435

>  <HIPPO Compound ID>  (1948) 
163125

>  <gnina_score_min>  (1948) 
5.216

>  <name>  (1948) 
P138848

>  <exports>  (1948) 
['/opt/xchem-fragalysis-2/maxwin/BulkDock/OUTPUTS/openbind_d68ev3c_c2_elabs_1LOTQJ3.sdf', '/opt/xchem-fragalysis-2/maxwin/BulkDock/OUTPUTS/openbind_d68ev3c_c2_elabs_1LSYI5W.sdf']

$$$$
P138850
     RDKit          3D

 24 25  0  0  0  0  0  0  0  0999 V2000
   -8.6841   -0.8053    8.2883 C   0  0  0  0  0  0  0  0  0  0  0  0
   -9.4779   -1.2740    7.0825 C   0  0  1  0  0  0  0  0  0  0  0  0
   -9.1542   -0.4593    5.8244 C   0  0  0  0  0  0  0  0  0  0  0  0
   -8.4085    0.5155    5.7808 O   0  0  0  0  0  0  0  0  0  0  0  0
   -9.7239   -0.9293    4.6649 N   0  0  0  0  0  0  0  0  0  0  0  0
  -10.7059   -1.9928    4.7039 C   0  0  0  0  0  0  0  0  0  0  0  0
  -10.4150   -3.0806    5.7670 C   0  0  0  0  0  0  0  0  0  0  0  0
   -9.4342   -2.7243    6.8038 N   0  0  0  0  0  0  0  0  0  0  0  0
   -8.1404   -3.4027    6.6555 C   0  0  0  0  0  0  0  0  0  0  0  0
   -7.3698   -3.2827    5.3238 C   0  0  0  0  0  0  0  0  0  0  0  0
   -6.6996   -2.0179    5.1686 N   0  0  0  0  0  0  0  0  0  0  0  0
   -5.2407   -1.6348    5.3944 C   0  0  0  0  0  0  0  0  0  0  0  0
   -4.3244   -2.2911    5.6683 O   0  0  0  0  0  0  0  0  0  0  0  0
   -5.0783   -0.1570    5.3247 C   0  0  0  0  0  0  0  0  0  0  0  0
   -5.3920    0.5641    4.1599 C   0  0  0  0  0  0  0  0  0  0  0  0
   -5.9483   -0.2594    2.5389 Br  0  0  0  0  0  0  0  0  0  0  0  0
   -5.2694    1.9567    4.1445 C   0  0  0  0  0  0  0  0  0  0  0  0
   -4.8359    2.6348    5.2803 C   0  0  0  0  0  0  0  0  0  0  0  0
   -4.5147    1.9239    6.4347 C   0  0  0  0  0  0  0  0  0  0  0  0
   -4.6186    0.5194    6.4729 C   0  0  0  0  0  0  0  0  0  0  0  0
   -4.2432   -0.2194    7.7364 C   0  0  0  0  0  0  0  0  0  0  0  0
   -3.8215    0.6331    8.7150 F   0  0  0  0  0  0  0  0  0  0  0  0
   -3.2114   -1.0883    7.5769 F   0  0  0  0  0  0  0  0  0  0  0  0
   -5.2750   -0.9113    8.2807 F   0  0  0  0  0  0  0  0  0  0  0  0
  2  1  1  1
  2  3  1  0
  3  4  2  0
  3  5  1  0
  5  6  1  0
  6  7  1  0
  7  8  1  0
  8  9  1  0
  9 10  1  0
 10 11  1  0
 11 12  1  0
 12 13  2  0
 12 14  1  0
 14 15  2  0
 15 16  1  0
 15 17  1  0
 17 18  2  0
 18 19  1  0
 19 20  2  0
 20 21  1  0
 21 22  1  0
 21 23  1  0
 21 24  1  0
  8  2  1  0
 20 14  1  0
M  END
>  <ref_mols>  (1949) 
7gpj-a

>  <gnina_score>  (1949) 
5.054

>  <smina_score_min>  (1949) 
-4.925

>  <ref_pdb>  (1949) 
7gpj-a

>  <inspiration_score>  (1949) 
None

>  <inchikey>  (1949) 
XXEOHUGEZFFNJI-VIFPVBQESA-N

>  <tags>  (1949) 
BulkDock Fragalysis export,openbind_d68ev3c_c2_elabs_scored,openbind_d68ev3c_c2_elabs_scored_4.5plus,openbind_d68ev3c_c2_elabs,openbind_d68ev3c_c2_elabs_scored_5plus,syndirella_product,openbind_d68ev3c_c2_elabs_scored_top80percent,syndirella_placed

>  <smiles>  (1949) 
C[C@H]1C(=O)NCCN1CCNC(=O)c1c(Br)cccc1C(F)(F)F

>  <subsites>  (1949) 
None

>  <rmsd(smina/fragmenstein)>  (1949) 
0.645

>  <alias>  (1949) 
None

>  <energy_score>  (1949) 
-16.752462

>  <HIPPO Pose ID>  (1949) 
138850

>  <distance_score>  (1949) 
0.689151

>  <HIPPO Compound ID>  (1949) 
163126

>  <gnina_score_min>  (1949) 
5.009

>  <name>  (1949) 
P138850

>  <exports>  (1949) 
['/opt/xchem-fragalysis-2/maxwin/BulkDock/OUTPUTS/openbind_d68ev3c_c2_elabs_1LOTQJ3.sdf', '/opt/xchem-fragalysis-2/maxwin/BulkDock/OUTPUTS/openbind_d68ev3c_c2_elabs_1LSYI5W.sdf']

$$$$
P138853
     RDKit          3D

 24 25  0  0  0  0  0  0  0  0999 V2000
   -9.4139   -0.7209    8.4928 C   0  0  0  0  0  0  0  0  0  0  0  0
   -8.7766   -1.2528    7.2110 C   0  0  2  0  0  0  0  0  0  0  0  0
   -9.0704   -0.2748    6.0606 C   0  0  0  0  0  0  0  0  0  0  0  0
   -8.2295    0.4850    5.5845 O   0  0  0  0  0  0  0  0  0  0  0  0
  -10.3463   -0.3021    5.5511 N   0  0  0  0  0  0  0  0  0  0  0  0
  -11.2289   -1.3984    5.8905 C   0  0  0  0  0  0  0  0  0  0  0  0
  -10.4356   -2.7061    6.0260 C   0  0  0  0  0  0  0  0  0  0  0  0
   -9.2445   -2.6211    6.8918 N   0  0  0  0  0  0  0  0  0  0  0  0
   -8.1787   -3.5632    6.5092 C   0  0  0  0  0  0  0  0  0  0  0  0
   -7.4549   -3.3368    5.1596 C   0  0  0  0  0  0  0  0  0  0  0  0
   -6.7539   -2.0776    5.0924 N   0  0  0  0  0  0  0  0  0  0  0  0
   -5.2968   -1.7339    5.4025 C   0  0  0  0  0  0  0  0  0  0  0  0
   -4.4060   -2.4207    5.6881 O   0  0  0  0  0  0  0  0  0  0  0  0
   -5.0837   -0.2639    5.3285 C   0  0  0  0  0  0  0  0  0  0  0  0
   -5.3665    0.4000    4.1249 C   0  0  0  0  0  0  0  0  0  0  0  0
   -5.2269    1.7857    4.0407 C   0  0  0  0  0  0  0  0  0  0  0  0
   -4.8051    2.5045    5.1567 C   0  0  0  0  0  0  0  0  0  0  0  0
   -4.6046    4.5688    5.0401 I   0  0  0  0  0  0  0  0  0  0  0  0
   -4.5108    1.8474    6.3530 C   0  0  0  0  0  0  0  0  0  0  0  0
   -4.6310    0.4466    6.4515 C   0  0  0  0  0  0  0  0  0  0  0  0
   -4.2991   -0.2488    7.7475 C   0  0  0  0  0  0  0  0  0  0  0  0
   -3.3238   -1.1865    7.6325 F   0  0  0  0  0  0  0  0  0  0  0  0
   -3.8278    0.6230    8.6855 F   0  0  0  0  0  0  0  0  0  0  0  0
   -5.3750   -0.8498    8.3179 F   0  0  0  0  0  0  0  0  0  0  0  0
  2  1  1  1
  2  3  1  0
  3  4  2  0
  3  5  1  0
  5  6  1  0
  6  7  1  0
  7  8  1  0
  8  9  1  0
  9 10  1  0
 10 11  1  0
 11 12  1  0
 12 13  2  0
 12 14  1  0
 14 15  2  0
 15 16  1  0
 16 17  2  0
 17 18  1  0
 17 19  1  0
 19 20  2  0
 20 21  1  0
 21 22  1  0
 21 23  1  0
 21 24  1  0
  8  2  1  0
 20 14  1  0
M  END
>  <ref_mols>  (1950) 
7gpj-a

>  <gnina_score>  (1950) 
5.191

>  <smina_score_min>  (1950) 
-5.059

>  <ref_pdb>  (1950) 
7gpj-a

>  <inspiration_score>  (1950) 
None

>  <inchikey>  (1950) 
XQQIHFPXKLHJAD-SECBINFHSA-N

>  <tags>  (1950) 
BulkDock Fragalysis export,openbind_d68ev3c_c2_elabs_scored,openbind_d68ev3c_c2_elabs_scored_4.5plus,openbind_d68ev3c_c2_elabs,openbind_d68ev3c_c2_elabs_scored_5plus,syndirella_product,openbind_d68ev3c_c2_elabs_scored_top80percent,syndirella_placed

>  <smiles>  (1950) 
C[C@@H]1C(=O)NCCN1CCNC(=O)c1ccc(I)cc1C(F)(F)F

>  <subsites>  (1950) 
None

>  <rmsd(smina/fragmenstein)>  (1950) 
0.619

>  <alias>  (1950) 
None

>  <energy_score>  (1950) 
-21.08396

>  <HIPPO Pose ID>  (1950) 
138853

>  <distance_score>  (1950) 
0.648778

>  <HIPPO Compound ID>  (1950) 
163155

>  <gnina_score_min>  (1950) 
5.175

>  <name>  (1950) 
P138853

>  <exports>  (1950) 
['/opt/xchem-fragalysis-2/maxwin/BulkDock/OUTPUTS/openbind_d68ev3c_c2_elabs_1LOTQJ3.sdf', '/opt/xchem-fragalysis-2/maxwin/BulkDock/OUTPUTS/openbind_d68ev3c_c2_elabs_1LSYI5W.sdf']

$$$$
P138857
     RDKit          3D

 24 25  0  0  0  0  0  0  0  0999 V2000
   -9.1088   -0.6124    4.7721 C   0  0  0  0  0  0  0  0  0  0  0  0
   -8.8959   -0.6479    6.2738 C   0  0  1  0  0  0  0  0  0  0  0  0
   -9.7483    0.4552    6.9548 C   0  0  0  0  0  0  0  0  0  0  0  0
  -10.1968    1.4405    6.3700 O   0  0  0  0  0  0  0  0  0  0  0  0
   -9.8626    0.3846    8.3233 N   0  0  0  0  0  0  0  0  0  0  0  0
   -9.9376   -0.9281    8.9172 C   0  0  0  0  0  0  0  0  0  0  0  0
   -8.9169   -1.9045    8.3068 C   0  0  0  0  0  0  0  0  0  0  0  0
   -9.1374   -1.9847    6.8648 N   0  0  0  0  0  0  0  0  0  0  0  0
   -8.4644   -3.1418    6.2359 C   0  0  0  0  0  0  0  0  0  0  0  0
   -6.9279   -3.2667    6.3360 C   0  0  0  0  0  0  0  0  0  0  0  0
   -6.2734   -1.9896    6.2415 N   0  0  0  0  0  0  0  0  0  0  0  0
   -5.6510   -1.2768    5.0372 C   0  0  0  0  0  0  0  0  0  0  0  0
   -5.4982   -1.6392    3.9434 O   0  0  0  0  0  0  0  0  0  0  0  0
   -5.2791    0.1482    5.3261 C   0  0  0  0  0  0  0  0  0  0  0  0
   -5.6254    1.0524    4.2997 C   0  0  0  0  0  0  0  0  0  0  0  0
   -5.3905    2.4192    4.4286 C   0  0  0  0  0  0  0  0  0  0  0  0
   -4.8087    2.8994    5.5921 C   0  0  0  0  0  0  0  0  0  0  0  0
   -4.4891    4.7500    5.7922 Br  0  0  0  0  0  0  0  0  0  0  0  0
   -4.4544    2.0226    6.6172 C   0  0  0  0  0  0  0  0  0  0  0  0
   -4.6661    0.6310    6.4939 C   0  0  0  0  0  0  0  0  0  0  0  0
   -4.2173   -0.2631    7.6143 C   0  0  0  0  0  0  0  0  0  0  0  0
   -3.4063    0.3655    8.5029 F   0  0  0  0  0  0  0  0  0  0  0  0
   -5.2730   -0.7252    8.3404 F   0  0  0  0  0  0  0  0  0  0  0  0
   -3.5307   -1.3553    7.1918 F   0  0  0  0  0  0  0  0  0  0  0  0
  2  1  1  6
  2  3  1  0
  3  4  2  0
  3  5  1  0
  5  6  1  0
  6  7  1  0
  7  8  1  0
  8  9  1  0
  9 10  1  0
 10 11  1  0
 11 12  1  0
 12 13  2  0
 12 14  1  0
 14 15  2  0
 15 16  1  0
 16 17  2  0
 17 18  1  0
 17 19  1  0
 19 20  2  0
 20 21  1  0
 21 22  1  0
 21 23  1  0
 21 24  1  0
  8  2  1  0
 20 14  1  0
M  END
>  <ref_mols>  (1951) 
7gpj-a

>  <gnina_score>  (1951) 
4.935

>  <smina_score_min>  (1951) 
-4.371

>  <ref_pdb>  (1951) 
7gpj-a

>  <inspiration_score>  (1951) 
None

>  <inchikey>  (1951) 
ZZXJUTGCOGDTFF-VIFPVBQESA-N

>  <tags>  (1951) 
BulkDock Fragalysis export,openbind_d68ev3c_c2_elabs_scored,openbind_d68ev3c_c2_elabs_scored_4.5plus,openbind_d68ev3c_c2_elabs,openbind_d68ev3c_c2_elabs_scored_5plus,syndirella_product,openbind_d68ev3c_c2_elabs_scored_top80percent,syndirella_placed

>  <smiles>  (1951) 
C[C@H]1C(=O)NCCN1CCNC(=O)c1ccc(Br)cc1C(F)(F)F

>  <subsites>  (1951) 
None

>  <rmsd(smina/fragmenstein)>  (1951) 
1.023

>  <alias>  (1951) 
None

>  <energy_score>  (1951) 
-15.288648

>  <HIPPO Pose ID>  (1951) 
138857

>  <distance_score>  (1951) 
1.003003

>  <HIPPO Compound ID>  (1951) 
163169

>  <gnina_score_min>  (1951) 
5.149

>  <name>  (1951) 
P138857

>  <exports>  (1951) 
['/opt/xchem-fragalysis-2/maxwin/BulkDock/OUTPUTS/openbind_d68ev3c_c2_elabs_1LOTQJ3.sdf', '/opt/xchem-fragalysis-2/maxwin/BulkDock/OUTPUTS/openbind_d68ev3c_c2_elabs_1LSYI5W.sdf']

$$$$
P138858
     RDKit          3D

 24 26  0  0  0  0  0  0  0  0999 V2000
   -9.7637   -0.0816    9.5579 O   0  0  0  0  0  0  0  0  0  0  0  0
  -10.0293   -0.6352    8.4934 C   0  0  0  0  0  0  0  0  0  0  0  0
   -8.9781   -1.2922    7.5904 C   0  0  0  0  0  0  0  0  0  0  0  0
   -9.5116   -2.4602    6.8670 N   0  0  0  0  0  0  0  0  0  0  0  0
   -8.6165   -3.2077    5.9623 C   0  0  0  0  0  0  0  0  0  0  0  0
   -7.2637   -3.5184    6.5316 C   0  0  0  0  0  0  0  0  0  0  0  0
   -6.7463   -2.1419    6.1483 N   0  0  0  0  0  0  0  0  0  0  0  0
   -5.4272   -1.7167    5.5901 C   0  0  0  0  0  0  0  0  0  0  0  0
   -4.5074   -2.3572    5.2430 O   0  0  0  0  0  0  0  0  0  0  0  0
   -5.3369   -0.2441    5.5185 C   0  0  0  0  0  0  0  0  0  0  0  0
   -5.7222    0.3950    4.3327 C   0  0  0  0  0  0  0  0  0  0  0  0
   -5.6093    1.7816    4.2257 C   0  0  0  0  0  0  0  0  0  0  0  0
   -5.1089    2.5173    5.2977 C   0  0  0  0  0  0  0  0  0  0  0  0
   -4.9575    4.3959    5.1546 Br  0  0  0  0  0  0  0  0  0  0  0  0
   -4.7142    1.8804    6.4761 C   0  0  0  0  0  0  0  0  0  0  0  0
   -4.8102    0.4816    6.5941 C   0  0  0  0  0  0  0  0  0  0  0  0
   -4.3638   -0.2181    7.8490 C   0  0  0  0  0  0  0  0  0  0  0  0
   -3.5323   -1.2671    7.6185 F   0  0  0  0  0  0  0  0  0  0  0  0
   -5.4056   -0.6897    8.5768 F   0  0  0  0  0  0  0  0  0  0  0  0
   -3.6706    0.6117    8.6753 F   0  0  0  0  0  0  0  0  0  0  0  0
   -7.8052   -2.3644    5.0141 C   0  0  0  0  0  0  0  0  0  0  0  0
  -10.8212   -2.2534    6.2287 C   0  0  0  0  0  0  0  0  0  0  0  0
  -11.5561   -0.9637    6.6240 C   0  0  0  0  0  0  0  0  0  0  0  0
  -11.3064   -0.5836    7.9886 N   0  0  0  0  0  0  0  0  0  0  0  0
  1  2  2  0
  2  3  1  0
  3  4  1  0
  4  5  1  0
  5  6  1  0
  6  7  1  0
  7  8  1  0
  8  9  2  0
  8 10  1  0
 10 11  2  0
 11 12  1  0
 12 13  2  0
 13 14  1  0
 13 15  1  0
 15 16  2  0
 16 17  1  0
 17 18  1  0
 17 19  1  0
 17 20  1  0
  7 21  1  0
  4 22  1  0
 22 23  1  0
 23 24  1  0
 24  2  1  0
 21  5  1  0
 16 10  1  0
M  END
>  <ref_mols>  (1952) 
7gpj-a

>  <gnina_score>  (1952) 
5.241

>  <smina_score_min>  (1952) 
-5.759

>  <ref_pdb>  (1952) 
7gpj-a

>  <inspiration_score>  (1952) 
None

>  <inchikey>  (1952) 
IYTKCDFCAXHCDT-UHFFFAOYSA-N

>  <tags>  (1952) 
BulkDock Fragalysis export,openbind_d68ev3c_c2_elabs_scored,openbind_d68ev3c_c2_elabs_scored_4.5plus,openbind_d68ev3c_c2_elabs,openbind_d68ev3c_c2_elabs_scored_5plus,syndirella_product,openbind_d68ev3c_c2_elabs_scored_top80percent,syndirella_placed

>  <smiles>  (1952) 
O=C1CN(C2CN(C(=O)c3ccc(Br)cc3C(F)(F)F)C2)CCN1

>  <subsites>  (1952) 
None

>  <rmsd(smina/fragmenstein)>  (1952) 
0.678

>  <alias>  (1952) 
None

>  <energy_score>  (1952) 
-8.108154

>  <HIPPO Pose ID>  (1952) 
138858

>  <distance_score>  (1952) 
0.706868

>  <HIPPO Compound ID>  (1952) 
163170

>  <gnina_score_min>  (1952) 
5.106

>  <name>  (1952) 
P138858

>  <exports>  (1952) 
['/opt/xchem-fragalysis-2/maxwin/BulkDock/OUTPUTS/openbind_d68ev3c_c2_elabs_1LOTQJ3.sdf', '/opt/xchem-fragalysis-2/maxwin/BulkDock/OUTPUTS/openbind_d68ev3c_c2_elabs_1LSYI5W.sdf']

$$$$
P138860
     RDKit          3D

 24 26  0  0  0  0  0  0  0  0999 V2000
  -10.5774    1.6881    6.5091 O   0  0  0  0  0  0  0  0  0  0  0  0
  -10.2625    0.5816    6.9483 C   0  0  0  0  0  0  0  0  0  0  0  0
   -9.7865   -0.5555    6.0321 C   0  0  0  0  0  0  0  0  0  0  0  0
   -8.8510   -1.4597    6.7207 N   0  0  0  0  0  0  0  0  0  0  0  0
   -8.4137   -2.5766    5.8414 C   0  0  0  0  0  0  0  0  0  0  0  0
   -7.4510   -2.0441    4.7768 C   0  0  0  0  0  0  0  0  0  0  0  0
   -6.4494   -1.8519    5.9493 N   0  0  0  0  0  0  0  0  0  0  0  0
   -5.0875   -1.5520    5.4564 C   0  0  0  0  0  0  0  0  0  0  0  0
   -4.2046   -2.2695    5.1889 O   0  0  0  0  0  0  0  0  0  0  0  0
   -4.9245   -0.0868    5.4108 C   0  0  0  0  0  0  0  0  0  0  0  0
   -5.1403    0.5792    4.1990 C   0  0  0  0  0  0  0  0  0  0  0  0
   -5.0690    1.9709    4.1580 C   0  0  0  0  0  0  0  0  0  0  0  0
   -4.7828    2.6817    5.3241 C   0  0  0  0  0  0  0  0  0  0  0  0
   -4.6718    4.7557    5.2660 I   0  0  0  0  0  0  0  0  0  0  0  0
   -4.5638    2.0124    6.5315 C   0  0  0  0  0  0  0  0  0  0  0  0
   -4.6232    0.6090    6.5868 C   0  0  0  0  0  0  0  0  0  0  0  0
   -4.3721   -0.1243    7.8771 C   0  0  0  0  0  0  0  0  0  0  0  0
   -5.5116   -0.4686    8.5300 F   0  0  0  0  0  0  0  0  0  0  0  0
   -3.6621    0.6399    8.7514 F   0  0  0  0  0  0  0  0  0  0  0  0
   -3.6409   -1.2613    7.7330 F   0  0  0  0  0  0  0  0  0  0  0  0
   -7.0853   -3.1574    6.3527 C   0  0  0  0  0  0  0  0  0  0  0  0
   -9.5090   -1.9687    7.9197 C   0  0  0  0  0  0  0  0  0  0  0  0
   -9.7336   -0.7997    8.8888 C   0  0  0  0  0  0  0  0  0  0  0  0
  -10.4416    0.3012    8.2768 N   0  0  0  0  0  0  0  0  0  0  0  0
  1  2  2  0
  2  3  1  0
  3  4  1  0
  4  5  1  0
  5  6  1  0
  6  7  1  0
  7  8  1  0
  8  9  2  0
  8 10  1  0
 10 11  2  0
 11 12  1  0
 12 13  2  0
 13 14  1  0
 13 15  1  0
 15 16  2  0
 16 17  1  0
 17 18  1  0
 17 19  1  0
 17 20  1  0
  7 21  1  0
  4 22  1  0
 22 23  1  0
 23 24  1  0
 24  2  1  0
 21  5  1  0
 16 10  1  0
M  END
>  <ref_mols>  (1953) 
7gpj-a

>  <gnina_score>  (1953) 
4.849

>  <smina_score_min>  (1953) 
-5.778

>  <ref_pdb>  (1953) 
7gpj-a

>  <inspiration_score>  (1953) 
None

>  <inchikey>  (1953) 
GWIFQBYZZLDQKJ-UHFFFAOYSA-N

>  <tags>  (1953) 
BulkDock Fragalysis export,openbind_d68ev3c_c2_elabs_scored,openbind_d68ev3c_c2_elabs_scored_4.5plus,openbind_d68ev3c_c2_elabs,openbind_d68ev3c_c2_elabs_scored_5plus,syndirella_product,openbind_d68ev3c_c2_elabs_scored_top80percent,syndirella_placed

>  <smiles>  (1953) 
O=C1CN(C2CN(C(=O)c3ccc(I)cc3C(F)(F)F)C2)CCN1

>  <subsites>  (1953) 
None

>  <rmsd(smina/fragmenstein)>  (1953) 
0.898

>  <alias>  (1953) 
None

>  <energy_score>  (1953) 
-13.64641

>  <HIPPO Pose ID>  (1953) 
138860

>  <distance_score>  (1953) 
1.1426

>  <HIPPO Compound ID>  (1953) 
163183

>  <gnina_score_min>  (1953) 
5.247

>  <name>  (1953) 
P138860

>  <exports>  (1953) 
['/opt/xchem-fragalysis-2/maxwin/BulkDock/OUTPUTS/openbind_d68ev3c_c2_elabs_1LOTQJ3.sdf', '/opt/xchem-fragalysis-2/maxwin/BulkDock/OUTPUTS/openbind_d68ev3c_c2_elabs_1LSYI5W.sdf']

$$$$
P138864
     RDKit          3D

 24 26  0  0  0  0  0  0  0  0999 V2000
   -9.7402    0.0219    9.5238 O   0  0  0  0  0  0  0  0  0  0  0  0
  -10.0148   -0.5683    8.4788 C   0  0  0  0  0  0  0  0  0  0  0  0
   -8.9661   -1.3260    7.6514 C   0  0  0  0  0  0  0  0  0  0  0  0
   -9.5503   -2.3988    6.8188 N   0  0  0  0  0  0  0  0  0  0  0  0
   -8.6441   -3.1698    5.9391 C   0  0  0  0  0  0  0  0  0  0  0  0
   -7.3182   -3.5342    6.5424 C   0  0  0  0  0  0  0  0  0  0  0  0
   -6.7417   -2.1746    6.1718 N   0  0  0  0  0  0  0  0  0  0  0  0
   -5.3948   -1.7970    5.6464 C   0  0  0  0  0  0  0  0  0  0  0  0
   -4.4905   -2.4699    5.3220 O   0  0  0  0  0  0  0  0  0  0  0  0
   -5.2727   -0.3284    5.5347 C   0  0  0  0  0  0  0  0  0  0  0  0
   -5.6168    0.2828    4.3197 C   0  0  0  0  0  0  0  0  0  0  0  0
   -5.4975    1.6643    4.1816 C   0  0  0  0  0  0  0  0  0  0  0  0
   -5.0329    2.4225    5.2530 C   0  0  0  0  0  0  0  0  0  0  0  0
   -4.6833    1.7971    6.4499 C   0  0  0  0  0  0  0  0  0  0  0  0
   -4.2340    2.5638    7.4509 F   0  0  0  0  0  0  0  0  0  0  0  0
   -4.7769    0.4167    6.6087 C   0  0  0  0  0  0  0  0  0  0  0  0
   -4.3713   -0.2405    7.8876 C   0  0  0  0  0  0  0  0  0  0  0  0
   -3.6354    0.5618    8.6995 F   0  0  0  0  0  0  0  0  0  0  0  0
   -3.5986   -1.3449    7.6982 F   0  0  0  0  0  0  0  0  0  0  0  0
   -5.4421   -0.6406    8.6202 F   0  0  0  0  0  0  0  0  0  0  0  0
   -7.7756   -2.3592    5.0159 C   0  0  0  0  0  0  0  0  0  0  0  0
  -10.6838   -1.8866    6.0365 C   0  0  0  0  0  0  0  0  0  0  0  0
  -11.7782   -1.3670    6.9681 C   0  0  0  0  0  0  0  0  0  0  0  0
  -11.2728   -0.4221    7.9399 N   0  0  0  0  0  0  0  0  0  0  0  0
  1  2  2  0
  2  3  1  0
  3  4  1  0
  4  5  1  0
  5  6  1  0
  6  7  1  0
  7  8  1  0
  8  9  2  0
  8 10  1  0
 10 11  2  0
 11 12  1  0
 12 13  2  0
 13 14  1  0
 14 15  1  0
 14 16  2  0
 16 17  1  0
 17 18  1  0
 17 19  1  0
 17 20  1  0
  7 21  1  0
  4 22  1  0
 22 23  1  0
 23 24  1  0
 24  2  1  0
 21  5  1  0
 16 10  1  0
M  END
>  <ref_mols>  (1954) 
7gpj-a

>  <gnina_score>  (1954) 
5.154

>  <smina_score_min>  (1954) 
-5.97

>  <ref_pdb>  (1954) 
7gpj-a

>  <inspiration_score>  (1954) 
None

>  <inchikey>  (1954) 
XFVVCPOGUOXDRZ-UHFFFAOYSA-N

>  <tags>  (1954) 
BulkDock Fragalysis export,openbind_d68ev3c_c2_elabs_scored,openbind_d68ev3c_c2_elabs_scored_4.5plus,openbind_d68ev3c_c2_elabs,openbind_d68ev3c_c2_elabs_scored_5plus,syndirella_product,openbind_d68ev3c_c2_elabs_scored_top80percent,syndirella_placed

>  <smiles>  (1954) 
O=C1CN(C2CN(C(=O)c3cccc(F)c3C(F)(F)F)C2)CCN1

>  <subsites>  (1954) 
None

>  <rmsd(smina/fragmenstein)>  (1954) 
0.55

>  <alias>  (1954) 
None

>  <energy_score>  (1954) 
-14.94628

>  <HIPPO Pose ID>  (1954) 
138864

>  <distance_score>  (1954) 
0.730282

>  <HIPPO Compound ID>  (1954) 
163195

>  <gnina_score_min>  (1954) 
5.116

>  <name>  (1954) 
P138864

>  <exports>  (1954) 
['/opt/xchem-fragalysis-2/maxwin/BulkDock/OUTPUTS/openbind_d68ev3c_c2_elabs_1LOTQJ3.sdf', '/opt/xchem-fragalysis-2/maxwin/BulkDock/OUTPUTS/openbind_d68ev3c_c2_elabs_1LSYI5W.sdf']

$$$$
P138867
     RDKit          3D

 24 26  0  0  0  0  0  0  0  0999 V2000
   -5.0116    5.1192    6.6934 C   0  0  0  0  0  0  0  0  0  0  0  0
   -3.9270    4.2455    6.0834 C   0  0  0  0  0  0  0  0  0  0  0  0
   -4.4498    2.8783    5.7235 C   0  0  0  0  0  0  0  0  0  0  0  0
   -5.0043    2.6387    4.4721 C   0  0  0  0  0  0  0  0  0  0  0  0
   -5.4997    1.3757    4.1673 C   0  0  0  0  0  0  0  0  0  0  0  0
   -5.4432    0.3079    5.0914 C   0  0  0  0  0  0  0  0  0  0  0  0
   -6.1609   -0.9207    4.6079 C   0  0  0  0  0  0  0  0  0  0  0  0
   -6.1846   -1.0856    3.4447 O   0  0  0  0  0  0  0  0  0  0  0  0
   -6.8221   -1.6920    5.7113 N   0  0  0  0  0  0  0  0  0  0  0  0
   -7.6414   -2.9848    5.6727 C   0  0  2  0  0  0  0  0  0  0  0  0
   -8.5920   -3.2427    4.4692 C   0  0  0  0  0  0  0  0  0  0  0  0
   -9.1922   -2.0011    3.8627 C   0  0  0  0  0  0  0  0  0  0  0  0
   -9.2257   -0.8935    4.8787 C   0  0  0  0  0  0  0  0  0  0  0  0
   -8.2266   -1.1230    6.0300 C   0  0  1  0  0  0  0  0  0  0  0  0
   -8.9465   -1.4307    7.3811 C   0  0  0  0  0  0  0  0  0  0  0  0
   -9.4884   -0.5766    8.0737 O   0  0  0  0  0  0  0  0  0  0  0  0
   -9.0489   -2.7605    7.6531 N   0  0  0  0  0  0  0  0  0  0  0  0
   -8.1220   -3.6149    6.9953 C   0  0  0  0  0  0  0  0  0  0  0  0
   -4.8496    0.5232    6.3437 C   0  0  0  0  0  0  0  0  0  0  0  0
   -4.6191   -0.5415    7.3827 C   0  0  0  0  0  0  0  0  0  0  0  0
   -5.7029   -0.7977    8.1584 F   0  0  0  0  0  0  0  0  0  0  0  0
   -4.1916   -1.7274    6.8721 F   0  0  0  0  0  0  0  0  0  0  0  0
   -3.6308   -0.1743    8.2587 F   0  0  0  0  0  0  0  0  0  0  0  0
   -4.3949    1.8292    6.6499 C   0  0  0  0  0  0  0  0  0  0  0  0
  1  2  1  0
  2  3  1  0
  3  4  2  0
  4  5  1  0
  5  6  2  0
  6  7  1  0
  7  8  2  0
  7  9  1  0
  9 10  1  0
 10 11  1  6
 11 12  1  0
 12 13  1  0
 14 13  1  6
 14 15  1  0
 15 16  2  0
 15 17  1  0
 17 18  1  0
  6 19  1  0
 19 20  1  0
 20 21  1  0
 20 22  1  0
 20 23  1  0
 19 24  2  0
 24  3  1  0
 14  9  1  0
 18 10  1  0
M  END
>  <ref_mols>  (1955) 
7gpj-a

>  <gnina_score>  (1955) 
5.205

>  <smina_score_min>  (1955) 
-5.473

>  <ref_pdb>  (1955) 
7gpj-a

>  <inspiration_score>  (1955) 
None

>  <inchikey>  (1955) 
GMPXVYAUUAAUBZ-RISCZKNCSA-N

>  <tags>  (1955) 
BulkDock Fragalysis export,openbind_d68ev3c_c2_elabs_scored,openbind_d68ev3c_c2_elabs_scored_4.5plus,openbind_d68ev3c_c2_elabs,openbind_d68ev3c_c2_elabs_scored_5plus,syndirella_product,openbind_d68ev3c_c2_elabs_scored_top80percent,syndirella_placed

>  <smiles>  (1955) 
CCc1ccc(C(=O)N2[C@@H]3CCC[C@H]2C(=O)NC3)c(C(F)(F)F)c1

>  <subsites>  (1955) 
None

>  <rmsd(smina/fragmenstein)>  (1955) 
0.682

>  <alias>  (1955) 
None

>  <energy_score>  (1955) 
-36.820318

>  <HIPPO Pose ID>  (1955) 
138867

>  <distance_score>  (1955) 
0.821167

>  <HIPPO Compound ID>  (1955) 
163250

>  <gnina_score_min>  (1955) 
5.2

>  <name>  (1955) 
P138867

>  <exports>  (1955) 
['/opt/xchem-fragalysis-2/maxwin/BulkDock/OUTPUTS/openbind_d68ev3c_c2_elabs_1LOTQJ3.sdf', '/opt/xchem-fragalysis-2/maxwin/BulkDock/OUTPUTS/openbind_d68ev3c_c2_elabs_1LSYI5W.sdf']

$$$$
P138869
     RDKit          3D

 24 26  0  0  0  0  0  0  0  0999 V2000
   -9.5535   -0.5104    7.9781 O   0  0  0  0  0  0  0  0  0  0  0  0
   -9.0297   -1.3779    7.2892 C   0  0  0  0  0  0  0  0  0  0  0  0
   -9.1502   -2.7053    7.5697 N   0  0  0  0  0  0  0  0  0  0  0  0
   -8.1557   -3.5476    7.0008 C   0  0  0  0  0  0  0  0  0  0  0  0
   -7.5948   -2.9391    5.6991 C   0  0  1  0  0  0  0  0  0  0  0  0
   -8.4403   -3.2721    4.4373 C   0  0  0  0  0  0  0  0  0  0  0  0
   -9.0352   -2.0736    3.7472 C   0  0  0  0  0  0  0  0  0  0  0  0
   -9.2279   -0.9654    4.7430 C   0  0  0  0  0  0  0  0  0  0  0  0
   -8.2779   -1.0915    5.9495 C   0  0  2  0  0  0  0  0  0  0  0  0
   -6.8328   -1.6075    5.7528 N   0  0  0  0  0  0  0  0  0  0  0  0
   -6.1243   -0.8422    4.6733 C   0  0  0  0  0  0  0  0  0  0  0  0
   -6.0556   -1.0441    3.5192 O   0  0  0  0  0  0  0  0  0  0  0  0
   -5.5028    0.4199    5.1704 C   0  0  0  0  0  0  0  0  0  0  0  0
   -4.8452    0.6086    6.3996 C   0  0  0  0  0  0  0  0  0  0  0  0
   -4.5500   -0.4934    7.3850 C   0  0  0  0  0  0  0  0  0  0  0  0
   -3.5379   -0.1365    8.2344 F   0  0  0  0  0  0  0  0  0  0  0  0
   -5.6005   -0.7985    8.1871 F   0  0  0  0  0  0  0  0  0  0  0  0
   -4.1230   -1.6479    6.8100 F   0  0  0  0  0  0  0  0  0  0  0  0
   -4.4169    1.9171    6.7346 C   0  0  0  0  0  0  0  0  0  0  0  0
   -4.5978    2.9922    5.8655 C   0  0  0  0  0  0  0  0  0  0  0  0
   -5.2366    2.7849    4.6577 C   0  0  0  0  0  0  0  0  0  0  0  0
   -5.4343    3.8216    3.8326 F   0  0  0  0  0  0  0  0  0  0  0  0
   -5.6955    1.5234    4.3153 C   0  0  0  0  0  0  0  0  0  0  0  0
   -6.3784    1.4075    3.1649 F   0  0  0  0  0  0  0  0  0  0  0  0
  1  2  2  0
  2  3  1  0
  3  4  1  0
  5  4  1  1
  5  6  1  0
  6  7  1  0
  7  8  1  0
  9  8  1  6
  9 10  1  0
 10 11  1  0
 11 12  2  0
 11 13  1  0
 13 14  2  0
 14 15  1  0
 15 16  1  0
 15 17  1  0
 15 18  1  0
 14 19  1  0
 19 20  2  0
 20 21  1  0
 21 22  1  0
 21 23  2  0
 23 24  1  0
  9  2  1  0
 23 13  1  0
 10  5  1  0
M  END
>  <ref_mols>  (1956) 
7gpj-a

>  <gnina_score>  (1956) 
5.167

>  <smina_score_min>  (1956) 
-5.29

>  <ref_pdb>  (1956) 
7gpj-a

>  <inspiration_score>  (1956) 
None

>  <inchikey>  (1956) 
GHFVSRFVZKRFIJ-XCBNKYQSSA-N

>  <tags>  (1956) 
BulkDock Fragalysis export,openbind_d68ev3c_c2_elabs_scored,openbind_d68ev3c_c2_elabs_scored_4.5plus,openbind_d68ev3c_c2_elabs,openbind_d68ev3c_c2_elabs_scored_5plus,syndirella_product,openbind_d68ev3c_c2_elabs_scored_top80percent,syndirella_placed

>  <smiles>  (1956) 
O=C1NC[C@H]2CCC[C@@H]1N2C(=O)c1c(C(F)(F)F)ccc(F)c1F

>  <subsites>  (1956) 
None

>  <rmsd(smina/fragmenstein)>  (1956) 
1.024

>  <alias>  (1956) 
None

>  <energy_score>  (1956) 
-34.552866

>  <HIPPO Pose ID>  (1956) 
138869

>  <distance_score>  (1956) 
0.840642

>  <HIPPO Compound ID>  (1956) 
163263

>  <gnina_score_min>  (1956) 
5.3

>  <name>  (1956) 
P138869

>  <exports>  (1956) 
['/opt/xchem-fragalysis-2/maxwin/BulkDock/OUTPUTS/openbind_d68ev3c_c2_elabs_1LOTQJ3.sdf', '/opt/xchem-fragalysis-2/maxwin/BulkDock/OUTPUTS/openbind_d68ev3c_c2_elabs_1LSYI5W.sdf']

$$$$
P138871
     RDKit          3D

 24 25  0  0  0  0  0  0  0  0999 V2000
  -10.8754    1.0785    8.5919 C   0  0  0  0  0  0  0  0  0  0  0  0
  -10.4057   -0.1693    8.0254 N   0  0  0  0  0  0  0  0  0  0  0  0
   -8.9839   -0.4647    8.1486 C   0  0  0  0  0  0  0  0  0  0  0  0
   -8.6500   -1.9166    7.8309 C   0  0  0  0  0  0  0  0  0  0  0  0
   -9.1375   -2.2019    6.4773 N   0  0  0  0  0  0  0  0  0  0  0  0
   -8.6789   -3.5206    5.9947 C   0  0  0  0  0  0  0  0  0  0  0  0
   -7.1662   -3.5439    5.7039 C   0  0  0  0  0  0  0  0  0  0  0  0
   -6.6425   -2.2060    5.5569 N   0  0  0  0  0  0  0  0  0  0  0  0
   -5.2110   -1.7146    5.4227 C   0  0  0  0  0  0  0  0  0  0  0  0
   -4.2100   -2.2925    5.4839 O   0  0  0  0  0  0  0  0  0  0  0  0
   -5.1783   -0.2423    5.2882 C   0  0  0  0  0  0  0  0  0  0  0  0
   -5.6097    0.3008    4.0702 C   0  0  0  0  0  0  0  0  0  0  0  0
   -5.5655    1.6743    3.8795 C   0  0  0  0  0  0  0  0  0  0  0  0
   -5.0907    2.4899    4.9021 C   0  0  0  0  0  0  0  0  0  0  0  0
   -4.6684    1.9439    6.1250 C   0  0  0  0  0  0  0  0  0  0  0  0
   -4.1113    3.0888    7.2868 Cl  0  0  0  0  0  0  0  0  0  0  0  0
   -4.7022    0.5600    6.3472 C   0  0  0  0  0  0  0  0  0  0  0  0
   -4.3113   -0.0972    7.6495 C   0  0  0  0  0  0  0  0  0  0  0  0
   -5.3844   -0.6716    8.2641 F   0  0  0  0  0  0  0  0  0  0  0  0
   -3.7785    0.7371    8.5801 F   0  0  0  0  0  0  0  0  0  0  0  0
   -3.3769   -1.0753    7.5118 F   0  0  0  0  0  0  0  0  0  0  0  0
  -10.6176   -2.1252    6.4577 C   0  0  0  0  0  0  0  0  0  0  0  0
  -11.1910   -0.8423    7.0936 C   0  0  0  0  0  0  0  0  0  0  0  0
  -12.3381   -0.4748    6.8200 O   0  0  0  0  0  0  0  0  0  0  0  0
  1  2  1  0
  2  3  1  0
  3  4  1  0
  4  5  1  0
  5  6  1  0
  6  7  1  0
  7  8  1  0
  8  9  1  0
  9 10  2  0
  9 11  1  0
 11 12  2  0
 12 13  1  0
 13 14  2  0
 14 15  1  0
 15 16  1  0
 15 17  2  0
 17 18  1  0
 18 19  1  0
 18 20  1  0
 18 21  1  0
  5 22  1  0
 22 23  1  0
 23 24  2  0
 23  2  1  0
 17 11  1  0
M  END
>  <ref_mols>  (1957) 
7gpj-a

>  <gnina_score>  (1957) 
5.073

>  <smina_score_min>  (1957) 
-5.205

>  <ref_pdb>  (1957) 
7gpj-a

>  <inspiration_score>  (1957) 
None

>  <inchikey>  (1957) 
HJHWRUXKROJZQM-UHFFFAOYSA-N

>  <tags>  (1957) 
BulkDock Fragalysis export,openbind_d68ev3c_c2_elabs_scored,openbind_d68ev3c_c2_elabs_scored_4.5plus,openbind_d68ev3c_c2_elabs,openbind_d68ev3c_c2_elabs_scored_5plus,syndirella_product,openbind_d68ev3c_c2_elabs_scored_top80percent,syndirella_placed

>  <smiles>  (1957) 
CN1CCN(CCNC(=O)c2cccc(Cl)c2C(F)(F)F)CC1=O

>  <subsites>  (1957) 
None

>  <rmsd(smina/fragmenstein)>  (1957) 
0.864

>  <alias>  (1957) 
None

>  <energy_score>  (1957) 
-38.146428

>  <HIPPO Pose ID>  (1957) 
138871

>  <distance_score>  (1957) 
0.849227

>  <HIPPO Compound ID>  (1957) 
163287

>  <gnina_score_min>  (1957) 
5.258

>  <name>  (1957) 
P138871

>  <exports>  (1957) 
['/opt/xchem-fragalysis-2/maxwin/BulkDock/OUTPUTS/openbind_d68ev3c_c2_elabs_1LOTQJ3.sdf', '/opt/xchem-fragalysis-2/maxwin/BulkDock/OUTPUTS/openbind_d68ev3c_c2_elabs_1LSYI5W.sdf']

$$$$
P138872
     RDKit          3D

 24 25  0  0  0  0  0  0  0  0999 V2000
   -8.8984   -1.3539    3.1970 C   0  0  0  0  0  0  0  0  0  0  0  0
   -9.3744   -1.1937    4.6502 C   0  0  0  0  0  0  0  0  0  0  0  0
   -9.9951    0.2336    4.7332 C   0  0  0  0  0  0  0  0  0  0  0  0
  -10.5473   -2.1699    4.8707 C   0  0  0  0  0  0  0  0  0  0  0  0
   -8.2518   -1.3176    5.7935 C   0  0  1  0  0  0  0  0  0  0  0  0
   -8.8601   -1.4663    7.2363 C   0  0  0  0  0  0  0  0  0  0  0  0
   -9.3158   -0.5397    7.8955 O   0  0  0  0  0  0  0  0  0  0  0  0
   -8.9389   -2.7615    7.6561 N   0  0  0  0  0  0  0  0  0  0  0  0
   -8.0700   -3.6983    7.0313 C   0  0  0  0  0  0  0  0  0  0  0  0
   -7.5258   -3.1664    5.7076 C   0  0  0  0  0  0  0  0  0  0  0  0
   -6.7793   -1.8582    5.6312 N   0  0  0  0  0  0  0  0  0  0  0  0
   -6.0818   -1.1975    4.4808 C   0  0  0  0  0  0  0  0  0  0  0  0
   -6.0216   -1.5068    3.3489 O   0  0  0  0  0  0  0  0  0  0  0  0
   -5.4479    0.1185    4.8294 C   0  0  0  0  0  0  0  0  0  0  0  0
   -5.5989    1.0615    3.7789 C   0  0  0  0  0  0  0  0  0  0  0  0
   -5.2294    2.3875    3.9193 C   0  0  0  0  0  0  0  0  0  0  0  0
   -4.7173    2.8010    5.1300 C   0  0  0  0  0  0  0  0  0  0  0  0
   -4.5505    1.8848    6.1780 C   0  0  0  0  0  0  0  0  0  0  0  0
   -3.9188    2.5800    7.6159 Cl  0  0  0  0  0  0  0  0  0  0  0  0
   -4.8717    0.5152    6.0505 C   0  0  0  0  0  0  0  0  0  0  0  0
   -4.5828   -0.4504    7.1711 C   0  0  0  0  0  0  0  0  0  0  0  0
   -5.6163   -0.5978    8.0409 F   0  0  0  0  0  0  0  0  0  0  0  0
   -4.2529   -1.7006    6.7378 F   0  0  0  0  0  0  0  0  0  0  0  0
   -3.5075   -0.0941    7.9373 F   0  0  0  0  0  0  0  0  0  0  0  0
  1  2  1  0
  2  3  1  0
  2  4  1  0
  5  2  1  6
  5  6  1  0
  6  7  2  0
  6  8  1  0
  8  9  1  0
  9 10  1  0
 10 11  1  0
 11 12  1  0
 12 13  2  0
 12 14  1  0
 14 15  2  0
 15 16  1  0
 16 17  2  0
 17 18  1  0
 18 19  1  0
 18 20  2  0
 20 21  1  0
 21 22  1  0
 21 23  1  0
 21 24  1  0
 11  5  1  0
 20 14  1  0
M  END
>  <ref_mols>  (1958) 
7gpj-a

>  <gnina_score>  (1958) 
5.317

>  <smina_score_min>  (1958) 
-5.448

>  <ref_pdb>  (1958) 
7gpj-a

>  <inspiration_score>  (1958) 
None

>  <inchikey>  (1958) 
PMHBOWNFBUHUSQ-GFCCVEGCSA-N

>  <tags>  (1958) 
BulkDock Fragalysis export,openbind_d68ev3c_c2_elabs_scored,openbind_d68ev3c_c2_elabs_scored_4.5plus,openbind_d68ev3c_c2_elabs,openbind_d68ev3c_c2_elabs_scored_5plus,syndirella_product,openbind_d68ev3c_c2_elabs_scored_top80percent,syndirella_placed

>  <smiles>  (1958) 
CC(C)(C)[C@H]1C(=O)NCCN1C(=O)c1cccc(Cl)c1C(F)(F)F

>  <subsites>  (1958) 
None

>  <rmsd(smina/fragmenstein)>  (1958) 
0.604

>  <alias>  (1958) 
None

>  <energy_score>  (1958) 
-11.994247

>  <HIPPO Pose ID>  (1958) 
138872

>  <distance_score>  (1958) 
0.754022

>  <HIPPO Compound ID>  (1958) 
163297

>  <gnina_score_min>  (1958) 
5.268

>  <name>  (1958) 
P138872

>  <exports>  (1958) 
['/opt/xchem-fragalysis-2/maxwin/BulkDock/OUTPUTS/openbind_d68ev3c_c2_elabs_1LOTQJ3.sdf', '/opt/xchem-fragalysis-2/maxwin/BulkDock/OUTPUTS/openbind_d68ev3c_c2_elabs_1LSYI5W.sdf']

$$$$
P138873
     RDKit          3D

 24 26  0  0  0  0  0  0  0  0999 V2000
   -8.7066   -0.1830    9.2550 O   0  0  0  0  0  0  0  0  0  0  0  0
   -9.4975   -0.4587    8.3601 C   0  0  0  0  0  0  0  0  0  0  0  0
   -9.1355   -0.4597    6.8813 C   0  0  0  0  0  0  0  0  0  0  0  0
   -9.6514   -1.6294    6.1486 N   0  0  0  0  0  0  0  0  0  0  0  0
   -8.7815   -2.7670    5.7848 C   0  0  0  0  0  0  0  0  0  0  0  0
   -7.7089   -2.3186    4.8363 C   0  0  0  0  0  0  0  0  0  0  0  0
   -6.8067   -1.9439    6.0618 N   0  0  0  0  0  0  0  0  0  0  0  0
   -5.3682   -1.8522    5.6736 C   0  0  0  0  0  0  0  0  0  0  0  0
   -4.5308   -2.6728    5.6646 O   0  0  0  0  0  0  0  0  0  0  0  0
   -5.0732   -0.4306    5.3628 C   0  0  0  0  0  0  0  0  0  0  0  0
   -5.3480    0.0381    4.0711 C   0  0  0  0  0  0  0  0  0  0  0  0
   -5.2255    1.3932    3.7899 C   0  0  0  0  0  0  0  0  0  0  0  0
   -4.8431    2.2696    4.8009 C   0  0  0  0  0  0  0  0  0  0  0  0
   -4.5665    1.7987    6.0937 C   0  0  0  0  0  0  0  0  0  0  0  0
   -4.1288    3.0058    7.2444 Cl  0  0  0  0  0  0  0  0  0  0  0  0
   -4.6504    0.4322    6.3953 C   0  0  0  0  0  0  0  0  0  0  0  0
   -4.3404   -0.1488    7.7518 C   0  0  0  0  0  0  0  0  0  0  0  0
   -5.4576   -0.4957    8.4397 F   0  0  0  0  0  0  0  0  0  0  0  0
   -3.5703   -1.2703    7.6764 F   0  0  0  0  0  0  0  0  0  0  0  0
   -3.6359    0.6737    8.5715 F   0  0  0  0  0  0  0  0  0  0  0  0
   -7.5994   -3.0897    6.6552 C   0  0  0  0  0  0  0  0  0  0  0  0
  -10.9740   -2.0939    6.5912 C   0  0  0  0  0  0  0  0  0  0  0  0
  -11.6938   -1.1279    7.5449 C   0  0  0  0  0  0  0  0  0  0  0  0
  -10.8256   -0.7023    8.6205 N   0  0  0  0  0  0  0  0  0  0  0  0
  1  2  2  0
  2  3  1  0
  3  4  1  0
  4  5  1  0
  5  6  1  0
  6  7  1  0
  7  8  1  0
  8  9  2  0
  8 10  1  0
 10 11  2  0
 11 12  1  0
 12 13  2  0
 13 14  1  0
 14 15  1  0
 14 16  2  0
 16 17  1  0
 17 18  1  0
 17 19  1  0
 17 20  1  0
  7 21  1  0
  4 22  1  0
 22 23  1  0
 23 24  1  0
 24  2  1  0
 21  5  1  0
 16 10  1  0
M  END
>  <ref_mols>  (1959) 
7gpj-a

>  <gnina_score>  (1959) 
5.138

>  <smina_score_min>  (1959) 
-6.22

>  <ref_pdb>  (1959) 
7gpj-a

>  <inspiration_score>  (1959) 
None

>  <inchikey>  (1959) 
RDMSCMLLXWQUII-UHFFFAOYSA-N

>  <tags>  (1959) 
BulkDock Fragalysis export,openbind_d68ev3c_c2_elabs_scored,openbind_d68ev3c_c2_elabs_scored_4.5plus,openbind_d68ev3c_c2_elabs,openbind_d68ev3c_c2_elabs_scored_5plus,syndirella_product,openbind_d68ev3c_c2_elabs_scored_top80percent,syndirella_placed

>  <smiles>  (1959) 
O=C1CN(C2CN(C(=O)c3cccc(Cl)c3C(F)(F)F)C2)CCN1

>  <subsites>  (1959) 
None

>  <rmsd(smina/fragmenstein)>  (1959) 
0.47

>  <alias>  (1959) 
None

>  <energy_score>  (1959) 
-11.50241

>  <HIPPO Pose ID>  (1959) 
138873

>  <distance_score>  (1959) 
0.976574

>  <HIPPO Compound ID>  (1959) 
163309

>  <gnina_score_min>  (1959) 
5.067

>  <name>  (1959) 
P138873

>  <exports>  (1959) 
['/opt/xchem-fragalysis-2/maxwin/BulkDock/OUTPUTS/openbind_d68ev3c_c2_elabs_1LOTQJ3.sdf', '/opt/xchem-fragalysis-2/maxwin/BulkDock/OUTPUTS/openbind_d68ev3c_c2_elabs_1LSYI5W.sdf']

$$$$
P138876
     RDKit          3D

 24 26  0  0  0  0  0  0  0  0999 V2000
   -4.2371    2.9409    7.1980 C   0  0  0  0  0  0  0  0  0  0  0  0
   -4.6454    1.9263    6.1657 C   0  0  0  0  0  0  0  0  0  0  0  0
   -4.9664    2.4073    4.8820 C   0  0  0  0  0  0  0  0  0  0  0  0
   -5.3634    1.5430    3.8678 C   0  0  0  0  0  0  0  0  0  0  0  0
   -5.4527    0.1825    4.1255 C   0  0  0  0  0  0  0  0  0  0  0  0
   -5.1481   -0.3090    5.4029 C   0  0  0  0  0  0  0  0  0  0  0  0
   -5.2828   -1.7696    5.6035 C   0  0  0  0  0  0  0  0  0  0  0  0
   -4.4371   -2.4788    5.2118 O   0  0  0  0  0  0  0  0  0  0  0  0
   -6.5979   -2.0893    6.2247 N   0  0  0  0  0  0  0  0  0  0  0  0
   -7.7214   -2.2219    5.1501 C   0  0  0  0  0  0  0  0  0  0  0  0
   -8.5591   -2.9302    6.1935 C   0  0  0  0  0  0  0  0  0  0  0  0
   -9.2462   -2.0562    7.1878 N   0  0  0  0  0  0  0  0  0  0  0  0
  -10.4635   -1.5132    6.5857 C   0  0  0  0  0  0  0  0  0  0  0  0
  -11.3075   -0.7726    7.6246 C   0  0  0  0  0  0  0  0  0  0  0  0
  -10.5690    0.2082    8.3752 N   0  0  0  0  0  0  0  0  0  0  0  0
   -9.2677   -0.0404    8.7244 C   0  0  0  0  0  0  0  0  0  0  0  0
   -8.7639    0.5921    9.6513 O   0  0  0  0  0  0  0  0  0  0  0  0
   -8.4557   -0.9724    7.8204 C   0  0  0  0  0  0  0  0  0  0  0  0
   -7.2028   -3.4182    6.6324 C   0  0  0  0  0  0  0  0  0  0  0  0
   -4.7175    0.5369    6.4380 C   0  0  0  0  0  0  0  0  0  0  0  0
   -4.3584   -0.0812    7.7709 C   0  0  0  0  0  0  0  0  0  0  0  0
   -5.4496   -0.3893    8.5162 F   0  0  0  0  0  0  0  0  0  0  0  0
   -3.5901    0.7227    8.5524 F   0  0  0  0  0  0  0  0  0  0  0  0
   -3.6341   -1.2290    7.6513 F   0  0  0  0  0  0  0  0  0  0  0  0
  1  2  1  0
  2  3  2  0
  3  4  1  0
  4  5  2  0
  5  6  1  0
  6  7  1  0
  7  8  2  0
  7  9  1  0
  9 10  1  0
 10 11  1  0
 11 12  1  0
 12 13  1  0
 13 14  1  0
 14 15  1  0
 15 16  1  0
 16 17  2  0
 16 18  1  0
 11 19  1  0
  6 20  2  0
 20 21  1  0
 21 22  1  0
 21 23  1  0
 21 24  1  0
 20  2  1  0
 19  9  1  0
 18 12  1  0
M  END
>  <ref_mols>  (1960) 
7gpj-a

>  <gnina_score>  (1960) 
5.137

>  <smina_score_min>  (1960) 
-5.577

>  <ref_pdb>  (1960) 
7gpj-a

>  <inspiration_score>  (1960) 
None

>  <inchikey>  (1960) 
METGHVUNEVMPJR-UHFFFAOYSA-N

>  <tags>  (1960) 
BulkDock Fragalysis export,openbind_d68ev3c_c2_elabs_scored,openbind_d68ev3c_c2_elabs_scored_4.5plus,openbind_d68ev3c_c2_elabs,openbind_d68ev3c_c2_elabs_scored_5plus,syndirella_product,openbind_d68ev3c_c2_elabs_scored_top80percent,syndirella_placed

>  <smiles>  (1960) 
Cc1cccc(C(=O)N2CC(N3CCNC(=O)C3)C2)c1C(F)(F)F

>  <subsites>  (1960) 
None

>  <rmsd(smina/fragmenstein)>  (1960) 
1.227

>  <alias>  (1960) 
None

>  <energy_score>  (1960) 
-16.864555

>  <HIPPO Pose ID>  (1960) 
138876

>  <distance_score>  (1960) 
1.019161

>  <HIPPO Compound ID>  (1960) 
163342

>  <gnina_score_min>  (1960) 
5.065

>  <name>  (1960) 
P138876

>  <exports>  (1960) 
['/opt/xchem-fragalysis-2/maxwin/BulkDock/OUTPUTS/openbind_d68ev3c_c2_elabs_1LOTQJ3.sdf', '/opt/xchem-fragalysis-2/maxwin/BulkDock/OUTPUTS/openbind_d68ev3c_c2_elabs_1LSYI5W.sdf']

$$$$
P138879
     RDKit          3D

 24 25  0  0  0  0  0  0  0  0999 V2000
   -7.6567    1.7919    8.5076 O   0  0  0  0  0  0  0  0  0  0  0  0
   -8.3955    1.0679    7.8448 C   0  0  0  0  0  0  0  0  0  0  0  0
   -8.6984   -0.3923    8.2116 C   0  0  0  0  0  0  0  0  0  0  0  0
   -8.7748   -1.2324    6.9936 N   0  0  0  0  0  0  0  0  0  0  0  0
   -9.0329   -2.6444    7.3431 C   0  0  0  0  0  0  0  0  0  0  0  0
   -8.4758   -3.6098    6.2857 C   0  0  0  0  0  0  0  0  0  0  0  0
   -6.9597   -3.5370    6.1263 C   0  0  0  0  0  0  0  0  0  0  0  0
   -6.4988   -2.1861    5.9781 N   0  0  0  0  0  0  0  0  0  0  0  0
   -5.1553   -1.6453    5.5182 C   0  0  0  0  0  0  0  0  0  0  0  0
   -4.1730   -2.1988    5.2557 O   0  0  0  0  0  0  0  0  0  0  0  0
   -5.1745   -0.1737    5.4699 C   0  0  0  0  0  0  0  0  0  0  0  0
   -5.5701    0.4889    4.3029 C   0  0  0  0  0  0  0  0  0  0  0  0
   -6.1161   -0.3566    2.9001 Cl  0  0  0  0  0  0  0  0  0  0  0  0
   -5.5354    1.8835    4.2561 C   0  0  0  0  0  0  0  0  0  0  0  0
   -5.1126    2.6090    5.3692 C   0  0  0  0  0  0  0  0  0  0  0  0
   -4.7255    1.9431    6.5333 C   0  0  0  0  0  0  0  0  0  0  0  0
   -4.7402    0.5395    6.5966 C   0  0  0  0  0  0  0  0  0  0  0  0
   -4.3173   -0.1786    7.8520 C   0  0  0  0  0  0  0  0  0  0  0  0
   -5.3657   -0.7155    8.5257 F   0  0  0  0  0  0  0  0  0  0  0  0
   -3.6908    0.6521    8.7281 F   0  0  0  0  0  0  0  0  0  0  0  0
   -3.4330   -1.1875    7.6351 F   0  0  0  0  0  0  0  0  0  0  0  0
   -9.8217   -0.7009    6.1063 C   0  0  0  0  0  0  0  0  0  0  0  0
   -9.4609    0.7209    5.6587 C   0  0  0  0  0  0  0  0  0  0  0  0
   -9.0466    1.5820    6.7471 N   0  0  0  0  0  0  0  0  0  0  0  0
  1  2  2  0
  2  3  1  0
  3  4  1  0
  4  5  1  0
  5  6  1  0
  6  7  1  0
  7  8  1  0
  8  9  1  0
  9 10  2  0
  9 11  1  0
 11 12  2  0
 12 13  1  0
 12 14  1  0
 14 15  2  0
 15 16  1  0
 16 17  2  0
 17 18  1  0
 18 19  1  0
 18 20  1  0
 18 21  1  0
  4 22  1  0
 22 23  1  0
 23 24  1  0
 24  2  1  0
 17 11  1  0
M  END
>  <ref_mols>  (1961) 
7gpj-a

>  <gnina_score>  (1961) 
4.921

>  <smina_score_min>  (1961) 
-4.52

>  <ref_pdb>  (1961) 
7gpj-a

>  <inspiration_score>  (1961) 
None

>  <inchikey>  (1961) 
FFMRPSYYOFZRQE-UHFFFAOYSA-N

>  <tags>  (1961) 
BulkDock Fragalysis export,openbind_d68ev3c_c2_elabs_scored,openbind_d68ev3c_c2_elabs_scored_4.5plus,openbind_d68ev3c_c2_elabs,openbind_d68ev3c_c2_elabs_scored_5plus,syndirella_product,openbind_d68ev3c_c2_elabs_scored_top80percent,syndirella_placed

>  <smiles>  (1961) 
O=C1CN(CCCNC(=O)c2c(Cl)cccc2C(F)(F)F)CCN1

>  <subsites>  (1961) 
None

>  <rmsd(smina/fragmenstein)>  (1961) 
0.579

>  <alias>  (1961) 
None

>  <energy_score>  (1961) 
-36.594635

>  <HIPPO Pose ID>  (1961) 
138879

>  <distance_score>  (1961) 
0.647707

>  <HIPPO Compound ID>  (1961) 
163347

>  <gnina_score_min>  (1961) 
5.023

>  <name>  (1961) 
P138879

>  <exports>  (1961) 
['/opt/xchem-fragalysis-2/maxwin/BulkDock/OUTPUTS/openbind_d68ev3c_c2_elabs_1LOTQJ3.sdf', '/opt/xchem-fragalysis-2/maxwin/BulkDock/OUTPUTS/openbind_d68ev3c_c2_elabs_1LSYI5W.sdf']

$$$$
P138880
     RDKit          3D

 24 25  0  0  0  0  0  0  0  0999 V2000
  -12.1044   -0.7017    8.4127 C   0  0  0  0  0  0  0  0  0  0  0  0
  -10.6378   -0.5085    8.7734 C   0  0  0  0  0  0  0  0  0  0  0  0
   -9.7448   -0.7950    7.6560 N   0  0  0  0  0  0  0  0  0  0  0  0
   -8.6654   -1.7173    7.8405 C   0  0  0  0  0  0  0  0  0  0  0  0
   -7.9160   -1.9302    6.5360 C   0  0  0  0  0  0  0  0  0  0  0  0
   -7.0455   -0.8047    6.0876 N   0  0  0  0  0  0  0  0  0  0  0  0
   -6.0728   -0.7400    5.0493 C   0  0  0  0  0  0  0  0  0  0  0  0
   -5.7703   -1.5441    4.2133 O   0  0  0  0  0  0  0  0  0  0  0  0
   -5.2646    0.5227    5.1299 C   0  0  0  0  0  0  0  0  0  0  0  0
   -5.0040    1.2819    3.9733 C   0  0  0  0  0  0  0  0  0  0  0  0
   -5.4043    0.7670    2.3695 Cl  0  0  0  0  0  0  0  0  0  0  0  0
   -4.4220    2.5486    4.0850 C   0  0  0  0  0  0  0  0  0  0  0  0
   -4.0770    3.0608    5.3322 C   0  0  0  0  0  0  0  0  0  0  0  0
   -4.2536    2.2826    6.4721 C   0  0  0  0  0  0  0  0  0  0  0  0
   -4.8002    0.9866    6.3841 C   0  0  0  0  0  0  0  0  0  0  0  0
   -4.8012    0.1261    7.6282 C   0  0  0  0  0  0  0  0  0  0  0  0
   -5.9389    0.2210    8.3646 F   0  0  0  0  0  0  0  0  0  0  0  0
   -3.7964    0.4926    8.4820 F   0  0  0  0  0  0  0  0  0  0  0  0
   -4.5791   -1.1957    7.3920 F   0  0  0  0  0  0  0  0  0  0  0  0
   -8.5007   -0.2084    5.5505 C   0  0  0  0  0  0  0  0  0  0  0  0
   -9.1493   -0.9260    4.3206 C   0  0  0  0  0  0  0  0  0  0  0  0
   -8.2137    1.2403    5.0075 C   0  0  0  0  0  0  0  0  0  0  0  0
   -9.6177    0.1127    6.6330 C   0  0  0  0  0  0  0  0  0  0  0  0
  -10.4093    1.0486    6.5176 O   0  0  0  0  0  0  0  0  0  0  0  0
  1  2  1  0
  2  3  1  0
  3  4  1  0
  4  5  1  0
  5  6  1  0
  6  7  1  0
  7  8  2  0
  7  9  1  0
  9 10  2  0
 10 11  1  0
 10 12  1  0
 12 13  2  0
 13 14  1  0
 14 15  2  0
 15 16  1  0
 16 17  1  0
 16 18  1  0
 16 19  1  0
  6 20  1  0
 20 21  1  0
 20 22  1  0
 20 23  1  0
 23 24  2  0
 23  3  1  0
 15  9  1  0
M  END
>  <ref_mols>  (1962) 
7gpj-a

>  <gnina_score>  (1962) 
5.304

>  <smina_score_min>  (1962) 
-4.822

>  <ref_pdb>  (1962) 
7gpj-a

>  <inspiration_score>  (1962) 
None

>  <inchikey>  (1962) 
OHPDLDJQYNDSJM-UHFFFAOYSA-N

>  <tags>  (1962) 
BulkDock Fragalysis export,openbind_d68ev3c_c2_elabs_scored,openbind_d68ev3c_c2_elabs_scored_4.5plus,openbind_d68ev3c_c2_elabs,openbind_d68ev3c_c2_elabs_scored_5plus,syndirella_product,openbind_d68ev3c_c2_elabs_scored_top80percent,syndirella_placed

>  <smiles>  (1962) 
CCN1CCN(C(=O)c2c(Cl)cccc2C(F)(F)F)C(C)(C)C1=O

>  <subsites>  (1962) 
None

>  <rmsd(smina/fragmenstein)>  (1962) 
0.908

>  <alias>  (1962) 
None

>  <energy_score>  (1962) 
-0.320355

>  <HIPPO Pose ID>  (1962) 
138880

>  <distance_score>  (1962) 
1.524962

>  <HIPPO Compound ID>  (1962) 
163348

>  <gnina_score_min>  (1962) 
5.271

>  <name>  (1962) 
P138880

>  <exports>  (1962) 
['/opt/xchem-fragalysis-2/maxwin/BulkDock/OUTPUTS/openbind_d68ev3c_c2_elabs_1LOTQJ3.sdf', '/opt/xchem-fragalysis-2/maxwin/BulkDock/OUTPUTS/openbind_d68ev3c_c2_elabs_1LSYI5W.sdf']

$$$$
P138882
     RDKit          3D

 24 25  0  0  0  0  0  0  0  0999 V2000
   -9.8594   -0.7187    8.6679 C   0  0  0  0  0  0  0  0  0  0  0  0
   -8.9790   -1.2689    7.5434 C   0  0  2  0  0  0  0  0  0  0  0  0
   -8.9861   -0.2186    6.4248 C   0  0  0  0  0  0  0  0  0  0  0  0
   -8.1752    0.7069    6.3910 O   0  0  0  0  0  0  0  0  0  0  0  0
  -10.0192   -0.2732    5.5204 N   0  0  0  0  0  0  0  0  0  0  0  0
  -10.7808   -1.4890    5.2748 C   0  0  0  0  0  0  0  0  0  0  0  0
  -10.6934   -2.5337    6.4040 C   0  0  0  0  0  0  0  0  0  0  0  0
   -9.3577   -2.6102    7.0426 N   0  0  0  0  0  0  0  0  0  0  0  0
   -8.4086   -3.2547    6.1024 C   0  0  0  0  0  0  0  0  0  0  0  0
   -6.9013   -3.1860    6.3926 C   0  0  0  0  0  0  0  0  0  0  0  0
   -6.3661   -1.8568    6.2208 N   0  0  0  0  0  0  0  0  0  0  0  0
   -5.7035   -1.2021    5.0098 C   0  0  0  0  0  0  0  0  0  0  0  0
   -5.4113   -1.6483    3.9793 O   0  0  0  0  0  0  0  0  0  0  0  0
   -5.4213    0.2471    5.2370 C   0  0  0  0  0  0  0  0  0  0  0  0
   -5.8442    1.1662    4.2543 C   0  0  0  0  0  0  0  0  0  0  0  0
   -6.7943    0.7272    2.8712 Cl  0  0  0  0  0  0  0  0  0  0  0  0
   -5.5522    2.5257    4.3880 C   0  0  0  0  0  0  0  0  0  0  0  0
   -4.8623    2.9882    5.5021 C   0  0  0  0  0  0  0  0  0  0  0  0
   -4.4660    2.0937    6.4925 C   0  0  0  0  0  0  0  0  0  0  0  0
   -4.7212    0.7117    6.3730 C   0  0  0  0  0  0  0  0  0  0  0  0
   -4.2500   -0.1991    7.4771 C   0  0  0  0  0  0  0  0  0  0  0  0
   -5.2756   -0.6275    8.2637 F   0  0  0  0  0  0  0  0  0  0  0  0
   -3.6052   -1.3099    7.0332 F   0  0  0  0  0  0  0  0  0  0  0  0
   -3.3743    0.4096    8.3235 F   0  0  0  0  0  0  0  0  0  0  0  0
  2  1  1  1
  2  3  1  0
  3  4  2  0
  3  5  1  0
  5  6  1  0
  6  7  1  0
  7  8  1  0
  8  9  1  0
  9 10  1  0
 10 11  1  0
 11 12  1  0
 12 13  2  0
 12 14  1  0
 14 15  2  0
 15 16  1  0
 15 17  1  0
 17 18  2  0
 18 19  1  0
 19 20  2  0
 20 21  1  0
 21 22  1  0
 21 23  1  0
 21 24  1  0
  8  2  1  0
 20 14  1  0
M  END
>  <ref_mols>  (1963) 
7gpj-a

>  <gnina_score>  (1963) 
5.245

>  <smina_score_min>  (1963) 
-4.339

>  <ref_pdb>  (1963) 
7gpj-a

>  <inspiration_score>  (1963) 
None

>  <inchikey>  (1963) 
PFYLUAVJQHFQFD-SECBINFHSA-N

>  <tags>  (1963) 
BulkDock Fragalysis export,openbind_d68ev3c_c2_elabs_scored,openbind_d68ev3c_c2_elabs_scored_4.5plus,openbind_d68ev3c_c2_elabs,openbind_d68ev3c_c2_elabs_scored_5plus,syndirella_product,openbind_d68ev3c_c2_elabs_scored_top80percent,syndirella_placed

>  <smiles>  (1963) 
C[C@@H]1C(=O)NCCN1CCNC(=O)c1c(Cl)cccc1C(F)(F)F

>  <subsites>  (1963) 
None

>  <rmsd(smina/fragmenstein)>  (1963) 
1.546

>  <alias>  (1963) 
None

>  <energy_score>  (1963) 
-21.270841

>  <HIPPO Pose ID>  (1963) 
138882

>  <distance_score>  (1963) 
0.699527

>  <HIPPO Compound ID>  (1963) 
163366

>  <gnina_score_min>  (1963) 
5.071

>  <name>  (1963) 
P138882

>  <exports>  (1963) 
['/opt/xchem-fragalysis-2/maxwin/BulkDock/OUTPUTS/openbind_d68ev3c_c2_elabs_1LOTQJ3.sdf', '/opt/xchem-fragalysis-2/maxwin/BulkDock/OUTPUTS/openbind_d68ev3c_c2_elabs_1LSYI5W.sdf']

$$$$
P138884
     RDKit          3D

 24 26  0  0  0  0  0  0  0  0999 V2000
   -9.7157    0.0757    9.4839 O   0  0  0  0  0  0  0  0  0  0  0  0
   -9.9885   -0.5352    8.4503 C   0  0  0  0  0  0  0  0  0  0  0  0
   -8.9310   -1.2792    7.6233 C   0  0  0  0  0  0  0  0  0  0  0  0
   -9.4955   -2.3815    6.8178 N   0  0  0  0  0  0  0  0  0  0  0  0
   -8.5765   -3.1384    5.9382 C   0  0  0  0  0  0  0  0  0  0  0  0
   -7.2322   -3.4484    6.5296 C   0  0  0  0  0  0  0  0  0  0  0  0
   -6.6982   -2.0839    6.1210 N   0  0  0  0  0  0  0  0  0  0  0  0
   -5.3675   -1.6822    5.5639 C   0  0  0  0  0  0  0  0  0  0  0  0
   -4.4511   -2.3389    5.2384 O   0  0  0  0  0  0  0  0  0  0  0  0
   -5.2467   -0.2119    5.4897 C   0  0  0  0  0  0  0  0  0  0  0  0
   -5.5115    0.4683    4.2933 C   0  0  0  0  0  0  0  0  0  0  0  0
   -5.9714   -0.3397    2.8377 Cl  0  0  0  0  0  0  0  0  0  0  0  0
   -5.3752    1.8579    4.2389 C   0  0  0  0  0  0  0  0  0  0  0  0
   -4.9614    2.5661    5.3651 C   0  0  0  0  0  0  0  0  0  0  0  0
   -4.6675    1.8855    6.5460 C   0  0  0  0  0  0  0  0  0  0  0  0
   -4.7866    0.4855    6.6183 C   0  0  0  0  0  0  0  0  0  0  0  0
   -4.4090   -0.2439    7.8806 C   0  0  0  0  0  0  0  0  0  0  0  0
   -3.6053   -1.3183    7.6689 F   0  0  0  0  0  0  0  0  0  0  0  0
   -5.4895   -0.6847    8.5701 F   0  0  0  0  0  0  0  0  0  0  0  0
   -3.7140    0.5543    8.7367 F   0  0  0  0  0  0  0  0  0  0  0  0
   -7.7469   -2.3201    4.9857 C   0  0  0  0  0  0  0  0  0  0  0  0
  -10.6504   -1.9142    6.0377 C   0  0  0  0  0  0  0  0  0  0  0  0
  -11.7475   -1.3929    6.9656 C   0  0  0  0  0  0  0  0  0  0  0  0
  -11.2536   -0.4244    7.9205 N   0  0  0  0  0  0  0  0  0  0  0  0
  1  2  2  0
  2  3  1  0
  3  4  1  0
  4  5  1  0
  5  6  1  0
  6  7  1  0
  7  8  1  0
  8  9  2  0
  8 10  1  0
 10 11  2  0
 11 12  1  0
 11 13  1  0
 13 14  2  0
 14 15  1  0
 15 16  2  0
 16 17  1  0
 17 18  1  0
 17 19  1  0
 17 20  1  0
  7 21  1  0
  4 22  1  0
 22 23  1  0
 23 24  1  0
 24  2  1  0
 21  5  1  0
 16 10  1  0
M  END
>  <ref_mols>  (1964) 
7gpj-a

>  <gnina_score>  (1964) 
5.224

>  <smina_score_min>  (1964) 
-5.57

>  <ref_pdb>  (1964) 
7gpj-a

>  <inspiration_score>  (1964) 
None

>  <inchikey>  (1964) 
RYISIZJTGHNMRL-UHFFFAOYSA-N

>  <tags>  (1964) 
BulkDock Fragalysis export,openbind_d68ev3c_c2_elabs_scored,openbind_d68ev3c_c2_elabs_scored_4.5plus,openbind_d68ev3c_c2_elabs,openbind_d68ev3c_c2_elabs_scored_5plus,syndirella_product,openbind_d68ev3c_c2_elabs_scored_top80percent,syndirella_placed

>  <smiles>  (1964) 
O=C1CN(C2CN(C(=O)c3c(Cl)cccc3C(F)(F)F)C2)CCN1

>  <subsites>  (1964) 
None

>  <rmsd(smina/fragmenstein)>  (1964) 
0.448

>  <alias>  (1964) 
None

>  <energy_score>  (1964) 
-7.923133

>  <HIPPO Pose ID>  (1964) 
138884

>  <distance_score>  (1964) 
0.721971

>  <HIPPO Compound ID>  (1964) 
163367

>  <gnina_score_min>  (1964) 
5.204

>  <name>  (1964) 
P138884

>  <exports>  (1964) 
['/opt/xchem-fragalysis-2/maxwin/BulkDock/OUTPUTS/openbind_d68ev3c_c2_elabs_1LOTQJ3.sdf', '/opt/xchem-fragalysis-2/maxwin/BulkDock/OUTPUTS/openbind_d68ev3c_c2_elabs_1LSYI5W.sdf']

$$$$
P138886
     RDKit          3D

 24 25  0  0  0  0  0  0  0  0999 V2000
   -4.1910    2.9789    7.1681 C   0  0  0  0  0  0  0  0  0  0  0  0
   -4.6863    1.9659    6.1732 C   0  0  0  0  0  0  0  0  0  0  0  0
   -5.1591    2.4540    4.9395 C   0  0  0  0  0  0  0  0  0  0  0  0
   -5.6510    1.5938    3.9622 C   0  0  0  0  0  0  0  0  0  0  0  0
   -5.6619    0.2263    4.1947 C   0  0  0  0  0  0  0  0  0  0  0  0
   -5.1909   -0.2697    5.4152 C   0  0  0  0  0  0  0  0  0  0  0  0
   -5.1839   -1.7367    5.5838 C   0  0  0  0  0  0  0  0  0  0  0  0
   -4.2219   -2.3299    5.3355 O   0  0  0  0  0  0  0  0  0  0  0  0
   -6.5397   -2.2171    6.0668 N   0  0  0  0  0  0  0  0  0  0  0  0
   -7.0428   -3.5452    6.2619 C   0  0  0  0  0  0  0  0  0  0  0  0
   -8.5649   -3.5687    6.2919 C   0  0  0  0  0  0  0  0  0  0  0  0
   -9.1756   -2.5912    7.3093 C   0  0  0  0  0  0  0  0  0  0  0  0
   -8.8269   -1.1688    7.0809 N   0  0  0  0  0  0  0  0  0  0  0  0
   -9.2093   -0.3606    8.2543 C   0  0  0  0  0  0  0  0  0  0  0  0
   -8.7214    1.0798    8.0636 C   0  0  0  0  0  0  0  0  0  0  0  0
   -9.1245    1.6482    6.7947 N   0  0  0  0  0  0  0  0  0  0  0  0
   -9.2718    0.8688    5.6742 C   0  0  0  0  0  0  0  0  0  0  0  0
   -9.2852    1.3937    4.5613 O   0  0  0  0  0  0  0  0  0  0  0  0
   -9.5223   -0.6334    5.8820 C   0  0  0  0  0  0  0  0  0  0  0  0
   -4.7109    0.5734    6.4322 C   0  0  0  0  0  0  0  0  0  0  0  0
   -4.3057   -0.0573    7.7471 C   0  0  0  0  0  0  0  0  0  0  0  0
   -3.4714   -1.1222    7.6167 F   0  0  0  0  0  0  0  0  0  0  0  0
   -3.6518    0.7922    8.5827 F   0  0  0  0  0  0  0  0  0  0  0  0
   -5.3851   -0.4931    8.4545 F   0  0  0  0  0  0  0  0  0  0  0  0
  1  2  1  0
  2  3  2  0
  3  4  1  0
  4  5  2  0
  5  6  1  0
  6  7  1  0
  7  8  2  0
  7  9  1  0
  9 10  1  0
 10 11  1  0
 11 12  1  0
 12 13  1  0
 13 14  1  0
 14 15  1  0
 15 16  1  0
 16 17  1  0
 17 18  2  0
 17 19  1  0
  6 20  2  0
 20 21  1  0
 21 22  1  0
 21 23  1  0
 21 24  1  0
 20  2  1  0
 19 13  1  0
M  END
>  <ref_mols>  (1965) 
7gpj-a

>  <gnina_score>  (1965) 
4.861

>  <smina_score_min>  (1965) 
-4.795

>  <ref_pdb>  (1965) 
7gpj-a

>  <inspiration_score>  (1965) 
None

>  <inchikey>  (1965) 
HMJQYZJMEKCVPR-UHFFFAOYSA-N

>  <tags>  (1965) 
BulkDock Fragalysis export,openbind_d68ev3c_c2_elabs_scored,openbind_d68ev3c_c2_elabs_scored_4.5plus,openbind_d68ev3c_c2_elabs,openbind_d68ev3c_c2_elabs_scored_5plus,syndirella_product,openbind_d68ev3c_c2_elabs_scored_top80percent,syndirella_placed

>  <smiles>  (1965) 
Cc1cccc(C(=O)NCCCN2CCNC(=O)C2)c1C(F)(F)F

>  <subsites>  (1965) 
None

>  <rmsd(smina/fragmenstein)>  (1965) 
0.695

>  <alias>  (1965) 
None

>  <energy_score>  (1965) 
-35.426526

>  <HIPPO Pose ID>  (1965) 
138886

>  <distance_score>  (1965) 
0.635048

>  <HIPPO Compound ID>  (1965) 
163404

>  <gnina_score_min>  (1965) 
5.001

>  <name>  (1965) 
P138886

>  <exports>  (1965) 
['/opt/xchem-fragalysis-2/maxwin/BulkDock/OUTPUTS/openbind_d68ev3c_c2_elabs_1LOTQJ3.sdf', '/opt/xchem-fragalysis-2/maxwin/BulkDock/OUTPUTS/openbind_d68ev3c_c2_elabs_1LSYI5W.sdf']

$$$$
P138887
     RDKit          3D

 25 26  0  0  0  0  0  0  0  0999 V2000
  -10.2292   -3.2176    6.1097 C   0  0  0  0  0  0  0  0  0  0  0  0
   -8.9548   -2.7630    6.8320 C   0  0  2  0  0  0  0  0  0  0  0  0
   -9.2391   -1.6552    7.6844 N   0  0  0  0  0  0  0  0  0  0  0  0
   -9.2276   -0.4264    7.0949 C   0  0  0  0  0  0  0  0  0  0  0  0
   -9.7965    0.5282    7.6100 O   0  0  0  0  0  0  0  0  0  0  0  0
   -8.5160   -0.4318    5.6996 C   0  0  1  0  0  0  0  0  0  0  0  0
   -8.5068    1.0608    5.2722 C   0  0  0  0  0  0  0  0  0  0  0  0
   -7.0603   -1.0586    5.8090 N   0  0  0  0  0  0  0  0  0  0  0  0
   -6.2014   -0.4705    4.8461 C   0  0  0  0  0  0  0  0  0  0  0  0
   -5.9496   -0.8001    3.7182 O   0  0  0  0  0  0  0  0  0  0  0  0
   -5.4268    0.7088    5.3515 C   0  0  0  0  0  0  0  0  0  0  0  0
   -5.2510    1.7600    4.4207 C   0  0  0  0  0  0  0  0  0  0  0  0
   -4.5369    2.9106    4.7500 C   0  0  0  0  0  0  0  0  0  0  0  0
   -3.9902    3.0100    6.0251 C   0  0  0  0  0  0  0  0  0  0  0  0
   -3.1227    4.1395    6.3446 N   0  0  0  0  0  0  0  0  0  0  0  0
   -2.0906    3.8860    6.9829 O   0  0  0  0  0  0  0  0  0  0  0  0
   -3.4757    5.2572    5.9465 O   0  0  0  0  0  0  0  0  0  0  0  0
   -4.1619    1.9882    6.9693 C   0  0  0  0  0  0  0  0  0  0  0  0
   -4.8530    0.8022    6.6315 C   0  0  0  0  0  0  0  0  0  0  0  0
   -4.8518   -0.3378    7.6199 C   0  0  0  0  0  0  0  0  0  0  0  0
   -4.5271   -1.5358    7.0625 F   0  0  0  0  0  0  0  0  0  0  0  0
   -3.9118   -0.1479    8.5935 F   0  0  0  0  0  0  0  0  0  0  0  0
   -6.0233   -0.4965    8.2831 F   0  0  0  0  0  0  0  0  0  0  0  0
   -7.8685   -2.3839    5.7689 C   0  0  1  0  0  0  0  0  0  0  0  0
   -6.7747   -3.4737    5.9072 C   0  0  0  0  0  0  0  0  0  0  0  0
  2  1  1  6
  2  3  1  0
  3  4  1  0
  4  5  2  0
  4  6  1  0
  6  7  1  1
  6  8  1  0
  8  9  1  0
  9 10  2  0
  9 11  1  0
 11 12  2  0
 12 13  1  0
 13 14  2  0
 14 15  1  0
 15 16  2  0
 15 17  1  0
 14 18  1  0
 18 19  2  0
 19 20  1  0
 20 21  1  0
 20 22  1  0
 20 23  1  0
  8 24  1  0
 24 25  1  1
 24  2  1  0
 19 11  1  0
M  CHG  2  15   1  17  -1
M  END
>  <ref_mols>  (1966) 
7gpj-a

>  <gnina_score>  (1966) 
5.071

>  <smina_score_min>  (1966) 
-5.953

>  <ref_pdb>  (1966) 
7gpj-a

>  <inspiration_score>  (1966) 
None

>  <inchikey>  (1966) 
DMICOCSIWDDZFF-XHNCKOQMSA-N

>  <tags>  (1966) 
BulkDock Fragalysis export,openbind_d68ev3c_c2_elabs_scored,openbind_d68ev3c_c2_elabs_scored_4.5plus,openbind_d68ev3c_c2_elabs,openbind_d68ev3c_c2_elabs_scored_5plus,syndirella_product,openbind_d68ev3c_c2_elabs_scored_top80percent,syndirella_placed

>  <smiles>  (1966) 
C[C@@H]1NC(=O)[C@@H](C)N(C(=O)c2ccc([N+](=O)[O-])cc2C(F)(F)F)[C@H]1C

>  <subsites>  (1966) 
None

>  <rmsd(smina/fragmenstein)>  (1966) 
0.449

>  <alias>  (1966) 
None

>  <energy_score>  (1966) 
-1.883758

>  <HIPPO Pose ID>  (1966) 
138887

>  <distance_score>  (1966) 
1.244754

>  <HIPPO Compound ID>  (1966) 
163457

>  <gnina_score_min>  (1966) 
5.174

>  <name>  (1966) 
P138887

>  <exports>  (1966) 
['/opt/xchem-fragalysis-2/maxwin/BulkDock/OUTPUTS/openbind_d68ev3c_c2_elabs_1LOTQJ3.sdf', '/opt/xchem-fragalysis-2/maxwin/BulkDock/OUTPUTS/openbind_d68ev3c_c2_elabs_1LSYI5W.sdf']

$$$$
P138890
     RDKit          3D

 25 26  0  0  0  0  0  0  0  0999 V2000
   -5.5288    5.1111    6.5788 C   0  0  0  0  0  0  0  0  0  0  0  0
   -4.4680    4.3861    5.7646 C   0  0  0  0  0  0  0  0  0  0  0  0
   -4.8032    2.9273    5.5800 C   0  0  0  0  0  0  0  0  0  0  0  0
   -5.4365    2.4847    4.4190 C   0  0  0  0  0  0  0  0  0  0  0  0
   -5.7585    1.1381    4.2706 C   0  0  0  0  0  0  0  0  0  0  0  0
   -5.4608    0.2068    5.2812 C   0  0  0  0  0  0  0  0  0  0  0  0
   -5.8361   -1.2045    4.9652 C   0  0  0  0  0  0  0  0  0  0  0  0
   -5.5704   -1.5838    3.8979 O   0  0  0  0  0  0  0  0  0  0  0  0
   -6.5593   -1.9088    6.1187 N   0  0  0  0  0  0  0  0  0  0  0  0
   -7.0276   -3.2639    6.2401 C   0  0  0  0  0  0  0  0  0  0  0  0
   -8.2819   -3.4446    7.1041 C   0  0  0  0  0  0  0  0  0  0  0  0
   -9.5058   -2.7141    6.8074 N   0  0  0  0  0  0  0  0  0  0  0  0
  -10.1461   -3.0290    5.5300 C   0  0  0  0  0  0  0  0  0  0  0  0
   -9.6244   -2.2073    4.3455 C   0  0  0  0  0  0  0  0  0  0  0  0
   -9.3840   -0.8098    4.6548 N   0  0  0  0  0  0  0  0  0  0  0  0
   -9.0683   -0.3994    5.9298 C   0  0  0  0  0  0  0  0  0  0  0  0
   -8.4794    0.6688    6.0937 O   0  0  0  0  0  0  0  0  0  0  0  0
   -9.5938   -1.2684    7.0879 C   0  0  2  0  0  0  0  0  0  0  0  0
   -9.0384   -0.8133    8.4335 C   0  0  0  0  0  0  0  0  0  0  0  0
   -4.7980    0.6274    6.4448 C   0  0  0  0  0  0  0  0  0  0  0  0
   -4.3699   -0.3185    7.5301 C   0  0  0  0  0  0  0  0  0  0  0  0
   -5.4191   -0.7657    8.2721 F   0  0  0  0  0  0  0  0  0  0  0  0
   -3.5062    0.2495    8.4180 F   0  0  0  0  0  0  0  0  0  0  0  0
   -3.7279   -1.4235    7.0640 F   0  0  0  0  0  0  0  0  0  0  0  0
   -4.5004    1.9995    6.5863 C   0  0  0  0  0  0  0  0  0  0  0  0
  1  2  1  0
  2  3  1  0
  3  4  2  0
  4  5  1  0
  5  6  2  0
  6  7  1  0
  7  8  2  0
  7  9  1  0
  9 10  1  0
 10 11  1  0
 11 12  1  0
 12 13  1  0
 13 14  1  0
 14 15  1  0
 15 16  1  0
 16 17  2  0
 16 18  1  0
 18 19  1  1
  6 20  1  0
 20 21  1  0
 21 22  1  0
 21 23  1  0
 21 24  1  0
 20 25  2  0
 25  3  1  0
 18 12  1  0
M  END
>  <ref_mols>  (1967) 
7gpj-a

>  <gnina_score>  (1967) 
5.194

>  <smina_score_min>  (1967) 
-4.631

>  <ref_pdb>  (1967) 
7gpj-a

>  <inspiration_score>  (1967) 
None

>  <inchikey>  (1967) 
WPGOENHPVMNWGC-NSHDSACASA-N

>  <tags>  (1967) 
BulkDock Fragalysis export,openbind_d68ev3c_c2_elabs_scored,openbind_d68ev3c_c2_elabs_scored_4.5plus,openbind_d68ev3c_c2_elabs,openbind_d68ev3c_c2_elabs_scored_5plus,syndirella_product,openbind_d68ev3c_c2_elabs_scored_top80percent,syndirella_placed

>  <smiles>  (1967) 
CCc1ccc(C(=O)NCCN2CCNC(=O)[C@@H]2C)c(C(F)(F)F)c1

>  <subsites>  (1967) 
None

>  <rmsd(smina/fragmenstein)>  (1967) 
0.791

>  <alias>  (1967) 
None

>  <energy_score>  (1967) 
-27.057981

>  <HIPPO Pose ID>  (1967) 
138890

>  <distance_score>  (1967) 
0.708314

>  <HIPPO Compound ID>  (1967) 
163500

>  <gnina_score_min>  (1967) 
5.149

>  <name>  (1967) 
P138890

>  <exports>  (1967) 
['/opt/xchem-fragalysis-2/maxwin/BulkDock/OUTPUTS/openbind_d68ev3c_c2_elabs_1LOTQJ3.sdf', '/opt/xchem-fragalysis-2/maxwin/BulkDock/OUTPUTS/openbind_d68ev3c_c2_elabs_1LSYI5W.sdf']

$$$$
P138894
     RDKit          3D

 25 27  0  0  0  0  0  0  0  0999 V2000
   -9.4979   -0.5692    8.0566 O   0  0  0  0  0  0  0  0  0  0  0  0
   -8.9490   -1.4194    7.3651 C   0  0  0  0  0  0  0  0  0  0  0  0
   -9.0439   -2.7499    7.6369 N   0  0  0  0  0  0  0  0  0  0  0  0
   -8.1007   -3.5949    6.9904 C   0  0  0  0  0  0  0  0  0  0  0  0
   -7.6125   -2.9626    5.6712 C   0  0  1  0  0  0  0  0  0  0  0  0
   -8.5477   -3.2352    4.4593 C   0  0  0  0  0  0  0  0  0  0  0  0
   -9.1488   -2.0010    3.8392 C   0  0  0  0  0  0  0  0  0  0  0  0
   -9.2156   -0.8952    4.8558 C   0  0  0  0  0  0  0  0  0  0  0  0
   -8.2237   -1.1057    6.0173 C   0  0  2  0  0  0  0  0  0  0  0  0
   -6.8087   -1.6583    5.7149 N   0  0  0  0  0  0  0  0  0  0  0  0
   -6.1452   -0.8816    4.6161 C   0  0  0  0  0  0  0  0  0  0  0  0
   -6.1545   -1.0499    3.4531 O   0  0  0  0  0  0  0  0  0  0  0  0
   -5.4475    0.3574    5.1013 C   0  0  0  0  0  0  0  0  0  0  0  0
   -5.5241    1.4256    4.1787 C   0  0  0  0  0  0  0  0  0  0  0  0
   -5.0514    2.6980    4.4839 C   0  0  0  0  0  0  0  0  0  0  0  0
   -4.5062    2.9515    5.7383 C   0  0  0  0  0  0  0  0  0  0  0  0
   -3.9830    4.3242    6.0884 C   0  0  0  0  0  0  0  0  0  0  0  0
   -4.1919    4.6431    7.3955 F   0  0  0  0  0  0  0  0  0  0  0  0
   -4.5746    5.3183    5.3681 F   0  0  0  0  0  0  0  0  0  0  0  0
   -4.4131    1.8938    6.6564 C   0  0  0  0  0  0  0  0  0  0  0  0
   -4.8505    0.5792    6.3509 C   0  0  0  0  0  0  0  0  0  0  0  0
   -4.6053   -0.4899    7.3846 C   0  0  0  0  0  0  0  0  0  0  0  0
   -3.6167   -0.1151    8.2563 F   0  0  0  0  0  0  0  0  0  0  0  0
   -4.1672   -1.6678    6.8649 F   0  0  0  0  0  0  0  0  0  0  0  0
   -5.6833   -0.7615    8.1622 F   0  0  0  0  0  0  0  0  0  0  0  0
  1  2  2  0
  2  3  1  0
  3  4  1  0
  5  4  1  1
  5  6  1  0
  6  7  1  0
  7  8  1  0
  9  8  1  6
  9 10  1  0
 10 11  1  0
 11 12  2  0
 11 13  1  0
 13 14  2  0
 14 15  1  0
 15 16  2  0
 16 17  1  0
 17 18  1  0
 17 19  1  0
 16 20  1  0
 20 21  2  0
 21 22  1  0
 22 23  1  0
 22 24  1  0
 22 25  1  0
  9  2  1  0
 21 13  1  0
 10  5  1  0
M  END
>  <ref_mols>  (1968) 
7gpj-a

>  <gnina_score>  (1968) 
5.145

>  <smina_score_min>  (1968) 
-5.564

>  <ref_pdb>  (1968) 
7gpj-a

>  <inspiration_score>  (1968) 
None

>  <inchikey>  (1968) 
MVWHDCIBDGGLGZ-SKDRFNHKSA-N

>  <tags>  (1968) 
BulkDock Fragalysis export,openbind_d68ev3c_c2_elabs_scored,openbind_d68ev3c_c2_elabs_scored_4.5plus,openbind_d68ev3c_c2_elabs,openbind_d68ev3c_c2_elabs_scored_5plus,syndirella_product,openbind_d68ev3c_c2_elabs_scored_top80percent,syndirella_placed

>  <smiles>  (1968) 
O=C1NC[C@H]2CCC[C@@H]1N2C(=O)c1ccc(C(F)F)cc1C(F)(F)F

>  <subsites>  (1968) 
None

>  <rmsd(smina/fragmenstein)>  (1968) 
0.713

>  <alias>  (1968) 
None

>  <energy_score>  (1968) 
-36.567095

>  <HIPPO Pose ID>  (1968) 
138894

>  <distance_score>  (1968) 
0.825061

>  <HIPPO Compound ID>  (1968) 
163527

>  <gnina_score_min>  (1968) 
5.234

>  <name>  (1968) 
P138894

>  <exports>  (1968) 
['/opt/xchem-fragalysis-2/maxwin/BulkDock/OUTPUTS/openbind_d68ev3c_c2_elabs_1LOTQJ3.sdf', '/opt/xchem-fragalysis-2/maxwin/BulkDock/OUTPUTS/openbind_d68ev3c_c2_elabs_1LSYI5W.sdf']

$$$$
P138895
     RDKit          3D

 25 26  0  0  0  0  0  0  0  0999 V2000
   -8.3777    0.4954    6.6933 O   0  0  0  0  0  0  0  0  0  0  0  0
   -9.1163   -0.4499    6.4273 C   0  0  0  0  0  0  0  0  0  0  0  0
   -9.3463   -1.6287    7.3742 C   0  0  0  0  0  0  0  0  0  0  0  0
   -9.3274   -2.9330    6.6924 N   0  0  0  0  0  0  0  0  0  0  0  0
   -8.1521   -3.7509    6.9629 C   0  0  0  0  0  0  0  0  0  0  0  0
   -6.8428   -3.4308    6.2221 C   0  0  0  0  0  0  0  0  0  0  0  0
   -6.4830   -2.0391    6.1159 N   0  0  0  0  0  0  0  0  0  0  0  0
   -5.8888   -1.2504    4.9432 C   0  0  0  0  0  0  0  0  0  0  0  0
   -5.6653   -1.5788    3.8492 O   0  0  0  0  0  0  0  0  0  0  0  0
   -5.5787    0.1729    5.2790 C   0  0  0  0  0  0  0  0  0  0  0  0
   -5.9404    1.1050    4.2886 C   0  0  0  0  0  0  0  0  0  0  0  0
   -5.6638    2.4617    4.4414 C   0  0  0  0  0  0  0  0  0  0  0  0
   -5.0111    2.9182    5.5874 C   0  0  0  0  0  0  0  0  0  0  0  0
   -4.7481    4.3904    5.7897 C   0  0  0  0  0  0  0  0  0  0  0  0
   -4.6858    5.0898    4.6220 F   0  0  0  0  0  0  0  0  0  0  0  0
   -3.5719    4.6315    6.4316 F   0  0  0  0  0  0  0  0  0  0  0  0
   -4.6422    1.9889    6.5733 C   0  0  0  0  0  0  0  0  0  0  0  0
   -4.8984    0.6066    6.4292 C   0  0  0  0  0  0  0  0  0  0  0  0
   -4.4194   -0.3305    7.5046 C   0  0  0  0  0  0  0  0  0  0  0  0
   -3.5553    0.2659    8.3752 F   0  0  0  0  0  0  0  0  0  0  0  0
   -3.7507   -1.4137    7.0266 F   0  0  0  0  0  0  0  0  0  0  0  0
   -5.4396   -0.8058    8.2697 F   0  0  0  0  0  0  0  0  0  0  0  0
   -9.7637   -2.9352    5.2907 C   0  0  0  0  0  0  0  0  0  0  0  0
  -10.5846   -1.6898    4.9247 C   0  0  0  0  0  0  0  0  0  0  0  0
   -9.8404   -0.4899    5.2578 N   0  0  0  0  0  0  0  0  0  0  0  0
  1  2  2  0
  2  3  1  0
  3  4  1  0
  4  5  1  0
  5  6  1  0
  6  7  1  0
  7  8  1  0
  8  9  2  0
  8 10  1  0
 10 11  2  0
 11 12  1  0
 12 13  2  0
 13 14  1  0
 14 15  1  0
 14 16  1  0
 13 17  1  0
 17 18  2  0
 18 19  1  0
 19 20  1  0
 19 21  1  0
 19 22  1  0
  4 23  1  0
 23 24  1  0
 24 25  1  0
 25  2  1  0
 18 10  1  0
M  END
>  <ref_mols>  (1969) 
7gpj-a

>  <gnina_score>  (1969) 
5.005

>  <smina_score_min>  (1969) 
-4.449

>  <ref_pdb>  (1969) 
7gpj-a

>  <inspiration_score>  (1969) 
None

>  <inchikey>  (1969) 
HZQLGLLLWUTGOS-UHFFFAOYSA-N

>  <tags>  (1969) 
BulkDock Fragalysis export,openbind_d68ev3c_c2_elabs_scored,openbind_d68ev3c_c2_elabs_scored_4.5plus,openbind_d68ev3c_c2_elabs,openbind_d68ev3c_c2_elabs_scored_5plus,syndirella_product,openbind_d68ev3c_c2_elabs_scored_top80percent,syndirella_placed

>  <smiles>  (1969) 
O=C1CN(CCNC(=O)c2ccc(C(F)F)cc2C(F)(F)F)CCN1

>  <subsites>  (1969) 
None

>  <rmsd(smina/fragmenstein)>  (1969) 
1.408

>  <alias>  (1969) 
None

>  <energy_score>  (1969) 
-18.116855

>  <HIPPO Pose ID>  (1969) 
138895

>  <distance_score>  (1969) 
0.693583

>  <HIPPO Compound ID>  (1969) 
163530

>  <gnina_score_min>  (1969) 
5.069

>  <name>  (1969) 
P138895

>  <exports>  (1969) 
['/opt/xchem-fragalysis-2/maxwin/BulkDock/OUTPUTS/openbind_d68ev3c_c2_elabs_1LOTQJ3.sdf', '/opt/xchem-fragalysis-2/maxwin/BulkDock/OUTPUTS/openbind_d68ev3c_c2_elabs_1LSYI5W.sdf']

$$$$
P138897
     RDKit          3D

 25 28  0  0  0  0  0  0  0  0999 V2000
   -9.5047   -0.5507    8.0196 O   0  0  0  0  0  0  0  0  0  0  0  0
   -8.9585   -1.4099    7.3370 C   0  0  0  0  0  0  0  0  0  0  0  0
   -9.0678   -2.7383    7.6171 N   0  0  0  0  0  0  0  0  0  0  0  0
   -8.1140   -3.5900    6.9965 C   0  0  0  0  0  0  0  0  0  0  0  0
   -7.5980   -2.9732    5.6807 C   0  0  1  0  0  0  0  0  0  0  0  0
   -8.5082   -3.2609    4.4533 C   0  0  0  0  0  0  0  0  0  0  0  0
   -9.1080   -2.0363    3.8128 C   0  0  0  0  0  0  0  0  0  0  0  0
   -9.1950   -0.9205    4.8166 C   0  0  0  0  0  0  0  0  0  0  0  0
   -8.2181   -1.1137    5.9932 C   0  0  2  0  0  0  0  0  0  0  0  0
   -6.7979   -1.6671    5.7185 N   0  0  0  0  0  0  0  0  0  0  0  0
   -6.1200   -0.9034    4.6182 C   0  0  0  0  0  0  0  0  0  0  0  0
   -6.1124   -1.0873    3.4577 O   0  0  0  0  0  0  0  0  0  0  0  0
   -5.4320    0.3430    5.0959 C   0  0  0  0  0  0  0  0  0  0  0  0
   -5.5060    1.3978    4.1658 C   0  0  0  0  0  0  0  0  0  0  0  0
   -5.0909    2.6871    4.4862 C   0  0  0  0  0  0  0  0  0  0  0  0
   -4.6027    2.9964    5.7570 C   0  0  0  0  0  0  0  0  0  0  0  0
   -4.2349    4.4289    6.0771 C   0  0  0  0  0  0  0  0  0  0  0  0
   -3.5928    4.8714    7.3659 C   0  0  0  0  0  0  0  0  0  0  0  0
   -2.7740    4.8107    6.1126 C   0  0  0  0  0  0  0  0  0  0  0  0
   -4.4998    1.9295    6.6665 C   0  0  0  0  0  0  0  0  0  0  0  0
   -4.8733    0.5938    6.3541 C   0  0  0  0  0  0  0  0  0  0  0  0
   -4.6129   -0.4603    7.3974 C   0  0  0  0  0  0  0  0  0  0  0  0
   -5.6892   -0.7402    8.1751 F   0  0  0  0  0  0  0  0  0  0  0  0
   -3.6324   -0.0657    8.2690 F   0  0  0  0  0  0  0  0  0  0  0  0
   -4.1599   -1.6390    6.8907 F   0  0  0  0  0  0  0  0  0  0  0  0
  1  2  2  0
  2  3  1  0
  3  4  1  0
  5  4  1  1
  5  6  1  0
  6  7  1  0
  7  8  1  0
  9  8  1  6
  9 10  1  0
 10 11  1  0
 11 12  2  0
 11 13  1  0
 13 14  2  0
 14 15  1  0
 15 16  2  0
 16 17  1  0
 17 18  1  0
 18 19  1  0
 16 20  1  0
 20 21  2  0
 21 22  1  0
 22 23  1  0
 22 24  1  0
 22 25  1  0
  9  2  1  0
 21 13  1  0
 10  5  1  0
 19 17  1  0
M  END
>  <ref_mols>  (1970) 
7gpj-a

>  <gnina_score>  (1970) 
5.307

>  <smina_score_min>  (1970) 
-5.55

>  <ref_pdb>  (1970) 
7gpj-a

>  <inspiration_score>  (1970) 
None

>  <inchikey>  (1970) 
CBYGZFRONPFRRD-DOMZBBRYSA-N

>  <tags>  (1970) 
BulkDock Fragalysis export,openbind_d68ev3c_c2_elabs_scored,openbind_d68ev3c_c2_elabs_scored_4.5plus,openbind_d68ev3c_c2_elabs,openbind_d68ev3c_c2_elabs_scored_5plus,syndirella_product,openbind_d68ev3c_c2_elabs_scored_top80percent,syndirella_placed

>  <smiles>  (1970) 
O=C1NC[C@H]2CCC[C@@H]1N2C(=O)c1ccc(C2CC2)cc1C(F)(F)F

>  <subsites>  (1970) 
None

>  <rmsd(smina/fragmenstein)>  (1970) 
0.412

>  <alias>  (1970) 
None

>  <energy_score>  (1970) 
-61.196506

>  <HIPPO Pose ID>  (1970) 
138897

>  <distance_score>  (1970) 
0.813106

>  <HIPPO Compound ID>  (1970) 
163574

>  <gnina_score_min>  (1970) 
5.337

>  <name>  (1970) 
P138897

>  <exports>  (1970) 
['/opt/xchem-fragalysis-2/maxwin/BulkDock/OUTPUTS/openbind_d68ev3c_c2_elabs_1LOTQJ3.sdf', '/opt/xchem-fragalysis-2/maxwin/BulkDock/OUTPUTS/openbind_d68ev3c_c2_elabs_1LSYI5W.sdf']

$$$$
P138900
     RDKit          3D

 25 27  0  0  0  0  0  0  0  0999 V2000
  -10.0788    0.9825    5.7132 O   0  0  0  0  0  0  0  0  0  0  0  0
  -10.0229    0.0887    6.5538 C   0  0  0  0  0  0  0  0  0  0  0  0
  -10.3169   -1.3855    6.2440 C   0  0  0  0  0  0  0  0  0  0  0  0
   -9.3394   -2.2837    6.8565 N   0  0  0  0  0  0  0  0  0  0  0  0
   -8.5390   -3.0726    5.9094 C   0  0  0  0  0  0  0  0  0  0  0  0
   -7.1766   -3.5040    6.3968 C   0  0  0  0  0  0  0  0  0  0  0  0
   -6.6301   -2.1149    6.1109 N   0  0  0  0  0  0  0  0  0  0  0  0
   -5.3055   -1.6800    5.5814 C   0  0  0  0  0  0  0  0  0  0  0  0
   -4.4013   -2.3130    5.1873 O   0  0  0  0  0  0  0  0  0  0  0  0
   -5.2176   -0.2086    5.5239 C   0  0  0  0  0  0  0  0  0  0  0  0
   -5.5263    0.4270    4.3159 C   0  0  0  0  0  0  0  0  0  0  0  0
   -5.4004    1.8033    4.2365 C   0  0  0  0  0  0  0  0  0  0  0  0
   -5.6879    2.4299    3.0588 O   0  0  0  0  0  0  0  0  0  0  0  0
   -4.9719    2.5458    5.3339 C   0  0  0  0  0  0  0  0  0  0  0  0
   -4.8666    3.8989    5.1786 O   0  0  0  0  0  0  0  0  0  0  0  0
   -4.6541    1.9153    6.5326 C   0  0  0  0  0  0  0  0  0  0  0  0
   -4.7585    0.5140    6.6343 C   0  0  0  0  0  0  0  0  0  0  0  0
   -4.3806   -0.1946    7.9048 C   0  0  0  0  0  0  0  0  0  0  0  0
   -3.6213   -1.3044    7.7159 F   0  0  0  0  0  0  0  0  0  0  0  0
   -5.4620   -0.5739    8.6337 F   0  0  0  0  0  0  0  0  0  0  0  0
   -3.6459    0.6063    8.7238 F   0  0  0  0  0  0  0  0  0  0  0  0
   -7.6868   -2.2327    4.9762 C   0  0  0  0  0  0  0  0  0  0  0  0
   -8.7938   -1.8612    8.1417 C   0  0  0  0  0  0  0  0  0  0  0  0
   -9.5938   -0.7189    8.7981 C   0  0  0  0  0  0  0  0  0  0  0  0
   -9.7414    0.3723    7.8660 N   0  0  0  0  0  0  0  0  0  0  0  0
  1  2  2  0
  2  3  1  0
  3  4  1  0
  4  5  1  0
  5  6  1  0
  6  7  1  0
  7  8  1  0
  8  9  2  0
  8 10  1  0
 10 11  2  0
 11 12  1  0
 12 13  1  0
 12 14  2  0
 14 15  1  0
 14 16  1  0
 16 17  2  0
 17 18  1  0
 18 19  1  0
 18 20  1  0
 18 21  1  0
  7 22  1  0
  4 23  1  0
 23 24  1  0
 24 25  1  0
 25  2  1  0
 22  5  1  0
 17 10  1  0
M  END
>  <ref_mols>  (1971) 
7gpj-a

>  <gnina_score>  (1971) 
4.933

>  <smina_score_min>  (1971) 
-5.788

>  <ref_pdb>  (1971) 
7gpj-a

>  <inspiration_score>  (1971) 
None

>  <inchikey>  (1971) 
ZVNMODRAMABRFG-UHFFFAOYSA-N

>  <tags>  (1971) 
BulkDock Fragalysis export,openbind_d68ev3c_c2_elabs_scored,openbind_d68ev3c_c2_elabs_scored_4.5plus,openbind_d68ev3c_c2_elabs,openbind_d68ev3c_c2_elabs_scored_5plus,syndirella_product,openbind_d68ev3c_c2_elabs_scored_top80percent,syndirella_placed

>  <smiles>  (1971) 
O=C1CN(C2CN(C(=O)c3cc(O)c(O)cc3C(F)(F)F)C2)CCN1

>  <subsites>  (1971) 
None

>  <rmsd(smina/fragmenstein)>  (1971) 
0.868

>  <alias>  (1971) 
None

>  <energy_score>  (1971) 
-12.012891

>  <HIPPO Pose ID>  (1971) 
138900

>  <distance_score>  (1971) 
1.008891

>  <HIPPO Compound ID>  (1971) 
163601

>  <gnina_score_min>  (1971) 
5.057

>  <name>  (1971) 
P138900

>  <exports>  (1971) 
['/opt/xchem-fragalysis-2/maxwin/BulkDock/OUTPUTS/openbind_d68ev3c_c2_elabs_1LOTQJ3.sdf', '/opt/xchem-fragalysis-2/maxwin/BulkDock/OUTPUTS/openbind_d68ev3c_c2_elabs_1LSYI5W.sdf']

$$$$
P138903
     RDKit          3D

 25 26  0  0  0  0  0  0  0  0999 V2000
   -8.6127   -1.3750    3.1609 C   0  0  0  0  0  0  0  0  0  0  0  0
   -9.2431   -1.2904    4.5615 C   0  0  0  0  0  0  0  0  0  0  0  0
  -10.3310   -2.3801    4.6581 C   0  0  0  0  0  0  0  0  0  0  0  0
  -10.0096    0.0666    4.5972 C   0  0  0  0  0  0  0  0  0  0  0  0
   -8.2197   -1.3114    5.8017 C   0  0  1  0  0  0  0  0  0  0  0  0
   -8.9216   -1.4842    7.1930 C   0  0  0  0  0  0  0  0  0  0  0  0
   -9.4126   -0.5677    7.8411 O   0  0  0  0  0  0  0  0  0  0  0  0
   -9.0038   -2.7857    7.5904 N   0  0  0  0  0  0  0  0  0  0  0  0
   -8.0871   -3.7026    7.0001 C   0  0  0  0  0  0  0  0  0  0  0  0
   -7.3895   -3.1158    5.7653 C   0  0  0  0  0  0  0  0  0  0  0  0
   -6.7141   -1.7656    5.7972 N   0  0  0  0  0  0  0  0  0  0  0  0
   -5.9293   -1.0387    4.7422 C   0  0  0  0  0  0  0  0  0  0  0  0
   -5.7260   -1.3168    3.6201 O   0  0  0  0  0  0  0  0  0  0  0  0
   -5.4282    0.2863    5.2068 C   0  0  0  0  0  0  0  0  0  0  0  0
   -4.8304    0.5541    6.4499 C   0  0  0  0  0  0  0  0  0  0  0  0
   -4.5095   -0.5051    7.4714 C   0  0  0  0  0  0  0  0  0  0  0  0
   -4.0315   -1.6590    6.9371 F   0  0  0  0  0  0  0  0  0  0  0  0
   -5.5615   -0.8262    8.2644 F   0  0  0  0  0  0  0  0  0  0  0  0
   -3.5258   -0.0839    8.3230 F   0  0  0  0  0  0  0  0  0  0  0  0
   -4.4853    1.8936    6.7532 C   0  0  0  0  0  0  0  0  0  0  0  0
   -4.6933    2.9262    5.8392 C   0  0  0  0  0  0  0  0  0  0  0  0
   -5.2677    2.6400    4.6144 C   0  0  0  0  0  0  0  0  0  0  0  0
   -5.4816    3.6328    3.7408 F   0  0  0  0  0  0  0  0  0  0  0  0
   -5.6375    1.3420    4.2997 C   0  0  0  0  0  0  0  0  0  0  0  0
   -6.2369    1.1389    3.1163 F   0  0  0  0  0  0  0  0  0  0  0  0
  1  2  1  0
  2  3  1  0
  2  4  1  0
  5  2  1  6
  5  6  1  0
  6  7  2  0
  6  8  1  0
  8  9  1  0
  9 10  1  0
 10 11  1  0
 11 12  1  0
 12 13  2  0
 12 14  1  0
 14 15  2  0
 15 16  1  0
 16 17  1  0
 16 18  1  0
 16 19  1  0
 15 20  1  0
 20 21  2  0
 21 22  1  0
 22 23  1  0
 22 24  2  0
 24 25  1  0
 11  5  1  0
 24 14  1  0
M  END
>  <ref_mols>  (1972) 
7gpj-a

>  <gnina_score>  (1972) 
5.351

>  <smina_score_min>  (1972) 
-5.557

>  <ref_pdb>  (1972) 
7gpj-a

>  <inspiration_score>  (1972) 
None

>  <inchikey>  (1972) 
RVPFMMHLBZUDHU-GFCCVEGCSA-N

>  <tags>  (1972) 
BulkDock Fragalysis export,openbind_d68ev3c_c2_elabs_scored,openbind_d68ev3c_c2_elabs_scored_4.5plus,openbind_d68ev3c_c2_elabs,openbind_d68ev3c_c2_elabs_scored_5plus,syndirella_product,openbind_d68ev3c_c2_elabs_scored_top80percent,syndirella_placed

>  <smiles>  (1972) 
CC(C)(C)[C@H]1C(=O)NCCN1C(=O)c1c(C(F)(F)F)ccc(F)c1F

>  <subsites>  (1972) 
None

>  <rmsd(smina/fragmenstein)>  (1972) 
0.756

>  <alias>  (1972) 
None

>  <energy_score>  (1972) 
-1.702332

>  <HIPPO Pose ID>  (1972) 
138903

>  <distance_score>  (1972) 
0.715071

>  <HIPPO Compound ID>  (1972) 
163625

>  <gnina_score_min>  (1972) 
5.397

>  <name>  (1972) 
P138903

>  <exports>  (1972) 
['/opt/xchem-fragalysis-2/maxwin/BulkDock/OUTPUTS/openbind_d68ev3c_c2_elabs_1LOTQJ3.sdf', '/opt/xchem-fragalysis-2/maxwin/BulkDock/OUTPUTS/openbind_d68ev3c_c2_elabs_1LSYI5W.sdf']

$$$$
P138905
     RDKit          3D

 25 26  0  0  0  0  0  0  0  0999 V2000
   -9.2779    1.0933    5.2425 C   0  0  0  0  0  0  0  0  0  0  0  0
   -9.4370   -0.2026    5.8714 N   0  0  0  0  0  0  0  0  0  0  0  0
   -8.6615   -0.4582    7.0809 C   0  0  0  0  0  0  0  0  0  0  0  0
   -8.9545   -1.7901    7.7673 C   0  0  0  0  0  0  0  0  0  0  0  0
   -9.2165   -2.9065    6.8718 N   0  0  0  0  0  0  0  0  0  0  0  0
   -8.0731   -3.7003    6.4274 C   0  0  0  0  0  0  0  0  0  0  0  0
   -7.4141   -3.3767    5.0729 C   0  0  0  0  0  0  0  0  0  0  0  0
   -6.7761   -2.0873    5.0842 N   0  0  0  0  0  0  0  0  0  0  0  0
   -5.3263   -1.6984    5.3764 C   0  0  0  0  0  0  0  0  0  0  0  0
   -4.4299   -2.3459    5.7297 O   0  0  0  0  0  0  0  0  0  0  0  0
   -5.1231   -0.2374    5.2637 C   0  0  0  0  0  0  0  0  0  0  0  0
   -4.6419    0.4952    6.3674 C   0  0  0  0  0  0  0  0  0  0  0  0
   -4.2985   -0.1799    7.6792 C   0  0  0  0  0  0  0  0  0  0  0  0
   -5.3717   -0.7896    8.2466 F   0  0  0  0  0  0  0  0  0  0  0  0
   -3.8580    0.7177    8.6069 F   0  0  0  0  0  0  0  0  0  0  0  0
   -3.3027   -1.0951    7.5858 F   0  0  0  0  0  0  0  0  0  0  0  0
   -4.5069    1.8929    6.2358 C   0  0  0  0  0  0  0  0  0  0  0  0
   -4.8145    2.5304    5.0319 C   0  0  0  0  0  0  0  0  0  0  0  0
   -5.2694    1.7805    3.9541 C   0  0  0  0  0  0  0  0  0  0  0  0
   -5.5621    2.3986    2.8026 F   0  0  0  0  0  0  0  0  0  0  0  0
   -5.4262    0.4051    4.0644 C   0  0  0  0  0  0  0  0  0  0  0  0
   -5.8743   -0.2929    3.0110 F   0  0  0  0  0  0  0  0  0  0  0  0
  -10.2224   -2.5734    5.8582 C   0  0  0  0  0  0  0  0  0  0  0  0
   -9.9305   -1.2634    5.1106 C   0  0  0  0  0  0  0  0  0  0  0  0
  -10.1703   -1.1382    3.9082 O   0  0  0  0  0  0  0  0  0  0  0  0
  1  2  1  0
  2  3  1  0
  3  4  1  0
  4  5  1  0
  5  6  1  0
  6  7  1  0
  7  8  1  0
  8  9  1  0
  9 10  2  0
  9 11  1  0
 11 12  2  0
 12 13  1  0
 13 14  1  0
 13 15  1  0
 13 16  1  0
 12 17  1  0
 17 18  2  0
 18 19  1  0
 19 20  1  0
 19 21  2  0
 21 22  1  0
  5 23  1  0
 23 24  1  0
 24 25  2  0
 24  2  1  0
 21 11  1  0
M  END
>  <ref_mols>  (1973) 
7gpj-a

>  <gnina_score>  (1973) 
5.01

>  <smina_score_min>  (1973) 
-4.933

>  <ref_pdb>  (1973) 
7gpj-a

>  <inspiration_score>  (1973) 
None

>  <inchikey>  (1973) 
RFZJCIVSKHEMIL-UHFFFAOYSA-N

>  <tags>  (1973) 
BulkDock Fragalysis export,openbind_d68ev3c_c2_elabs_scored,openbind_d68ev3c_c2_elabs_scored_4.5plus,openbind_d68ev3c_c2_elabs,openbind_d68ev3c_c2_elabs_scored_5plus,syndirella_product,openbind_d68ev3c_c2_elabs_scored_top80percent,syndirella_placed

>  <smiles>  (1973) 
CN1CCN(CCNC(=O)c2c(C(F)(F)F)ccc(F)c2F)CC1=O

>  <subsites>  (1973) 
None

>  <rmsd(smina/fragmenstein)>  (1973) 
0.738

>  <alias>  (1973) 
None

>  <energy_score>  (1973) 
-34.335243

>  <HIPPO Pose ID>  (1973) 
138905

>  <distance_score>  (1973) 
0.668936

>  <HIPPO Compound ID>  (1973) 
163673

>  <gnina_score_min>  (1973) 
5.009

>  <name>  (1973) 
P138905

>  <exports>  (1973) 
['/opt/xchem-fragalysis-2/maxwin/BulkDock/OUTPUTS/openbind_d68ev3c_c2_elabs_1LOTQJ3.sdf', '/opt/xchem-fragalysis-2/maxwin/BulkDock/OUTPUTS/openbind_d68ev3c_c2_elabs_1LSYI5W.sdf']

$$$$
P138906
     RDKit          3D

 25 27  0  0  0  0  0  0  0  0999 V2000
   -9.4673   -0.4450    5.0222 C   0  0  0  0  0  0  0  0  0  0  0  0
   -8.4535   -0.7500    6.1351 C   0  0  1  0  0  0  0  0  0  0  0  0
   -9.1395   -1.1444    7.4544 C   0  0  0  0  0  0  0  0  0  0  0  0
   -9.5626   -0.3389    8.2731 O   0  0  0  0  0  0  0  0  0  0  0  0
   -9.3593   -2.4808    7.5654 N   0  0  0  0  0  0  0  0  0  0  0  0
   -8.3686   -3.3345    7.0110 C   0  0  0  0  0  0  0  0  0  0  0  0
   -7.8662   -2.7268    5.7052 C   0  0  0  0  0  0  0  0  0  0  0  0
   -6.8024   -3.8001    5.2680 C   0  0  0  0  0  0  0  0  0  0  0  0
   -7.3192   -3.8861    3.9312 O   0  0  0  0  0  0  0  0  0  0  0  0
   -8.4676   -3.1034    4.3058 C   0  0  0  0  0  0  0  0  0  0  0  0
   -6.9856   -1.3268    5.7887 N   0  0  0  0  0  0  0  0  0  0  0  0
   -6.3249   -0.5211    4.7077 C   0  0  0  0  0  0  0  0  0  0  0  0
   -6.3459   -0.6531    3.5420 O   0  0  0  0  0  0  0  0  0  0  0  0
   -5.6216    0.6824    5.2332 C   0  0  0  0  0  0  0  0  0  0  0  0
   -4.8820    0.7711    6.4288 C   0  0  0  0  0  0  0  0  0  0  0  0
   -4.6031   -0.3872    7.3545 C   0  0  0  0  0  0  0  0  0  0  0  0
   -4.2366   -1.5306    6.7173 F   0  0  0  0  0  0  0  0  0  0  0  0
   -5.6460   -0.6961    8.1669 F   0  0  0  0  0  0  0  0  0  0  0  0
   -3.5601   -0.1139    8.1973 F   0  0  0  0  0  0  0  0  0  0  0  0
   -4.3488    2.0331    6.7869 C   0  0  0  0  0  0  0  0  0  0  0  0
   -4.5024    3.1525    5.9699 C   0  0  0  0  0  0  0  0  0  0  0  0
   -5.2207    3.0408    4.7949 C   0  0  0  0  0  0  0  0  0  0  0  0
   -5.3926    4.1233    4.0248 F   0  0  0  0  0  0  0  0  0  0  0  0
   -5.7866    1.8306    4.4337 C   0  0  0  0  0  0  0  0  0  0  0  0
   -6.5433    1.8117    3.3248 F   0  0  0  0  0  0  0  0  0  0  0  0
  2  1  1  6
  2  3  1  0
  3  4  2  0
  3  5  1  0
  5  6  1  0
  6  7  1  0
  7  8  1  0
  8  9  1  0
  9 10  1  0
  7 11  1  0
 11 12  1  0
 12 13  2  0
 12 14  1  0
 14 15  2  0
 15 16  1  0
 16 17  1  0
 16 18  1  0
 16 19  1  0
 15 20  1  0
 20 21  2  0
 21 22  1  0
 22 23  1  0
 22 24  2  0
 24 25  1  0
 11  2  1  0
 24 14  1  0
 10  7  1  0
M  END
>  <ref_mols>  (1974) 
7gpj-a

>  <gnina_score>  (1974) 
5.251

>  <smina_score_min>  (1974) 
-5.645

>  <ref_pdb>  (1974) 
7gpj-a

>  <inspiration_score>  (1974) 
None

>  <inchikey>  (1974) 
ITOWBTIJEKFKBG-ZETCQYMHSA-N

>  <tags>  (1974) 
BulkDock Fragalysis export,openbind_d68ev3c_c2_elabs_scored,openbind_d68ev3c_c2_elabs_scored_4.5plus,openbind_d68ev3c_c2_elabs,openbind_d68ev3c_c2_elabs_scored_5plus,syndirella_product,openbind_d68ev3c_c2_elabs_scored_top80percent,syndirella_placed

>  <smiles>  (1974) 
C[C@H]1C(=O)NCC2(COC2)N1C(=O)c1c(C(F)(F)F)ccc(F)c1F

>  <subsites>  (1974) 
None

>  <rmsd(smina/fragmenstein)>  (1974) 
1.026

>  <alias>  (1974) 
None

>  <energy_score>  (1974) 
-0.231846

>  <HIPPO Pose ID>  (1974) 
138906

>  <distance_score>  (1974) 
1.028615

>  <HIPPO Compound ID>  (1974) 
163703

>  <gnina_score_min>  (1974) 
5.307

>  <name>  (1974) 
P138906

>  <exports>  (1974) 
['/opt/xchem-fragalysis-2/maxwin/BulkDock/OUTPUTS/openbind_d68ev3c_c2_elabs_1LOTQJ3.sdf', '/opt/xchem-fragalysis-2/maxwin/BulkDock/OUTPUTS/openbind_d68ev3c_c2_elabs_1LSYI5W.sdf']

$$$$
P138907
     RDKit          3D

 25 27  0  0  0  0  0  0  0  0999 V2000
   -8.3435    1.4705    7.8992 C   0  0  0  0  0  0  0  0  0  0  0  0
   -8.4581   -0.0491    7.6359 C   0  0  1  0  0  0  0  0  0  0  0  0
   -9.6703   -0.2885    6.6990 C   0  0  0  0  0  0  0  0  0  0  0  0
  -10.4520    0.5900    6.3553 O   0  0  0  0  0  0  0  0  0  0  0  0
   -9.7925   -1.6039    6.3455 N   0  0  0  0  0  0  0  0  0  0  0  0
  -10.4363   -2.0308    5.1207 C   0  0  0  0  0  0  0  0  0  0  0  0
   -9.8415   -3.4133    4.8570 C   0  0  0  0  0  0  0  0  0  0  0  0
   -8.4818   -3.3496    5.5525 C   0  0  0  0  0  0  0  0  0  0  0  0
   -8.8186   -2.5489    6.8009 C   0  0  1  0  0  0  0  0  0  0  0  0
   -7.6479   -1.9067    7.5513 C   0  0  0  0  0  0  0  0  0  0  0  0
   -7.0519   -0.5986    7.1184 N   0  0  0  0  0  0  0  0  0  0  0  0
   -6.7739   -0.0909    5.8228 C   0  0  0  0  0  0  0  0  0  0  0  0
   -7.0263   -0.5377    4.7388 O   0  0  0  0  0  0  0  0  0  0  0  0
   -5.9518    1.1462    5.8672 C   0  0  0  0  0  0  0  0  0  0  0  0
   -4.8833    1.3088    6.7748 C   0  0  0  0  0  0  0  0  0  0  0  0
   -4.4333    0.2065    7.7079 C   0  0  0  0  0  0  0  0  0  0  0  0
   -5.1984    0.0831    8.8234 F   0  0  0  0  0  0  0  0  0  0  0  0
   -3.1731    0.4369    8.1754 F   0  0  0  0  0  0  0  0  0  0  0  0
   -4.3527   -1.0196    7.1225 F   0  0  0  0  0  0  0  0  0  0  0  0
   -4.1958    2.5409    6.7843 C   0  0  0  0  0  0  0  0  0  0  0  0
   -4.5161    3.5495    5.8746 C   0  0  0  0  0  0  0  0  0  0  0  0
   -5.5384    3.3469    4.9579 C   0  0  0  0  0  0  0  0  0  0  0  0
   -5.8385    4.3214    4.0887 F   0  0  0  0  0  0  0  0  0  0  0  0
   -6.2574    2.1600    4.9514 C   0  0  0  0  0  0  0  0  0  0  0  0
   -7.2701    2.0288    4.0824 F   0  0  0  0  0  0  0  0  0  0  0  0
  2  1  1  6
  2  3  1  0
  3  4  2  0
  3  5  1  0
  5  6  1  0
  6  7  1  0
  7  8  1  0
  9  8  1  6
  9 10  1  0
 10 11  1  0
 11 12  1  0
 12 13  2  0
 12 14  1  0
 14 15  2  0
 15 16  1  0
 16 17  1  0
 16 18  1  0
 16 19  1  0
 15 20  1  0
 20 21  2  0
 21 22  1  0
 22 23  1  0
 22 24  2  0
 24 25  1  0
 11  2  1  0
 24 14  1  0
  9  5  1  0
M  END
>  <ref_mols>  (1975) 
7gpj-a

>  <gnina_score>  (1975) 
5.292

>  <smina_score_min>  (1975) 
-4.629

>  <ref_pdb>  (1975) 
7gpj-a

>  <inspiration_score>  (1975) 
None

>  <inchikey>  (1975) 
VURQDVGKVCEGIU-IUCAKERBSA-N

>  <tags>  (1975) 
BulkDock Fragalysis export,openbind_d68ev3c_c2_elabs_scored,openbind_d68ev3c_c2_elabs_scored_4.5plus,openbind_d68ev3c_c2_elabs,openbind_d68ev3c_c2_elabs_scored_5plus,syndirella_product,openbind_d68ev3c_c2_elabs_scored_top80percent,syndirella_placed

>  <smiles>  (1975) 
C[C@H]1C(=O)N2CCC[C@H]2CN1C(=O)c1c(C(F)(F)F)ccc(F)c1F

>  <subsites>  (1975) 
None

>  <rmsd(smina/fragmenstein)>  (1975) 
0.865

>  <alias>  (1975) 
None

>  <energy_score>  (1975) 
-63.486302

>  <HIPPO Pose ID>  (1975) 
138907

>  <distance_score>  (1975) 
1.717536

>  <HIPPO Compound ID>  (1975) 
163735

>  <gnina_score_min>  (1975) 
5.085

>  <name>  (1975) 
P138907

>  <exports>  (1975) 
['/opt/xchem-fragalysis-2/maxwin/BulkDock/OUTPUTS/openbind_d68ev3c_c2_elabs_1LOTQJ3.sdf', '/opt/xchem-fragalysis-2/maxwin/BulkDock/OUTPUTS/openbind_d68ev3c_c2_elabs_1LSYI5W.sdf']

$$$$
P138908
     RDKit          3D

 25 27  0  0  0  0  0  0  0  0999 V2000
   -9.4891   -0.5692    8.0926 O   0  0  0  0  0  0  0  0  0  0  0  0
   -8.9509   -1.4190    7.3921 C   0  0  0  0  0  0  0  0  0  0  0  0
   -9.0441   -2.7503    7.6577 N   0  0  0  0  0  0  0  0  0  0  0  0
   -8.1121   -3.5953    6.9944 C   0  0  0  0  0  0  0  0  0  0  0  0
   -7.6382   -2.9561    5.6730 C   0  0  1  0  0  0  0  0  0  0  0  0
   -8.5878   -3.2194    4.4701 C   0  0  0  0  0  0  0  0  0  0  0  0
   -9.1967   -1.9801    3.8675 C   0  0  0  0  0  0  0  0  0  0  0  0
   -9.2455   -0.8795    4.8907 C   0  0  0  0  0  0  0  0  0  0  0  0
   -8.2407   -1.0997    6.0390 C   0  0  2  0  0  0  0  0  0  0  0  0
   -6.8308   -1.6526    5.7161 N   0  0  0  0  0  0  0  0  0  0  0  0
   -6.1795   -0.8701    4.6157 C   0  0  0  0  0  0  0  0  0  0  0  0
   -6.2030   -1.0302    3.4522 O   0  0  0  0  0  0  0  0  0  0  0  0
   -5.4723    0.3660    5.0972 C   0  0  0  0  0  0  0  0  0  0  0  0
   -5.5508    1.4377    4.1723 C   0  0  0  0  0  0  0  0  0  0  0  0
   -5.0294    2.6975    4.4521 C   0  0  0  0  0  0  0  0  0  0  0  0
   -4.4282    2.9084    5.6856 C   0  0  0  0  0  0  0  0  0  0  0  0
   -3.8312    4.2111    5.9873 N   0  0  0  0  0  0  0  0  0  0  0  0
   -4.2947    5.2014    5.4046 O   0  0  0  0  0  0  0  0  0  0  0  0
   -2.9009    4.2308    6.8051 O   0  0  0  0  0  0  0  0  0  0  0  0
   -4.3513    1.8730    6.6269 C   0  0  0  0  0  0  0  0  0  0  0  0
   -4.8437    0.5741    6.3372 C   0  0  0  0  0  0  0  0  0  0  0  0
   -4.6111   -0.4984    7.3727 C   0  0  0  0  0  0  0  0  0  0  0  0
   -5.6958   -0.7547    8.1450 F   0  0  0  0  0  0  0  0  0  0  0  0
   -3.6239   -0.1320    8.2472 F   0  0  0  0  0  0  0  0  0  0  0  0
   -4.1850   -1.6796    6.8534 F   0  0  0  0  0  0  0  0  0  0  0  0
  1  2  2  0
  2  3  1  0
  3  4  1  0
  5  4  1  1
  5  6  1  0
  6  7  1  0
  7  8  1  0
  9  8  1  6
  9 10  1  0
 10 11  1  0
 11 12  2  0
 11 13  1  0
 13 14  2  0
 14 15  1  0
 15 16  2  0
 16 17  1  0
 17 18  2  0
 17 19  1  0
 16 20  1  0
 20 21  2  0
 21 22  1  0
 22 23  1  0
 22 24  1  0
 22 25  1  0
  9  2  1  0
 21 13  1  0
 10  5  1  0
M  CHG  2  17   1  19  -1
M  END
>  <ref_mols>  (1976) 
7gpj-a

>  <gnina_score>  (1976) 
5.115

>  <smina_score_min>  (1976) 
-5.526

>  <ref_pdb>  (1976) 
7gpj-a

>  <inspiration_score>  (1976) 
None

>  <inchikey>  (1976) 
SBJAQWVKFBJSIM-SKDRFNHKSA-N

>  <tags>  (1976) 
BulkDock Fragalysis export,openbind_d68ev3c_c2_elabs_scored,openbind_d68ev3c_c2_elabs_scored_4.5plus,openbind_d68ev3c_c2_elabs,openbind_d68ev3c_c2_elabs_scored_5plus,syndirella_product,openbind_d68ev3c_c2_elabs_scored_top80percent,syndirella_placed

>  <smiles>  (1976) 
O=C1NC[C@H]2CCC[C@@H]1N2C(=O)c1ccc([N+](=O)[O-])cc1C(F)(F)F

>  <subsites>  (1976) 
None

>  <rmsd(smina/fragmenstein)>  (1976) 
0.791

>  <alias>  (1976) 
None

>  <energy_score>  (1976) 
-70.364297

>  <HIPPO Pose ID>  (1976) 
138908

>  <distance_score>  (1976) 
0.832773

>  <HIPPO Compound ID>  (1976) 
163783

>  <gnina_score_min>  (1976) 
5.229

>  <name>  (1976) 
P138908

>  <exports>  (1976) 
['/opt/xchem-fragalysis-2/maxwin/BulkDock/OUTPUTS/openbind_d68ev3c_c2_elabs_1LOTQJ3.sdf', '/opt/xchem-fragalysis-2/maxwin/BulkDock/OUTPUTS/openbind_d68ev3c_c2_elabs_1LSYI5W.sdf']

$$$$
P138911
     RDKit          3D

 25 26  0  0  0  0  0  0  0  0999 V2000
   -9.0417    1.4988    4.7482 O   0  0  0  0  0  0  0  0  0  0  0  0
   -9.1680    0.9187    5.8247 C   0  0  0  0  0  0  0  0  0  0  0  0
   -9.4308   -0.5932    5.9291 C   0  0  0  0  0  0  0  0  0  0  0  0
   -8.8327   -1.1792    7.1589 N   0  0  0  0  0  0  0  0  0  0  0  0
   -9.1717   -2.6166    7.2908 C   0  0  0  0  0  0  0  0  0  0  0  0
   -8.5204   -3.5429    6.2516 C   0  0  0  0  0  0  0  0  0  0  0  0
   -6.9979   -3.5032    6.2577 C   0  0  0  0  0  0  0  0  0  0  0  0
   -6.5064   -2.1658    6.0952 N   0  0  0  0  0  0  0  0  0  0  0  0
   -5.1753   -1.6598    5.5640 C   0  0  0  0  0  0  0  0  0  0  0  0
   -4.2265   -2.2391    5.2411 O   0  0  0  0  0  0  0  0  0  0  0  0
   -5.1629   -0.1944    5.5014 C   0  0  0  0  0  0  0  0  0  0  0  0
   -4.7417    0.5494    6.6100 C   0  0  0  0  0  0  0  0  0  0  0  0
   -4.3533   -0.1404    7.8908 C   0  0  0  0  0  0  0  0  0  0  0  0
   -5.4385   -0.5508    8.5974 F   0  0  0  0  0  0  0  0  0  0  0  0
   -3.5543   -1.2228    7.7209 F   0  0  0  0  0  0  0  0  0  0  0  0
   -3.6650    0.6908    8.7169 F   0  0  0  0  0  0  0  0  0  0  0  0
   -4.7048    1.9510    6.4948 C   0  0  0  0  0  0  0  0  0  0  0  0
   -5.0556    2.5738    5.2926 C   0  0  0  0  0  0  0  0  0  0  0  0
   -5.4555    1.8039    4.2036 C   0  0  0  0  0  0  0  0  0  0  0  0
   -5.7646    2.4114    3.0504 F   0  0  0  0  0  0  0  0  0  0  0  0
   -5.5134    0.4214    4.3022 C   0  0  0  0  0  0  0  0  0  0  0  0
   -5.8872   -0.3089    3.2414 F   0  0  0  0  0  0  0  0  0  0  0  0
   -9.3607   -0.4401    8.3245 C   0  0  0  0  0  0  0  0  0  0  0  0
   -8.8863    1.0151    8.2674 C   0  0  0  0  0  0  0  0  0  0  0  0
   -9.1544    1.6424    6.9911 N   0  0  0  0  0  0  0  0  0  0  0  0
  1  2  2  0
  2  3  1  0
  3  4  1  0
  4  5  1  0
  5  6  1  0
  6  7  1  0
  7  8  1  0
  8  9  1  0
  9 10  2  0
  9 11  1  0
 11 12  2  0
 12 13  1  0
 13 14  1  0
 13 15  1  0
 13 16  1  0
 12 17  1  0
 17 18  2  0
 18 19  1  0
 19 20  1  0
 19 21  2  0
 21 22  1  0
  4 23  1  0
 23 24  1  0
 24 25  1  0
 25  2  1  0
 21 11  1  0
M  END
>  <ref_mols>  (1977) 
7gpj-a

>  <gnina_score>  (1977) 
5.087

>  <smina_score_min>  (1977) 
-5.068

>  <ref_pdb>  (1977) 
7gpj-a

>  <inspiration_score>  (1977) 
None

>  <inchikey>  (1977) 
YSNOPWLBWVMDDC-UHFFFAOYSA-N

>  <tags>  (1977) 
BulkDock Fragalysis export,openbind_d68ev3c_c2_elabs_scored,openbind_d68ev3c_c2_elabs_scored_4.5plus,openbind_d68ev3c_c2_elabs,openbind_d68ev3c_c2_elabs_scored_5plus,syndirella_product,openbind_d68ev3c_c2_elabs_scored_top80percent,syndirella_placed

>  <smiles>  (1977) 
O=C1CN(CCCNC(=O)c2c(C(F)(F)F)ccc(F)c2F)CCN1

>  <subsites>  (1977) 
None

>  <rmsd(smina/fragmenstein)>  (1977) 
0.915

>  <alias>  (1977) 
None

>  <energy_score>  (1977) 
-54.186675

>  <HIPPO Pose ID>  (1977) 
138911

>  <distance_score>  (1977) 
0.611827

>  <HIPPO Compound ID>  (1977) 
163827

>  <gnina_score_min>  (1977) 
5.115

>  <name>  (1977) 
P138911

>  <exports>  (1977) 
['/opt/xchem-fragalysis-2/maxwin/BulkDock/OUTPUTS/openbind_d68ev3c_c2_elabs_1LOTQJ3.sdf', '/opt/xchem-fragalysis-2/maxwin/BulkDock/OUTPUTS/openbind_d68ev3c_c2_elabs_1LSYI5W.sdf']

$$$$
P138912
     RDKit          3D

 25 27  0  0  0  0  0  0  0  0999 V2000
   -9.7637    0.7421    7.6103 O   0  0  0  0  0  0  0  0  0  0  0  0
   -9.7129   -0.4733    7.4234 C   0  0  0  0  0  0  0  0  0  0  0  0
   -8.4053   -1.2556    7.5062 C   0  0  0  0  0  0  0  0  0  0  0  0
   -8.3475   -2.4719    6.6702 N   0  0  0  0  0  0  0  0  0  0  0  0
   -8.2217   -2.2997    5.2136 C   0  0  0  0  0  0  0  0  0  0  0  0
   -7.7819   -0.9700    4.6829 C   0  0  0  0  0  0  0  0  0  0  0  0
   -6.3212   -1.2882    5.1146 N   0  0  0  0  0  0  0  0  0  0  0  0
   -5.3416   -0.4348    4.3915 C   0  0  0  0  0  0  0  0  0  0  0  0
   -4.7835   -0.6136    3.3764 O   0  0  0  0  0  0  0  0  0  0  0  0
   -5.1729    0.8519    5.0722 C   0  0  0  0  0  0  0  0  0  0  0  0
   -4.7067    0.9965    6.3895 C   0  0  0  0  0  0  0  0  0  0  0  0
   -4.3506   -0.1565    7.2995 C   0  0  0  0  0  0  0  0  0  0  0  0
   -3.3774    0.2036    8.1885 F   0  0  0  0  0  0  0  0  0  0  0  0
   -5.3904   -0.5753    8.0651 F   0  0  0  0  0  0  0  0  0  0  0  0
   -3.8513   -1.2501    6.6676 F   0  0  0  0  0  0  0  0  0  0  0  0
   -4.5550    2.3096    6.8763 C   0  0  0  0  0  0  0  0  0  0  0  0
   -4.8628    3.4189    6.0833 C   0  0  0  0  0  0  0  0  0  0  0  0
   -5.3432    3.2362    4.7960 C   0  0  0  0  0  0  0  0  0  0  0  0
   -5.6563    4.3056    4.0524 F   0  0  0  0  0  0  0  0  0  0  0  0
   -5.5012    1.9622    4.2882 C   0  0  0  0  0  0  0  0  0  0  0  0
   -5.9956    1.8149    3.0492 F   0  0  0  0  0  0  0  0  0  0  0  0
   -6.8224   -2.6869    4.8187 C   0  0  0  0  0  0  0  0  0  0  0  0
   -9.5403   -3.2823    6.9172 C   0  0  0  0  0  0  0  0  0  0  0  0
  -10.8449   -2.5141    6.6294 C   0  0  0  0  0  0  0  0  0  0  0  0
  -10.8607   -1.1769    7.1824 N   0  0  0  0  0  0  0  0  0  0  0  0
  1  2  2  0
  2  3  1  0
  3  4  1  0
  4  5  1  0
  5  6  1  0
  6  7  1  0
  7  8  1  0
  8  9  2  0
  8 10  1  0
 10 11  2  0
 11 12  1  0
 12 13  1  0
 12 14  1  0
 12 15  1  0
 11 16  1  0
 16 17  2  0
 17 18  1  0
 18 19  1  0
 18 20  2  0
 20 21  1  0
  7 22  1  0
  4 23  1  0
 23 24  1  0
 24 25  1  0
 25  2  1  0
 22  5  1  0
 20 10  1  0
M  END
>  <ref_mols>  (1978) 
7gpj-a

>  <gnina_score>  (1978) 
5.223

>  <smina_score_min>  (1978) 
-5.406

>  <ref_pdb>  (1978) 
7gpj-a

>  <inspiration_score>  (1978) 
None

>  <inchikey>  (1978) 
FHRDOLRIFQFQKO-UHFFFAOYSA-N

>  <tags>  (1978) 
BulkDock Fragalysis export,openbind_d68ev3c_c2_elabs_scored,openbind_d68ev3c_c2_elabs_scored_4.5plus,openbind_d68ev3c_c2_elabs,openbind_d68ev3c_c2_elabs_scored_5plus,syndirella_product,openbind_d68ev3c_c2_elabs_scored_top80percent,syndirella_placed

>  <smiles>  (1978) 
O=C1CN(C2CN(C(=O)c3c(C(F)(F)F)ccc(F)c3F)C2)CCN1

>  <subsites>  (1978) 
None

>  <rmsd(smina/fragmenstein)>  (1978) 
1.013

>  <alias>  (1978) 
None

>  <energy_score>  (1978) 
-9.747311

>  <HIPPO Pose ID>  (1978) 
138912

>  <distance_score>  (1978) 
1.282859

>  <HIPPO Compound ID>  (1978) 
163833

>  <gnina_score_min>  (1978) 
5.123

>  <name>  (1978) 
P138912

>  <exports>  (1978) 
['/opt/xchem-fragalysis-2/maxwin/BulkDock/OUTPUTS/openbind_d68ev3c_c2_elabs_1LOTQJ3.sdf', '/opt/xchem-fragalysis-2/maxwin/BulkDock/OUTPUTS/openbind_d68ev3c_c2_elabs_1LSYI5W.sdf']

$$$$
P138914
     RDKit          3D

 25 26  0  0  0  0  0  0  0  0999 V2000
   -8.6086   -0.8745    8.2561 C   0  0  0  0  0  0  0  0  0  0  0  0
   -9.4077   -1.3098    7.0420 C   0  0  1  0  0  0  0  0  0  0  0  0
   -9.0463   -0.5057    5.7870 C   0  0  0  0  0  0  0  0  0  0  0  0
   -8.3060    0.4743    5.7583 O   0  0  0  0  0  0  0  0  0  0  0  0
   -9.6039   -0.9704    4.6171 N   0  0  0  0  0  0  0  0  0  0  0  0
  -10.6230   -2.0024    4.6390 C   0  0  0  0  0  0  0  0  0  0  0  0
  -10.4157   -3.0797    5.7310 C   0  0  0  0  0  0  0  0  0  0  0  0
   -9.4283   -2.7614    6.7710 N   0  0  0  0  0  0  0  0  0  0  0  0
   -8.1666   -3.5003    6.6311 C   0  0  0  0  0  0  0  0  0  0  0  0
   -7.3840   -3.4157    5.3031 C   0  0  0  0  0  0  0  0  0  0  0  0
   -6.7143   -2.1546    5.1423 N   0  0  0  0  0  0  0  0  0  0  0  0
   -5.2816   -1.7428    5.4716 C   0  0  0  0  0  0  0  0  0  0  0  0
   -4.3866   -2.3739    5.8549 O   0  0  0  0  0  0  0  0  0  0  0  0
   -5.1136   -0.2746    5.3468 C   0  0  0  0  0  0  0  0  0  0  0  0
   -4.6250    0.4761    6.4328 C   0  0  0  0  0  0  0  0  0  0  0  0
   -4.2212   -0.1843    7.7314 C   0  0  0  0  0  0  0  0  0  0  0  0
   -3.7981    0.7299    8.6510 F   0  0  0  0  0  0  0  0  0  0  0  0
   -5.2346   -0.8569    8.3299 F   0  0  0  0  0  0  0  0  0  0  0  0
   -3.1782   -1.0438    7.6012 F   0  0  0  0  0  0  0  0  0  0  0  0
   -4.5273    1.8766    6.2915 C   0  0  0  0  0  0  0  0  0  0  0  0
   -4.8832    2.5021    5.0945 C   0  0  0  0  0  0  0  0  0  0  0  0
   -5.3482    1.7365    4.0330 C   0  0  0  0  0  0  0  0  0  0  0  0
   -5.6778    2.3392    2.8823 F   0  0  0  0  0  0  0  0  0  0  0  0
   -5.4646    0.3580    4.1529 C   0  0  0  0  0  0  0  0  0  0  0  0
   -5.9144   -0.3555    3.1085 F   0  0  0  0  0  0  0  0  0  0  0  0
  2  1  1  1
  2  3  1  0
  3  4  2  0
  3  5  1  0
  5  6  1  0
  6  7  1  0
  7  8  1  0
  8  9  1  0
  9 10  1  0
 10 11  1  0
 11 12  1  0
 12 13  2  0
 12 14  1  0
 14 15  2  0
 15 16  1  0
 16 17  1  0
 16 18  1  0
 16 19  1  0
 15 20  1  0
 20 21  2  0
 21 22  1  0
 22 23  1  0
 22 24  2  0
 24 25  1  0
  8  2  1  0
 24 14  1  0
M  END
>  <ref_mols>  (1979) 
7gpj-a

>  <gnina_score>  (1979) 
5.125

>  <smina_score_min>  (1979) 
-5.047

>  <ref_pdb>  (1979) 
7gpj-a

>  <inspiration_score>  (1979) 
None

>  <inchikey>  (1979) 
SZYWOHDPVGIZFT-QMMMGPOBSA-N

>  <tags>  (1979) 
BulkDock Fragalysis export,openbind_d68ev3c_c2_elabs_scored,openbind_d68ev3c_c2_elabs_scored_4.5plus,openbind_d68ev3c_c2_elabs,openbind_d68ev3c_c2_elabs_scored_5plus,syndirella_product,openbind_d68ev3c_c2_elabs_scored_top80percent,syndirella_placed

>  <smiles>  (1979) 
C[C@H]1C(=O)NCCN1CCNC(=O)c1c(C(F)(F)F)ccc(F)c1F

>  <subsites>  (1979) 
None

>  <rmsd(smina/fragmenstein)>  (1979) 
0.56

>  <alias>  (1979) 
None

>  <energy_score>  (1979) 
-45.508089

>  <HIPPO Pose ID>  (1979) 
138914

>  <distance_score>  (1979) 
0.684638

>  <HIPPO Compound ID>  (1979) 
163834

>  <gnina_score_min>  (1979) 
5.103

>  <name>  (1979) 
P138914

>  <exports>  (1979) 
['/opt/xchem-fragalysis-2/maxwin/BulkDock/OUTPUTS/openbind_d68ev3c_c2_elabs_1LOTQJ3.sdf', '/opt/xchem-fragalysis-2/maxwin/BulkDock/OUTPUTS/openbind_d68ev3c_c2_elabs_1LSYI5W.sdf']

$$$$
P138915
     RDKit          3D

 25 27  0  0  0  0  0  0  0  0999 V2000
   -2.8105    5.4316    4.5086 N   0  0  0  0  0  0  0  0  0  0  0  0
   -3.3908    4.8371    5.2902 N   0  0  0  0  0  0  0  0  0  0  0  0
   -4.0448    4.2162    6.1512 N   0  0  0  0  0  0  0  0  0  0  0  0
   -4.5070    2.9567    5.7407 C   0  0  0  0  0  0  0  0  0  0  0  0
   -5.1051    2.7198    4.5077 C   0  0  0  0  0  0  0  0  0  0  0  0
   -5.5767    1.4467    4.1956 C   0  0  0  0  0  0  0  0  0  0  0  0
   -5.4694    0.3678    5.1015 C   0  0  0  0  0  0  0  0  0  0  0  0
   -6.1622   -0.8723    4.6160 C   0  0  0  0  0  0  0  0  0  0  0  0
   -6.1729   -1.0385    3.4529 O   0  0  0  0  0  0  0  0  0  0  0  0
   -6.8202   -1.6535    5.7144 N   0  0  0  0  0  0  0  0  0  0  0  0
   -7.6188   -2.9614    5.6699 C   0  0  2  0  0  0  0  0  0  0  0  0
   -8.5523   -3.2367    4.4573 C   0  0  0  0  0  0  0  0  0  0  0  0
   -9.1614   -2.0041    3.8419 C   0  0  0  0  0  0  0  0  0  0  0  0
   -9.2357   -0.9034    4.8635 C   0  0  0  0  0  0  0  0  0  0  0  0
   -8.2368   -1.1074    6.0203 C   0  0  1  0  0  0  0  0  0  0  0  0
   -8.9539   -1.4235    7.3710 C   0  0  0  0  0  0  0  0  0  0  0  0
   -9.4952   -0.5737    8.0690 O   0  0  0  0  0  0  0  0  0  0  0  0
   -9.0494   -2.7548    7.6378 N   0  0  0  0  0  0  0  0  0  0  0  0
   -8.1050   -3.5969    6.9888 C   0  0  0  0  0  0  0  0  0  0  0  0
   -4.8516    0.5813    6.3410 C   0  0  0  0  0  0  0  0  0  0  0  0
   -4.5961   -0.4874    7.3702 C   0  0  0  0  0  0  0  0  0  0  0  0
   -3.6017   -0.1157    8.2356 F   0  0  0  0  0  0  0  0  0  0  0  0
   -5.6691   -0.7586    8.1552 F   0  0  0  0  0  0  0  0  0  0  0  0
   -4.1650   -1.6654    6.8455 F   0  0  0  0  0  0  0  0  0  0  0  0
   -4.4089    1.8938    6.6451 C   0  0  0  0  0  0  0  0  0  0  0  0
  1  2  2  0
  2  3  2  0
  3  4  1  0
  4  5  2  0
  5  6  1  0
  6  7  2  0
  7  8  1  0
  8  9  2  0
  8 10  1  0
 10 11  1  0
 11 12  1  6
 12 13  1  0
 13 14  1  0
 15 14  1  6
 15 16  1  0
 16 17  2  0
 16 18  1  0
 18 19  1  0
  7 20  1  0
 20 21  1  0
 21 22  1  0
 21 23  1  0
 21 24  1  0
 20 25  2  0
 25  4  1  0
 15 10  1  0
 19 11  1  0
M  CHG  2   1  -1   2   1
M  END
>  <ref_mols>  (1980) 
7gpj-a

>  <gnina_score>  (1980) 
5.158

>  <smina_score_min>  (1980) 
-5.357

>  <ref_pdb>  (1980) 
7gpj-a

>  <inspiration_score>  (1980) 
None

>  <inchikey>  (1980) 
BBGDBSDXDABGCU-SKDRFNHKSA-N

>  <tags>  (1980) 
BulkDock Fragalysis export,openbind_d68ev3c_c2_elabs_scored,openbind_d68ev3c_c2_elabs_scored_4.5plus,openbind_d68ev3c_c2_elabs,openbind_d68ev3c_c2_elabs_scored_5plus,syndirella_product,openbind_d68ev3c_c2_elabs_scored_top80percent,syndirella_placed

>  <smiles>  (1980) 
[N-]=[N+]=Nc1ccc(C(=O)N2[C@@H]3CCC[C@H]2C(=O)NC3)c(C(F)(F)F)c1

>  <subsites>  (1980) 
None

>  <rmsd(smina/fragmenstein)>  (1980) 
0.753

>  <alias>  (1980) 
None

>  <energy_score>  (1980) 
-38.326526

>  <HIPPO Pose ID>  (1980) 
138915

>  <distance_score>  (1980) 
0.828542

>  <HIPPO Compound ID>  (1980) 
163853

>  <gnina_score_min>  (1980) 
5.251

>  <name>  (1980) 
P138915

>  <exports>  (1980) 
['/opt/xchem-fragalysis-2/maxwin/BulkDock/OUTPUTS/openbind_d68ev3c_c2_elabs_1LOTQJ3.sdf', '/opt/xchem-fragalysis-2/maxwin/BulkDock/OUTPUTS/openbind_d68ev3c_c2_elabs_1LSYI5W.sdf']

$$$$
P138918
     RDKit          3D

 25 26  0  0  0  0  0  0  0  0999 V2000
   -7.4359    1.7183    8.4043 O   0  0  0  0  0  0  0  0  0  0  0  0
   -8.2179    1.0288    7.7569 C   0  0  0  0  0  0  0  0  0  0  0  0
   -8.7013   -0.3669    8.1884 C   0  0  0  0  0  0  0  0  0  0  0  0
   -8.7613   -1.2373    6.9997 N   0  0  0  0  0  0  0  0  0  0  0  0
   -9.0083   -2.6470    7.3479 C   0  0  0  0  0  0  0  0  0  0  0  0
   -8.4798   -3.6208    6.2836 C   0  0  0  0  0  0  0  0  0  0  0  0
   -6.9696   -3.5397    6.0808 C   0  0  0  0  0  0  0  0  0  0  0  0
   -6.5357   -2.1925    5.8463 N   0  0  0  0  0  0  0  0  0  0  0  0
   -5.1626   -1.6433    5.5010 C   0  0  0  0  0  0  0  0  0  0  0  0
   -4.1695   -2.1928    5.2732 O   0  0  0  0  0  0  0  0  0  0  0  0
   -5.1780   -0.1754    5.4803 C   0  0  0  0  0  0  0  0  0  0  0  0
   -4.7184    0.5405    6.5915 C   0  0  0  0  0  0  0  0  0  0  0  0
   -4.2951   -0.1776    7.8460 C   0  0  0  0  0  0  0  0  0  0  0  0
   -3.3916   -1.1688    7.6270 F   0  0  0  0  0  0  0  0  0  0  0  0
   -5.3395   -0.7404    8.5052 F   0  0  0  0  0  0  0  0  0  0  0  0
   -3.6914    0.6574    8.7332 F   0  0  0  0  0  0  0  0  0  0  0  0
   -4.6958    1.9435    6.5127 C   0  0  0  0  0  0  0  0  0  0  0  0
   -5.1156    2.6013    5.3518 C   0  0  0  0  0  0  0  0  0  0  0  0
   -5.5766    1.8626    4.2619 C   0  0  0  0  0  0  0  0  0  0  0  0
   -6.1625    2.7674    2.7089 Br  0  0  0  0  0  0  0  0  0  0  0  0
   -5.6067    0.4728    4.3241 C   0  0  0  0  0  0  0  0  0  0  0  0
   -6.0437   -0.2424    3.2755 F   0  0  0  0  0  0  0  0  0  0  0  0
   -9.7073   -0.7327    5.9886 C   0  0  0  0  0  0  0  0  0  0  0  0
   -9.8518    0.8053    5.9628 C   0  0  0  0  0  0  0  0  0  0  0  0
   -8.7244    1.4844    6.5593 N   0  0  0  0  0  0  0  0  0  0  0  0
  1  2  2  0
  2  3  1  0
  3  4  1  0
  4  5  1  0
  5  6  1  0
  6  7  1  0
  7  8  1  0
  8  9  1  0
  9 10  2  0
  9 11  1  0
 11 12  2  0
 12 13  1  0
 13 14  1  0
 13 15  1  0
 13 16  1  0
 12 17  1  0
 17 18  2  0
 18 19  1  0
 19 20  1  0
 19 21  2  0
 21 22  1  0
  4 23  1  0
 23 24  1  0
 24 25  1  0
 25  2  1  0
 21 11  1  0
M  END
>  <ref_mols>  (1981) 
7gpj-a

>  <gnina_score>  (1981) 
5.121

>  <smina_score_min>  (1981) 
-4.825

>  <ref_pdb>  (1981) 
7gpj-a

>  <inspiration_score>  (1981) 
None

>  <inchikey>  (1981) 
DMOAXOHBJFUDQE-UHFFFAOYSA-N

>  <tags>  (1981) 
BulkDock Fragalysis export,openbind_d68ev3c_c2_elabs_scored,openbind_d68ev3c_c2_elabs_scored_4.5plus,openbind_d68ev3c_c2_elabs,openbind_d68ev3c_c2_elabs_scored_5plus,syndirella_product,openbind_d68ev3c_c2_elabs_scored_top80percent,syndirella_placed

>  <smiles>  (1981) 
O=C1CN(CCCNC(=O)c2c(C(F)(F)F)ccc(Br)c2F)CCN1

>  <subsites>  (1981) 
None

>  <rmsd(smina/fragmenstein)>  (1981) 
0.672

>  <alias>  (1981) 
None

>  <energy_score>  (1981) 
-54.623754

>  <HIPPO Pose ID>  (1981) 
138918

>  <distance_score>  (1981) 
0.630848

>  <HIPPO Compound ID>  (1981) 
163900

>  <gnina_score_min>  (1981) 
5.115

>  <name>  (1981) 
P138918

>  <exports>  (1981) 
['/opt/xchem-fragalysis-2/maxwin/BulkDock/OUTPUTS/openbind_d68ev3c_c2_elabs_1LOTQJ3.sdf', '/opt/xchem-fragalysis-2/maxwin/BulkDock/OUTPUTS/openbind_d68ev3c_c2_elabs_1LSYI5W.sdf']

$$$$
P138919
     RDKit          3D

 25 27  0  0  0  0  0  0  0  0999 V2000
  -11.8679   -0.3407    9.6465 O   0  0  0  0  0  0  0  0  0  0  0  0
  -11.4378   -0.8288    8.5996 C   0  0  0  0  0  0  0  0  0  0  0  0
   -9.9512   -0.9453    8.2980 C   0  0  0  0  0  0  0  0  0  0  0  0
   -9.5782   -2.0053    7.3150 N   0  0  0  0  0  0  0  0  0  0  0  0
   -8.1410   -1.8221    7.0934 C   0  0  0  0  0  0  0  0  0  0  0  0
   -7.8542   -0.7691    6.0464 C   0  0  0  0  0  0  0  0  0  0  0  0
   -6.4947   -1.4517    5.8964 N   0  0  0  0  0  0  0  0  0  0  0  0
   -5.7732   -0.9704    4.6861 C   0  0  0  0  0  0  0  0  0  0  0  0
   -5.7837   -1.3752    3.5840 O   0  0  0  0  0  0  0  0  0  0  0  0
   -5.0244    0.2858    5.0328 C   0  0  0  0  0  0  0  0  0  0  0  0
   -5.0527    1.2534    4.0126 C   0  0  0  0  0  0  0  0  0  0  0  0
   -4.7095    2.5802    4.2690 C   0  0  0  0  0  0  0  0  0  0  0  0
   -4.3473    2.9797    5.5571 C   0  0  0  0  0  0  0  0  0  0  0  0
   -4.0514    4.4236    5.8568 C   0  0  0  0  0  0  0  0  0  0  0  0
   -2.2318    4.6440    6.5080 Br  0  0  0  0  0  0  0  0  0  0  0  0
   -4.2999    2.0095    6.5693 C   0  0  0  0  0  0  0  0  0  0  0  0
   -4.5880    0.6483    6.3201 C   0  0  0  0  0  0  0  0  0  0  0  0
   -4.3883   -0.3246    7.4577 C   0  0  0  0  0  0  0  0  0  0  0  0
   -3.3972    0.1008    8.2984 F   0  0  0  0  0  0  0  0  0  0  0  0
   -3.9980   -1.5669    7.0680 F   0  0  0  0  0  0  0  0  0  0  0  0
   -5.4824   -0.4655    8.2505 F   0  0  0  0  0  0  0  0  0  0  0  0
   -7.4000   -2.6900    6.1085 C   0  0  0  0  0  0  0  0  0  0  0  0
  -10.4594   -1.9346    6.1404 C   0  0  0  0  0  0  0  0  0  0  0  0
  -11.9270   -2.0848    6.5601 C   0  0  0  0  0  0  0  0  0  0  0  0
  -12.3182   -1.1634    7.6027 N   0  0  0  0  0  0  0  0  0  0  0  0
  1  2  2  0
  2  3  1  0
  3  4  1  0
  4  5  1  0
  5  6  1  0
  6  7  1  0
  7  8  1  0
  8  9  2  0
  8 10  1  0
 10 11  2  0
 11 12  1  0
 12 13  2  0
 13 14  1  0
 14 15  1  0
 13 16  1  0
 16 17  2  0
 17 18  1  0
 18 19  1  0
 18 20  1  0
 18 21  1  0
  7 22  1  0
  4 23  1  0
 23 24  1  0
 24 25  1  0
 25  2  1  0
 22  5  1  0
 17 10  1  0
M  END
>  <ref_mols>  (1982) 
7gpj-a

>  <gnina_score>  (1982) 
5.266

>  <smina_score_min>  (1982) 
-4.884

>  <ref_pdb>  (1982) 
7gpj-a

>  <inspiration_score>  (1982) 
None

>  <inchikey>  (1982) 
VJALPGDCBPMKQI-UHFFFAOYSA-N

>  <tags>  (1982) 
BulkDock Fragalysis export,openbind_d68ev3c_c2_elabs_scored,openbind_d68ev3c_c2_elabs_scored_4.5plus,openbind_d68ev3c_c2_elabs,openbind_d68ev3c_c2_elabs_scored_5plus,syndirella_product,openbind_d68ev3c_c2_elabs_scored_top80percent,syndirella_placed

>  <smiles>  (1982) 
O=C1CN(C2CN(C(=O)c3ccc(CBr)cc3C(F)(F)F)C2)CCN1

>  <subsites>  (1982) 
None

>  <rmsd(smina/fragmenstein)>  (1982) 
1.161

>  <alias>  (1982) 
None

>  <energy_score>  (1982) 
-12.542711

>  <HIPPO Pose ID>  (1982) 
138919

>  <distance_score>  (1982) 
1.163575

>  <HIPPO Compound ID>  (1982) 
163943

>  <gnina_score_min>  (1982) 
5.256

>  <name>  (1982) 
P138919

>  <exports>  (1982) 
['/opt/xchem-fragalysis-2/maxwin/BulkDock/OUTPUTS/openbind_d68ev3c_c2_elabs_1LOTQJ3.sdf', '/opt/xchem-fragalysis-2/maxwin/BulkDock/OUTPUTS/openbind_d68ev3c_c2_elabs_1LSYI5W.sdf']

$$$$
P138922
     RDKit          3D

 25 26  0  0  0  0  0  0  0  0999 V2000
  -10.8213   -1.0702    7.4836 C   0  0  0  0  0  0  0  0  0  0  0  0
   -9.6870   -1.4322    6.5280 C   0  0  1  0  0  0  0  0  0  0  0  0
   -9.0294   -0.1468    5.9852 C   0  0  0  0  0  0  0  0  0  0  0  0
   -9.0714    0.1928    4.8040 O   0  0  0  0  0  0  0  0  0  0  0  0
   -8.3137    0.5972    6.8916 N   0  0  0  0  0  0  0  0  0  0  0  0
   -7.9312   -0.0200    8.1392 C   0  0  0  0  0  0  0  0  0  0  0  0
   -7.6848   -1.5290    7.9456 C   0  0  0  0  0  0  0  0  0  0  0  0
   -8.7151   -2.2856    7.2243 N   0  0  0  0  0  0  0  0  0  0  0  0
   -8.1764   -3.4206    6.4489 C   0  0  0  0  0  0  0  0  0  0  0  0
   -7.6063   -3.1646    5.0270 C   0  0  0  0  0  0  0  0  0  0  0  0
   -6.8385   -1.9471    4.9244 N   0  0  0  0  0  0  0  0  0  0  0  0
   -5.3832   -1.6512    5.3091 C   0  0  0  0  0  0  0  0  0  0  0  0
   -4.5482   -2.3590    5.6980 O   0  0  0  0  0  0  0  0  0  0  0  0
   -5.1163   -0.1854    5.2299 C   0  0  0  0  0  0  0  0  0  0  0  0
   -5.5151    0.5115    4.0785 C   0  0  0  0  0  0  0  0  0  0  0  0
   -5.3825    1.8980    4.0083 C   0  0  0  0  0  0  0  0  0  0  0  0
   -4.8456    2.6116    5.0829 C   0  0  0  0  0  0  0  0  0  0  0  0
   -4.7222    4.1070    5.0244 C   0  0  0  0  0  0  0  0  0  0  0  0
   -6.3021    4.8974    5.8369 Br  0  0  0  0  0  0  0  0  0  0  0  0
   -4.4427    1.9088    6.2288 C   0  0  0  0  0  0  0  0  0  0  0  0
   -4.5485    0.5029    6.3170 C   0  0  0  0  0  0  0  0  0  0  0  0
   -4.0480   -0.1890    7.5694 C   0  0  0  0  0  0  0  0  0  0  0  0
   -3.4722    0.7036    8.4294 F   0  0  0  0  0  0  0  0  0  0  0  0
   -5.0196   -0.7793    8.3059 F   0  0  0  0  0  0  0  0  0  0  0  0
   -3.0845   -1.1172    7.3474 F   0  0  0  0  0  0  0  0  0  0  0  0
  2  1  1  1
  2  3  1  0
  3  4  2  0
  3  5  1  0
  5  6  1  0
  6  7  1  0
  7  8  1  0
  8  9  1  0
  9 10  1  0
 10 11  1  0
 11 12  1  0
 12 13  2  0
 12 14  1  0
 14 15  2  0
 15 16  1  0
 16 17  2  0
 17 18  1  0
 18 19  1  0
 17 20  1  0
 20 21  2  0
 21 22  1  0
 22 23  1  0
 22 24  1  0
 22 25  1  0
  8  2  1  0
 21 14  1  0
M  END
>  <ref_mols>  (1983) 
7gpj-a

>  <gnina_score>  (1983) 
5.071

>  <smina_score_min>  (1983) 
-4.624

>  <ref_pdb>  (1983) 
7gpj-a

>  <inspiration_score>  (1983) 
None

>  <inchikey>  (1983) 
IZAURXKUZKZHKH-JTQLQIEISA-N

>  <tags>  (1983) 
BulkDock Fragalysis export,openbind_d68ev3c_c2_elabs_scored,openbind_d68ev3c_c2_elabs_scored_4.5plus,openbind_d68ev3c_c2_elabs,openbind_d68ev3c_c2_elabs_scored_5plus,syndirella_product,openbind_d68ev3c_c2_elabs_scored_top80percent,syndirella_placed

>  <smiles>  (1983) 
C[C@H]1C(=O)NCCN1CCNC(=O)c1ccc(CBr)cc1C(F)(F)F

>  <subsites>  (1983) 
None

>  <rmsd(smina/fragmenstein)>  (1983) 
0.751

>  <alias>  (1983) 
None

>  <energy_score>  (1983) 
-133.885749

>  <HIPPO Pose ID>  (1983) 
138922

>  <distance_score>  (1983) 
0.900047

>  <HIPPO Compound ID>  (1983) 
163950

>  <gnina_score_min>  (1983) 
5.092

>  <name>  (1983) 
P138922

>  <exports>  (1983) 
['/opt/xchem-fragalysis-2/maxwin/BulkDock/OUTPUTS/openbind_d68ev3c_c2_elabs_1LOTQJ3.sdf', '/opt/xchem-fragalysis-2/maxwin/BulkDock/OUTPUTS/openbind_d68ev3c_c2_elabs_1LSYI5W.sdf']

$$$$
P138923
     RDKit          3D

 25 27  0  0  0  0  0  0  0  0999 V2000
   -4.7648    3.9240    5.1283 C   0  0  0  0  0  0  0  0  0  0  0  0
   -4.9536    2.4344    5.2327 C   0  0  0  0  0  0  0  0  0  0  0  0
   -4.6344    1.8019    6.4494 C   0  0  0  0  0  0  0  0  0  0  0  0
   -4.7567    0.4101    6.6126 C   0  0  0  0  0  0  0  0  0  0  0  0
   -4.3638   -0.2560    7.9023 C   0  0  0  0  0  0  0  0  0  0  0  0
   -3.6765    0.5856    8.7208 F   0  0  0  0  0  0  0  0  0  0  0  0
   -3.5492   -1.3293    7.7281 F   0  0  0  0  0  0  0  0  0  0  0  0
   -5.4363   -0.6825    8.6135 F   0  0  0  0  0  0  0  0  0  0  0  0
   -5.2459   -0.3414    5.5438 C   0  0  0  0  0  0  0  0  0  0  0  0
   -5.3760   -1.8091    5.6625 C   0  0  0  0  0  0  0  0  0  0  0  0
   -4.4747   -2.4869    5.3404 O   0  0  0  0  0  0  0  0  0  0  0  0
   -6.7274   -2.1793    6.1813 N   0  0  0  0  0  0  0  0  0  0  0  0
   -7.3140   -3.5357    6.5464 C   0  0  0  0  0  0  0  0  0  0  0  0
   -8.6350   -3.1626    5.9380 C   0  0  0  0  0  0  0  0  0  0  0  0
   -9.5392   -2.3901    6.8185 N   0  0  0  0  0  0  0  0  0  0  0  0
  -10.6740   -1.8792    6.0371 C   0  0  0  0  0  0  0  0  0  0  0  0
  -11.7652   -1.3550    6.9702 C   0  0  0  0  0  0  0  0  0  0  0  0
  -11.2562   -0.4080    7.9381 N   0  0  0  0  0  0  0  0  0  0  0  0
   -9.9962   -0.5515    8.4724 C   0  0  0  0  0  0  0  0  0  0  0  0
   -9.7157    0.0448    9.5123 O   0  0  0  0  0  0  0  0  0  0  0  0
   -8.9518   -1.3146    7.6453 C   0  0  0  0  0  0  0  0  0  0  0  0
   -7.7582   -2.3548    5.0199 C   0  0  0  0  0  0  0  0  0  0  0  0
   -5.5612    0.2617    4.3217 C   0  0  0  0  0  0  0  0  0  0  0  0
   -5.4151    1.6440    4.1676 C   0  0  0  0  0  0  0  0  0  0  0  0
   -5.8974    2.4397    2.2882 I   0  0  0  0  0  0  0  0  0  0  0  0
  1  2  1  0
  2  3  2  0
  3  4  1  0
  4  5  1  0
  5  6  1  0
  5  7  1  0
  5  8  1  0
  4  9  2  0
  9 10  1  0
 10 11  2  0
 10 12  1  0
 12 13  1  0
 13 14  1  0
 14 15  1  0
 15 16  1  0
 16 17  1  0
 17 18  1  0
 18 19  1  0
 19 20  2  0
 19 21  1  0
 14 22  1  0
  9 23  1  0
 23 24  2  0
 24 25  1  0
 24  2  1  0
 22 12  1  0
 21 15  1  0
M  END
>  <ref_mols>  (1984) 
7gpj-a

>  <gnina_score>  (1984) 
5.351

>  <smina_score_min>  (1984) 
-5.989

>  <ref_pdb>  (1984) 
7gpj-a

>  <inspiration_score>  (1984) 
None

>  <inchikey>  (1984) 
GFOJKDRDLILISM-UHFFFAOYSA-N

>  <tags>  (1984) 
BulkDock Fragalysis export,openbind_d68ev3c_c2_elabs_scored,openbind_d68ev3c_c2_elabs_scored_4.5plus,openbind_d68ev3c_c2_elabs,openbind_d68ev3c_c2_elabs_scored_5plus,syndirella_product,openbind_d68ev3c_c2_elabs_scored_top80percent,syndirella_placed

>  <smiles>  (1984) 
Cc1cc(C(F)(F)F)c(C(=O)N2CC(N3CCNC(=O)C3)C2)cc1I

>  <subsites>  (1984) 
None

>  <rmsd(smina/fragmenstein)>  (1984) 
0.583

>  <alias>  (1984) 
None

>  <energy_score>  (1984) 
-9.978495

>  <HIPPO Pose ID>  (1984) 
138923

>  <distance_score>  (1984) 
0.737012

>  <HIPPO Compound ID>  (1984) 
163963

>  <gnina_score_min>  (1984) 
5.358

>  <name>  (1984) 
P138923

>  <exports>  (1984) 
['/opt/xchem-fragalysis-2/maxwin/BulkDock/OUTPUTS/openbind_d68ev3c_c2_elabs_1LOTQJ3.sdf', '/opt/xchem-fragalysis-2/maxwin/BulkDock/OUTPUTS/openbind_d68ev3c_c2_elabs_1LSYI5W.sdf']

$$$$
P138924
     RDKit          3D

 25 26  0  0  0  0  0  0  0  0999 V2000
   -9.2128    2.2765    5.0964 C   0  0  0  0  0  0  0  0  0  0  0  0
   -9.1020    0.8530    5.0597 O   0  0  0  0  0  0  0  0  0  0  0  0
   -8.3130    0.3327    6.0493 C   0  0  0  0  0  0  0  0  0  0  0  0
   -7.6727    1.0083    6.8458 O   0  0  0  0  0  0  0  0  0  0  0  0
   -8.3276   -1.2247    5.9848 C   0  0  2  0  0  0  0  0  0  0  0  0
   -9.0818   -1.5811    7.3180 C   0  0  0  0  0  0  0  0  0  0  0  0
   -9.8317   -0.8148    7.9162 O   0  0  0  0  0  0  0  0  0  0  0  0
   -8.9773   -2.8776    7.7163 N   0  0  0  0  0  0  0  0  0  0  0  0
   -8.0538   -3.7239    7.0517 C   0  0  0  0  0  0  0  0  0  0  0  0
   -7.5865   -3.0843    5.7556 C   0  0  0  0  0  0  0  0  0  0  0  0
   -6.8280   -1.7734    5.7687 N   0  0  0  0  0  0  0  0  0  0  0  0
   -6.1316   -1.0340    4.6604 C   0  0  0  0  0  0  0  0  0  0  0  0
   -6.0818   -1.2616    3.5085 O   0  0  0  0  0  0  0  0  0  0  0  0
   -5.4585    0.2415    5.0867 C   0  0  0  0  0  0  0  0  0  0  0  0
   -5.5388    1.2720    4.1235 C   0  0  0  0  0  0  0  0  0  0  0  0
   -5.0560    2.5566    4.3780 C   0  0  0  0  0  0  0  0  0  0  0  0
   -5.2523    3.9724    2.8448 I   0  0  0  0  0  0  0  0  0  0  0  0
   -4.4852    2.8543    5.6157 C   0  0  0  0  0  0  0  0  0  0  0  0
   -3.9533    4.2151    5.9744 C   0  0  0  0  0  0  0  0  0  0  0  0
   -4.3914    1.8237    6.5670 C   0  0  0  0  0  0  0  0  0  0  0  0
   -4.8341    0.5019    6.3146 C   0  0  0  0  0  0  0  0  0  0  0  0
   -4.5884   -0.5283    7.3856 C   0  0  0  0  0  0  0  0  0  0  0  0
   -3.6099   -0.1225    8.2550 F   0  0  0  0  0  0  0  0  0  0  0  0
   -4.1324   -1.7149    6.8973 F   0  0  0  0  0  0  0  0  0  0  0  0
   -5.6657   -0.8040    8.1630 F   0  0  0  0  0  0  0  0  0  0  0  0
  1  2  1  0
  2  3  1  0
  3  4  2  0
  5  3  1  1
  5  6  1  0
  6  7  2  0
  6  8  1  0
  8  9  1  0
  9 10  1  0
 10 11  1  0
 11 12  1  0
 12 13  2  0
 12 14  1  0
 14 15  2  0
 15 16  1  0
 16 17  1  0
 16 18  2  0
 18 19  1  0
 18 20  1  0
 20 21  2  0
 21 22  1  0
 22 23  1  0
 22 24  1  0
 22 25  1  0
 11  5  1  0
 21 14  1  0
M  END
>  <ref_mols>  (1985) 
7gpj-a

>  <gnina_score>  (1985) 
4.982

>  <smina_score_min>  (1985) 
-5.296

>  <ref_pdb>  (1985) 
7gpj-a

>  <inspiration_score>  (1985) 
None

>  <inchikey>  (1985) 
PVAJFJACKHMFDF-NSHDSACASA-N

>  <tags>  (1985) 
BulkDock Fragalysis export,openbind_d68ev3c_c2_elabs_scored,openbind_d68ev3c_c2_elabs_scored_4.5plus,openbind_d68ev3c_c2_elabs,openbind_d68ev3c_c2_elabs_scored_5plus,syndirella_product,openbind_d68ev3c_c2_elabs_scored_top80percent,syndirella_placed

>  <smiles>  (1985) 
COC(=O)[C@@H]1C(=O)NCCN1C(=O)c1cc(I)c(C)cc1C(F)(F)F

>  <subsites>  (1985) 
None

>  <rmsd(smina/fragmenstein)>  (1985) 
0.629

>  <alias>  (1985) 
None

>  <energy_score>  (1985) 
-10.965121

>  <HIPPO Pose ID>  (1985) 
138924

>  <distance_score>  (1985) 
0.778364

>  <HIPPO Compound ID>  (1985) 
163969

>  <gnina_score_min>  (1985) 
5.063

>  <name>  (1985) 
P138924

>  <exports>  (1985) 
['/opt/xchem-fragalysis-2/maxwin/BulkDock/OUTPUTS/openbind_d68ev3c_c2_elabs_1LOTQJ3.sdf', '/opt/xchem-fragalysis-2/maxwin/BulkDock/OUTPUTS/openbind_d68ev3c_c2_elabs_1LSYI5W.sdf']

$$$$
P138925
     RDKit          3D

 25 26  0  0  0  0  0  0  0  0999 V2000
   -4.4926    4.3250    5.8644 C   0  0  0  0  0  0  0  0  0  0  0  0
   -4.8208    2.8750    5.6299 C   0  0  0  0  0  0  0  0  0  0  0  0
   -4.5005    1.9426    6.6328 C   0  0  0  0  0  0  0  0  0  0  0  0
   -4.7445    0.5584    6.4873 C   0  0  0  0  0  0  0  0  0  0  0  0
   -4.3095   -0.3671    7.5891 C   0  0  0  0  0  0  0  0  0  0  0  0
   -3.6300   -1.4566    7.1477 F   0  0  0  0  0  0  0  0  0  0  0  0
   -3.4845    0.2367    8.4875 F   0  0  0  0  0  0  0  0  0  0  0  0
   -5.3685   -0.8258    8.3096 F   0  0  0  0  0  0  0  0  0  0  0  0
   -5.3684    0.1146    5.3149 C   0  0  0  0  0  0  0  0  0  0  0  0
   -5.7195   -1.3047    4.9820 C   0  0  0  0  0  0  0  0  0  0  0  0
   -5.5551   -1.6181    3.8735 O   0  0  0  0  0  0  0  0  0  0  0  0
   -6.3306   -2.0818    6.1549 N   0  0  0  0  0  0  0  0  0  0  0  0
   -6.9594   -3.3818    6.1935 C   0  0  0  0  0  0  0  0  0  0  0  0
   -8.3751   -3.4110    6.8091 C   0  0  0  0  0  0  0  0  0  0  0  0
   -9.1812   -2.2223    6.4856 N   0  0  0  0  0  0  0  0  0  0  0  0
  -10.5767   -2.5767    6.1860 C   0  0  0  0  0  0  0  0  0  0  0  0
  -11.5603   -1.4152    6.3391 C   0  0  0  0  0  0  0  0  0  0  0  0
  -11.4642   -0.8413    7.6615 N   0  0  0  0  0  0  0  0  0  0  0  0
  -10.2513   -0.7875    8.3081 C   0  0  0  0  0  0  0  0  0  0  0  0
  -10.1859   -0.3847    9.4687 O   0  0  0  0  0  0  0  0  0  0  0  0
   -9.0092   -1.1116    7.4600 C   0  0  2  0  0  0  0  0  0  0  0  0
   -8.6452    0.1465    6.6715 C   0  0  0  0  0  0  0  0  0  0  0  0
   -5.6903    1.0454    4.3063 C   0  0  0  0  0  0  0  0  0  0  0  0
   -5.4190    2.4066    4.4566 C   0  0  0  0  0  0  0  0  0  0  0  0
   -5.9473    3.6664    2.8671 I   0  0  0  0  0  0  0  0  0  0  0  0
  1  2  1  0
  2  3  2  0
  3  4  1  0
  4  5  1  0
  5  6  1  0
  5  7  1  0
  5  8  1  0
  4  9  2  0
  9 10  1  0
 10 11  2  0
 10 12  1  0
 12 13  1  0
 13 14  1  0
 14 15  1  0
 15 16  1  0
 16 17  1  0
 17 18  1  0
 18 19  1  0
 19 20  2  0
 19 21  1  0
 21 22  1  6
  9 23  1  0
 23 24  2  0
 24 25  1  0
 24  2  1  0
 21 15  1  0
M  END
>  <ref_mols>  (1986) 
7gpj-a

>  <gnina_score>  (1986) 
5.319

>  <smina_score_min>  (1986) 
-4.78

>  <ref_pdb>  (1986) 
7gpj-a

>  <inspiration_score>  (1986) 
None

>  <inchikey>  (1986) 
VHHVWARSYYRDCQ-JTQLQIEISA-N

>  <tags>  (1986) 
BulkDock Fragalysis export,openbind_d68ev3c_c2_elabs_scored,openbind_d68ev3c_c2_elabs_scored_4.5plus,openbind_d68ev3c_c2_elabs,openbind_d68ev3c_c2_elabs_scored_5plus,syndirella_product,openbind_d68ev3c_c2_elabs_scored_top80percent,syndirella_placed

>  <smiles>  (1986) 
Cc1cc(C(F)(F)F)c(C(=O)NCCN2CCNC(=O)[C@@H]2C)cc1I

>  <subsites>  (1986) 
None

>  <rmsd(smina/fragmenstein)>  (1986) 
0.46

>  <alias>  (1986) 
None

>  <energy_score>  (1986) 
-39.516876

>  <HIPPO Pose ID>  (1986) 
138925

>  <distance_score>  (1986) 
0.773227

>  <HIPPO Compound ID>  (1986) 
163970

>  <gnina_score_min>  (1986) 
5.251

>  <name>  (1986) 
P138925

>  <exports>  (1986) 
['/opt/xchem-fragalysis-2/maxwin/BulkDock/OUTPUTS/openbind_d68ev3c_c2_elabs_1LOTQJ3.sdf', '/opt/xchem-fragalysis-2/maxwin/BulkDock/OUTPUTS/openbind_d68ev3c_c2_elabs_1LSYI5W.sdf']

$$$$
P138927
     RDKit          3D

 25 27  0  0  0  0  0  0  0  0999 V2000
   -4.8255    5.0883    5.0612 C   0  0  0  0  0  0  0  0  0  0  0  0
   -4.9254    3.8959    5.1606 C   0  0  0  0  0  0  0  0  0  0  0  0
   -5.0364    2.4755    5.2829 C   0  0  0  0  0  0  0  0  0  0  0  0
   -5.4967    1.7156    4.2055 C   0  0  0  0  0  0  0  0  0  0  0  0
   -5.6093    0.3296    4.3270 C   0  0  0  0  0  0  0  0  0  0  0  0
   -5.2641   -0.2922    5.5337 C   0  0  0  0  0  0  0  0  0  0  0  0
   -5.3773   -1.7636    5.6339 C   0  0  0  0  0  0  0  0  0  0  0  0
   -4.4692   -2.4281    5.3035 O   0  0  0  0  0  0  0  0  0  0  0  0
   -6.7214   -2.1539    6.1581 N   0  0  0  0  0  0  0  0  0  0  0  0
   -7.2885   -3.5197    6.5191 C   0  0  0  0  0  0  0  0  0  0  0  0
   -8.6176   -3.1601    5.9199 C   0  0  0  0  0  0  0  0  0  0  0  0
   -9.5286   -2.4017    6.8057 N   0  0  0  0  0  0  0  0  0  0  0  0
  -10.6657   -1.8931    6.0258 C   0  0  0  0  0  0  0  0  0  0  0  0
  -11.7618   -1.3824    6.9600 C   0  0  0  0  0  0  0  0  0  0  0  0
  -11.2605   -0.4374    7.9339 N   0  0  0  0  0  0  0  0  0  0  0  0
  -10.0003   -0.5762    8.4696 C   0  0  0  0  0  0  0  0  0  0  0  0
   -9.7249    0.0162    9.5131 O   0  0  0  0  0  0  0  0  0  0  0  0
   -8.9495   -1.3262    7.6386 C   0  0  0  0  0  0  0  0  0  0  0  0
   -7.7556   -2.3365    5.0018 C   0  0  0  0  0  0  0  0  0  0  0  0
   -4.7713    0.4492    6.6130 C   0  0  0  0  0  0  0  0  0  0  0  0
   -4.3588   -0.2336    7.8863 C   0  0  0  0  0  0  0  0  0  0  0  0
   -3.5383   -1.2989    7.6892 F   0  0  0  0  0  0  0  0  0  0  0  0
   -5.4199   -0.6788    8.6037 F   0  0  0  0  0  0  0  0  0  0  0  0
   -3.6695    0.6009    8.7101 F   0  0  0  0  0  0  0  0  0  0  0  0
   -4.6753    1.8471    6.4789 C   0  0  0  0  0  0  0  0  0  0  0  0
  1  2  3  0
  2  3  1  0
  3  4  2  0
  4  5  1  0
  5  6  2  0
  6  7  1  0
  7  8  2  0
  7  9  1  0
  9 10  1  0
 10 11  1  0
 11 12  1  0
 12 13  1  0
 13 14  1  0
 14 15  1  0
 15 16  1  0
 16 17  2  0
 16 18  1  0
 11 19  1  0
  6 20  1  0
 20 21  1  0
 21 22  1  0
 21 23  1  0
 21 24  1  0
 20 25  2  0
 25  3  1  0
 19  9  1  0
 18 12  1  0
M  END
>  <ref_mols>  (1987) 
7gpj-a

>  <gnina_score>  (1987) 
5.197

>  <smina_score_min>  (1987) 
-5.79

>  <ref_pdb>  (1987) 
7gpj-a

>  <inspiration_score>  (1987) 
None

>  <inchikey>  (1987) 
XFJVOURKNYFOQO-UHFFFAOYSA-N

>  <tags>  (1987) 
BulkDock Fragalysis export,openbind_d68ev3c_c2_elabs_scored,openbind_d68ev3c_c2_elabs_scored_4.5plus,openbind_d68ev3c_c2_elabs,openbind_d68ev3c_c2_elabs_scored_5plus,syndirella_product,openbind_d68ev3c_c2_elabs_scored_top80percent,syndirella_placed

>  <smiles>  (1987) 
C#Cc1ccc(C(=O)N2CC(N3CCNC(=O)C3)C2)c(C(F)(F)F)c1

>  <subsites>  (1987) 
None

>  <rmsd(smina/fragmenstein)>  (1987) 
0.633

>  <alias>  (1987) 
None

>  <energy_score>  (1987) 
-8.104438

>  <HIPPO Pose ID>  (1987) 
138927

>  <distance_score>  (1987) 
0.727178

>  <HIPPO Compound ID>  (1987) 
163977

>  <gnina_score_min>  (1987) 
5.22

>  <name>  (1987) 
P138927

>  <exports>  (1987) 
['/opt/xchem-fragalysis-2/maxwin/BulkDock/OUTPUTS/openbind_d68ev3c_c2_elabs_1LOTQJ3.sdf', '/opt/xchem-fragalysis-2/maxwin/BulkDock/OUTPUTS/openbind_d68ev3c_c2_elabs_1LSYI5W.sdf']

$$$$
P138934
     RDKit          3D

 25 26  0  0  0  0  0  0  0  0999 V2000
   -4.7066    3.9235    4.8699 C   0  0  0  0  0  0  0  0  0  0  0  0
   -4.8293    2.4271    4.9766 C   0  0  0  0  0  0  0  0  0  0  0  0
   -4.5245    1.8147    6.2059 C   0  0  0  0  0  0  0  0  0  0  0  0
   -4.6000    0.4192    6.3801 C   0  0  0  0  0  0  0  0  0  0  0  0
   -4.2651   -0.1952    7.7213 C   0  0  0  0  0  0  0  0  0  0  0  0
   -3.8521    0.7421    8.6226 F   0  0  0  0  0  0  0  0  0  0  0  0
   -3.2516   -1.0962    7.6775 F   0  0  0  0  0  0  0  0  0  0  0  0
   -5.3334   -0.8048    8.3004 F   0  0  0  0  0  0  0  0  0  0  0  0
   -5.0220   -0.3626    5.2937 C   0  0  0  0  0  0  0  0  0  0  0  0
   -5.2128   -1.8264    5.4734 C   0  0  0  0  0  0  0  0  0  0  0  0
   -4.3344   -2.4575    5.8922 O   0  0  0  0  0  0  0  0  0  0  0  0
   -6.6498   -2.2267    5.1395 N   0  0  0  0  0  0  0  0  0  0  0  0
   -7.3427   -3.4688    5.3384 C   0  0  0  0  0  0  0  0  0  0  0  0
   -8.6951   -3.2719    6.0196 C   0  0  0  0  0  0  0  0  0  0  0  0
   -8.6370   -2.5115    7.3584 C   0  0  0  0  0  0  0  0  0  0  0  0
   -9.3027   -1.1930    7.3086 N   0  0  0  0  0  0  0  0  0  0  0  0
   -9.7262   -0.7235    8.6400 C   0  0  0  0  0  0  0  0  0  0  0  0
   -9.0515    0.5624    9.1351 C   0  0  0  0  0  0  0  0  0  0  0  0
   -9.1299    1.5899    8.1285 N   0  0  0  0  0  0  0  0  0  0  0  0
   -8.9141    1.2655    6.8148 C   0  0  0  0  0  0  0  0  0  0  0  0
   -8.9312    2.1250    5.9373 O   0  0  0  0  0  0  0  0  0  0  0  0
   -8.5257   -0.1932    6.5520 C   0  0  0  0  0  0  0  0  0  0  0  0
   -5.3279    0.2278    4.0619 C   0  0  0  0  0  0  0  0  0  0  0  0
   -5.2273    1.6143    3.9044 C   0  0  0  0  0  0  0  0  0  0  0  0
   -5.6852    2.3813    2.0065 I   0  0  0  0  0  0  0  0  0  0  0  0
  1  2  1  0
  2  3  2  0
  3  4  1  0
  4  5  1  0
  5  6  1  0
  5  7  1  0
  5  8  1  0
  4  9  2  0
  9 10  1  0
 10 11  2  0
 10 12  1  0
 12 13  1  0
 13 14  1  0
 14 15  1  0
 15 16  1  0
 16 17  1  0
 17 18  1  0
 18 19  1  0
 19 20  1  0
 20 21  2  0
 20 22  1  0
  9 23  1  0
 23 24  2  0
 24 25  1  0
 24  2  1  0
 22 16  1  0
M  END
>  <ref_mols>  (1988) 
7gpj-a

>  <gnina_score>  (1988) 
5.04

>  <smina_score_min>  (1988) 
-5.032

>  <ref_pdb>  (1988) 
7gpj-a

>  <inspiration_score>  (1988) 
None

>  <inchikey>  (1988) 
VZGVVXDIKHCNRF-UHFFFAOYSA-N

>  <tags>  (1988) 
BulkDock Fragalysis export,openbind_d68ev3c_c2_elabs_scored,openbind_d68ev3c_c2_elabs_scored_4.5plus,openbind_d68ev3c_c2_elabs,openbind_d68ev3c_c2_elabs_scored_5plus,syndirella_product,openbind_d68ev3c_c2_elabs_scored_top80percent,syndirella_placed

>  <smiles>  (1988) 
Cc1cc(C(F)(F)F)c(C(=O)NCCCN2CCNC(=O)C2)cc1I

>  <subsites>  (1988) 
None

>  <rmsd(smina/fragmenstein)>  (1988) 
1.05

>  <alias>  (1988) 
None

>  <energy_score>  (1988) 
-17.216449

>  <HIPPO Pose ID>  (1988) 
138934

>  <distance_score>  (1988) 
0.693358

>  <HIPPO Compound ID>  (1988) 
163996

>  <gnina_score_min>  (1988) 
5.09

>  <name>  (1988) 
P138934

>  <exports>  (1988) 
['/opt/xchem-fragalysis-2/maxwin/BulkDock/OUTPUTS/openbind_d68ev3c_c2_elabs_1LOTQJ3.sdf', '/opt/xchem-fragalysis-2/maxwin/BulkDock/OUTPUTS/openbind_d68ev3c_c2_elabs_1LSYI5W.sdf']

$$$$
P138936
     RDKit          3D

 25 27  0  0  0  0  0  0  0  0999 V2000
   -4.8806    5.2136    5.2726 N   0  0  0  0  0  0  0  0  0  0  0  0
   -4.9441    4.0567    5.3255 C   0  0  0  0  0  0  0  0  0  0  0  0
   -5.0465    2.6271    5.3946 C   0  0  0  0  0  0  0  0  0  0  0  0
   -5.5246    1.9060    4.2959 C   0  0  0  0  0  0  0  0  0  0  0  0
   -5.6417    0.5173    4.3691 C   0  0  0  0  0  0  0  0  0  0  0  0
   -5.2886   -0.1496    5.5492 C   0  0  0  0  0  0  0  0  0  0  0  0
   -5.3829   -1.6207    5.5795 C   0  0  0  0  0  0  0  0  0  0  0  0
   -4.4914   -2.2405    5.1362 O   0  0  0  0  0  0  0  0  0  0  0  0
   -6.6912   -2.0745    6.1428 N   0  0  0  0  0  0  0  0  0  0  0  0
   -7.2270   -3.4760    6.4076 C   0  0  0  0  0  0  0  0  0  0  0  0
   -8.5891   -3.0836    5.9133 C   0  0  0  0  0  0  0  0  0  0  0  0
   -9.4602   -2.4542    6.9157 N   0  0  0  0  0  0  0  0  0  0  0  0
   -8.9374   -1.5862    7.9671 C   0  0  0  0  0  0  0  0  0  0  0  0
   -8.8142   -0.1129    7.5844 C   0  0  0  0  0  0  0  0  0  0  0  0
   -9.9337    0.3796    6.8116 N   0  0  0  0  0  0  0  0  0  0  0  0
  -10.6764   -0.4406    6.0005 C   0  0  0  0  0  0  0  0  0  0  0  0
  -11.3412    0.0601    5.0936 O   0  0  0  0  0  0  0  0  0  0  0  0
  -10.7112   -1.9374    6.3300 C   0  0  0  0  0  0  0  0  0  0  0  0
   -7.7922   -2.1619    5.0355 C   0  0  0  0  0  0  0  0  0  0  0  0
   -4.7818    0.5463    6.6502 C   0  0  0  0  0  0  0  0  0  0  0  0
   -4.3740   -0.1894    7.8974 C   0  0  0  0  0  0  0  0  0  0  0  0
   -3.6436    0.5986    8.7295 F   0  0  0  0  0  0  0  0  0  0  0  0
   -3.6041   -1.2823    7.6649 F   0  0  0  0  0  0  0  0  0  0  0  0
   -5.4476   -0.6023    8.6184 F   0  0  0  0  0  0  0  0  0  0  0  0
   -4.6774    1.9484    6.5649 C   0  0  0  0  0  0  0  0  0  0  0  0
  1  2  3  0
  2  3  1  0
  3  4  2  0
  4  5  1  0
  5  6  2  0
  6  7  1  0
  7  8  2  0
  7  9  1  0
  9 10  1  0
 10 11  1  0
 11 12  1  0
 12 13  1  0
 13 14  1  0
 14 15  1  0
 15 16  1  0
 16 17  2  0
 16 18  1  0
 11 19  1  0
  6 20  1  0
 20 21  1  0
 21 22  1  0
 21 23  1  0
 21 24  1  0
 20 25  2  0
 25  3  1  0
 19  9  1  0
 18 12  1  0
M  END
>  <ref_mols>  (1989) 
7gpj-a

>  <gnina_score>  (1989) 
5.088

>  <smina_score_min>  (1989) 
-5.386

>  <ref_pdb>  (1989) 
7gpj-a

>  <inspiration_score>  (1989) 
None

>  <inchikey>  (1989) 
UUVKAQZDELVEKP-UHFFFAOYSA-N

>  <tags>  (1989) 
BulkDock Fragalysis export,openbind_d68ev3c_c2_elabs_scored,openbind_d68ev3c_c2_elabs_scored_4.5plus,openbind_d68ev3c_c2_elabs,openbind_d68ev3c_c2_elabs_scored_5plus,syndirella_product,openbind_d68ev3c_c2_elabs_scored_top80percent,syndirella_placed

>  <smiles>  (1989) 
N#Cc1ccc(C(=O)N2CC(N3CCNC(=O)C3)C2)c(C(F)(F)F)c1

>  <subsites>  (1989) 
None

>  <rmsd(smina/fragmenstein)>  (1989) 
0.89

>  <alias>  (1989) 
None

>  <energy_score>  (1989) 
-11.63409

>  <HIPPO Pose ID>  (1989) 
138936

>  <distance_score>  (1989) 
0.688135

>  <HIPPO Compound ID>  (1989) 
164045

>  <gnina_score_min>  (1989) 
5.172

>  <name>  (1989) 
P138936

>  <exports>  (1989) 
['/opt/xchem-fragalysis-2/maxwin/BulkDock/OUTPUTS/openbind_d68ev3c_c2_elabs_1LOTQJ3.sdf', '/opt/xchem-fragalysis-2/maxwin/BulkDock/OUTPUTS/openbind_d68ev3c_c2_elabs_1LSYI5W.sdf']

$$$$
P138942
     RDKit          3D

 25 26  0  0  0  0  0  0  0  0999 V2000
   -4.5345    4.5580    3.9481 C   0  0  0  0  0  0  0  0  0  0  0  0
   -4.5352    3.8615    5.1873 O   0  0  0  0  0  0  0  0  0  0  0  0
   -4.7394    2.5116    5.1354 C   0  0  0  0  0  0  0  0  0  0  0  0
   -5.1692    1.7901    4.0238 C   0  0  0  0  0  0  0  0  0  0  0  0
   -5.3352    0.4050    4.1113 C   0  0  0  0  0  0  0  0  0  0  0  0
   -5.0702   -0.2642    5.3153 C   0  0  0  0  0  0  0  0  0  0  0  0
   -5.2971   -1.7328    5.3886 C   0  0  0  0  0  0  0  0  0  0  0  0
   -4.4235   -2.4231    5.7163 O   0  0  0  0  0  0  0  0  0  0  0  0
   -6.7469   -2.0682    5.0340 N   0  0  0  0  0  0  0  0  0  0  0  0
   -7.4618   -3.3186    5.0980 C   0  0  0  0  0  0  0  0  0  0  0  0
   -8.0937   -3.5781    6.4803 C   0  0  0  0  0  0  0  0  0  0  0  0
   -9.1459   -2.6839    6.9760 N   0  0  0  0  0  0  0  0  0  0  0  0
  -10.4243   -2.7443    6.2637 C   0  0  0  0  0  0  0  0  0  0  0  0
  -10.5494   -1.7833    5.0784 C   0  0  0  0  0  0  0  0  0  0  0  0
   -9.9420   -0.4881    5.3013 N   0  0  0  0  0  0  0  0  0  0  0  0
   -8.8733   -0.3314    6.1462 C   0  0  0  0  0  0  0  0  0  0  0  0
   -8.1110    0.6175    5.9642 O   0  0  0  0  0  0  0  0  0  0  0  0
   -8.7249   -1.3121    7.3184 C   0  0  1  0  0  0  0  0  0  0  0  0
   -9.5457   -0.7442    8.4745 C   0  0  0  0  0  0  0  0  0  0  0  0
   -4.6190    0.4422    6.4391 C   0  0  0  0  0  0  0  0  0  0  0  0
   -4.2943   -0.2473    7.7388 C   0  0  0  0  0  0  0  0  0  0  0  0
   -3.8343    0.6258    8.6815 F   0  0  0  0  0  0  0  0  0  0  0  0
   -3.3102   -1.1781    7.6299 F   0  0  0  0  0  0  0  0  0  0  0  0
   -5.3673   -0.8588    8.3032 F   0  0  0  0  0  0  0  0  0  0  0  0
   -4.4821    1.8397    6.3338 C   0  0  0  0  0  0  0  0  0  0  0  0
  1  2  1  0
  2  3  1  0
  3  4  2  0
  4  5  1  0
  5  6  2  0
  6  7  1  0
  7  8  2  0
  7  9  1  0
  9 10  1  0
 10 11  1  0
 11 12  1  0
 12 13  1  0
 13 14  1  0
 14 15  1  0
 15 16  1  0
 16 17  2  0
 16 18  1  0
 18 19  1  1
  6 20  1  0
 20 21  1  0
 21 22  1  0
 21 23  1  0
 21 24  1  0
 20 25  2  0
 25  3  1  0
 18 12  1  0
M  END
>  <ref_mols>  (1990) 
7gpj-a

>  <gnina_score>  (1990) 
5.077

>  <smina_score_min>  (1990) 
-4.748

>  <ref_pdb>  (1990) 
7gpj-a

>  <inspiration_score>  (1990) 
None

>  <inchikey>  (1990) 
WUHHOQXPHGURHO-SNVBAGLBSA-N

>  <tags>  (1990) 
BulkDock Fragalysis export,openbind_d68ev3c_c2_elabs_scored,openbind_d68ev3c_c2_elabs_scored_4.5plus,openbind_d68ev3c_c2_elabs,openbind_d68ev3c_c2_elabs_scored_5plus,syndirella_product,openbind_d68ev3c_c2_elabs_scored_top80percent,syndirella_placed

>  <smiles>  (1990) 
COc1ccc(C(=O)NCCN2CCNC(=O)[C@H]2C)c(C(F)(F)F)c1

>  <subsites>  (1990) 
None

>  <rmsd(smina/fragmenstein)>  (1990) 
0.521

>  <alias>  (1990) 
None

>  <energy_score>  (1990) 
-34.01041

>  <HIPPO Pose ID>  (1990) 
138942

>  <distance_score>  (1990) 
0.63415

>  <HIPPO Compound ID>  (1990) 
164087

>  <gnina_score_min>  (1990) 
5.004

>  <name>  (1990) 
P138942

>  <exports>  (1990) 
['/opt/xchem-fragalysis-2/maxwin/BulkDock/OUTPUTS/openbind_d68ev3c_c2_elabs_1LOTQJ3.sdf', '/opt/xchem-fragalysis-2/maxwin/BulkDock/OUTPUTS/openbind_d68ev3c_c2_elabs_1LSYI5W.sdf']

$$$$
P138943
     RDKit          3D

 25 27  0  0  0  0  0  0  0  0999 V2000
   -4.9615    4.4986    4.0536 C   0  0  0  0  0  0  0  0  0  0  0  0
   -4.8256    3.8187    5.2949 O   0  0  0  0  0  0  0  0  0  0  0  0
   -4.9971    2.4638    5.2821 C   0  0  0  0  0  0  0  0  0  0  0  0
   -5.4638    1.7059    4.2085 C   0  0  0  0  0  0  0  0  0  0  0  0
   -5.5938    0.3199    4.3355 C   0  0  0  0  0  0  0  0  0  0  0  0
   -5.2597   -0.3063    5.5422 C   0  0  0  0  0  0  0  0  0  0  0  0
   -5.3802   -1.7766    5.6415 C   0  0  0  0  0  0  0  0  0  0  0  0
   -4.4752   -2.4457    5.3109 O   0  0  0  0  0  0  0  0  0  0  0  0
   -6.7257   -2.1603    6.1668 N   0  0  0  0  0  0  0  0  0  0  0  0
   -7.7614   -2.3387    5.0114 C   0  0  0  0  0  0  0  0  0  0  0  0
   -8.6265   -3.1583    5.9300 C   0  0  0  0  0  0  0  0  0  0  0  0
   -9.5339   -2.3968    6.8170 N   0  0  0  0  0  0  0  0  0  0  0  0
  -10.6734   -1.8901    6.0396 C   0  0  0  0  0  0  0  0  0  0  0  0
  -11.7658   -1.3713    6.9742 C   0  0  0  0  0  0  0  0  0  0  0  0
  -11.2597   -0.4246    7.9437 N   0  0  0  0  0  0  0  0  0  0  0  0
   -9.9994   -0.5667    8.4782 C   0  0  0  0  0  0  0  0  0  0  0  0
   -9.7232    0.0233    9.5228 O   0  0  0  0  0  0  0  0  0  0  0  0
   -8.9514   -1.3201    7.6464 C   0  0  0  0  0  0  0  0  0  0  0  0
   -7.2990   -3.5230    6.5290 C   0  0  0  0  0  0  0  0  0  0  0  0
   -4.7689    0.4317    6.6212 C   0  0  0  0  0  0  0  0  0  0  0  0
   -4.3632   -0.2481    7.8970 C   0  0  0  0  0  0  0  0  0  0  0  0
   -3.6747    0.5835    8.7245 F   0  0  0  0  0  0  0  0  0  0  0  0
   -3.5440   -1.3152    7.7029 F   0  0  0  0  0  0  0  0  0  0  0  0
   -5.4284   -0.6927    8.6090 F   0  0  0  0  0  0  0  0  0  0  0  0
   -4.6630    1.8262    6.4814 C   0  0  0  0  0  0  0  0  0  0  0  0
  1  2  1  0
  2  3  1  0
  3  4  2  0
  4  5  1  0
  5  6  2  0
  6  7  1  0
  7  8  2  0
  7  9  1  0
  9 10  1  0
 10 11  1  0
 11 12  1  0
 12 13  1  0
 13 14  1  0
 14 15  1  0
 15 16  1  0
 16 17  2  0
 16 18  1  0
 11 19  1  0
  6 20  1  0
 20 21  1  0
 21 22  1  0
 21 23  1  0
 21 24  1  0
 20 25  2  0
 25  3  1  0
 19  9  1  0
 18 12  1  0
M  END
>  <ref_mols>  (1991) 
7gpj-a

>  <gnina_score>  (1991) 
5.111

>  <smina_score_min>  (1991) 
-5.708

>  <ref_pdb>  (1991) 
7gpj-a

>  <inspiration_score>  (1991) 
None

>  <inchikey>  (1991) 
FOQVNFVEFUUFIU-UHFFFAOYSA-N

>  <tags>  (1991) 
BulkDock Fragalysis export,openbind_d68ev3c_c2_elabs_scored,openbind_d68ev3c_c2_elabs_scored_4.5plus,openbind_d68ev3c_c2_elabs,openbind_d68ev3c_c2_elabs_scored_5plus,syndirella_product,openbind_d68ev3c_c2_elabs_scored_top80percent,syndirella_placed

>  <smiles>  (1991) 
COc1ccc(C(=O)N2CC(N3CCNC(=O)C3)C2)c(C(F)(F)F)c1

>  <subsites>  (1991) 
None

>  <rmsd(smina/fragmenstein)>  (1991) 
0.696

>  <alias>  (1991) 
None

>  <energy_score>  (1991) 
-23.140463

>  <HIPPO Pose ID>  (1991) 
138943

>  <distance_score>  (1991) 
0.728914

>  <HIPPO Compound ID>  (1991) 
164088

>  <gnina_score_min>  (1991) 
5.172

>  <name>  (1991) 
P138943

>  <exports>  (1991) 
['/opt/xchem-fragalysis-2/maxwin/BulkDock/OUTPUTS/openbind_d68ev3c_c2_elabs_1LOTQJ3.sdf', '/opt/xchem-fragalysis-2/maxwin/BulkDock/OUTPUTS/openbind_d68ev3c_c2_elabs_1LSYI5W.sdf']

$$$$
P138945
     RDKit          3D

 25 27  0  0  0  0  0  0  0  0999 V2000
   -6.3346    0.1332    2.0017 C   0  0  0  0  0  0  0  0  0  0  0  0
   -6.1024   -0.4676    3.2694 O   0  0  0  0  0  0  0  0  0  0  0  0
   -5.6501    0.3371    4.2818 C   0  0  0  0  0  0  0  0  0  0  0  0
   -5.5051    1.7242    4.1847 C   0  0  0  0  0  0  0  0  0  0  0  0
   -5.0203    2.4624    5.2664 C   0  0  0  0  0  0  0  0  0  0  0  0
   -4.6712    1.8226    6.4542 C   0  0  0  0  0  0  0  0  0  0  0  0
   -4.7974    0.4293    6.5781 C   0  0  0  0  0  0  0  0  0  0  0  0
   -4.3901   -0.2614    7.8507 C   0  0  0  0  0  0  0  0  0  0  0  0
   -5.4576   -0.6662    8.5854 F   0  0  0  0  0  0  0  0  0  0  0  0
   -3.6727    0.5621    8.6660 F   0  0  0  0  0  0  0  0  0  0  0  0
   -3.5989   -1.3481    7.6615 F   0  0  0  0  0  0  0  0  0  0  0  0
   -5.3126   -0.2963    5.4927 C   0  0  0  0  0  0  0  0  0  0  0  0
   -5.4313   -1.7679    5.6051 C   0  0  0  0  0  0  0  0  0  0  0  0
   -4.5249   -2.4360    5.2727 O   0  0  0  0  0  0  0  0  0  0  0  0
   -6.7589   -2.1528    6.1806 N   0  0  0  0  0  0  0  0  0  0  0  0
   -7.8252   -2.3861    5.0580 C   0  0  0  0  0  0  0  0  0  0  0  0
   -8.6519   -3.1805    6.0368 C   0  0  0  0  0  0  0  0  0  0  0  0
   -9.5130   -2.4118    6.9712 N   0  0  0  0  0  0  0  0  0  0  0  0
   -8.9843   -1.1589    7.5202 C   0  0  0  0  0  0  0  0  0  0  0  0
   -9.9658   -0.5526    8.5253 C   0  0  0  0  0  0  0  0  0  0  0  0
  -11.3001   -0.4072    7.9859 N   0  0  0  0  0  0  0  0  0  0  0  0
  -11.8212   -1.3744    7.1599 C   0  0  0  0  0  0  0  0  0  0  0  0
  -13.0438   -1.4526    7.0192 O   0  0  0  0  0  0  0  0  0  0  0  0
  -10.8379   -2.2163    6.3363 C   0  0  0  0  0  0  0  0  0  0  0  0
   -7.3008   -3.5077    6.6036 C   0  0  0  0  0  0  0  0  0  0  0  0
  1  2  1  0
  2  3  1  0
  3  4  2  0
  4  5  1  0
  5  6  2  0
  6  7  1  0
  7  8  1  0
  8  9  1  0
  8 10  1  0
  8 11  1  0
  7 12  2  0
 12 13  1  0
 13 14  2  0
 13 15  1  0
 15 16  1  0
 16 17  1  0
 17 18  1  0
 18 19  1  0
 19 20  1  0
 20 21  1  0
 21 22  1  0
 22 23  2  0
 22 24  1  0
 17 25  1  0
 12  3  1  0
 25 15  1  0
 24 18  1  0
M  END
>  <ref_mols>  (1992) 
7gpj-a

>  <gnina_score>  (1992) 
5.268

>  <smina_score_min>  (1992) 
-5.549

>  <ref_pdb>  (1992) 
7gpj-a

>  <inspiration_score>  (1992) 
None

>  <inchikey>  (1992) 
KDXLOZJLVLAWEL-UHFFFAOYSA-N

>  <tags>  (1992) 
BulkDock Fragalysis export,openbind_d68ev3c_c2_elabs_scored,openbind_d68ev3c_c2_elabs_scored_4.5plus,openbind_d68ev3c_c2_elabs,openbind_d68ev3c_c2_elabs_scored_5plus,syndirella_product,openbind_d68ev3c_c2_elabs_scored_top80percent,syndirella_placed

>  <smiles>  (1992) 
COc1cccc(C(F)(F)F)c1C(=O)N1CC(N2CCNC(=O)C2)C1

>  <subsites>  (1992) 
None

>  <rmsd(smina/fragmenstein)>  (1992) 
0.64

>  <alias>  (1992) 
None

>  <energy_score>  (1992) 
-43.006

>  <HIPPO Pose ID>  (1992) 
138945

>  <distance_score>  (1992) 
0.70468

>  <HIPPO Compound ID>  (1992) 
164108

>  <gnina_score_min>  (1992) 
5.156

>  <name>  (1992) 
P138945

>  <exports>  (1992) 
['/opt/xchem-fragalysis-2/maxwin/BulkDock/OUTPUTS/openbind_d68ev3c_c2_elabs_1LOTQJ3.sdf', '/opt/xchem-fragalysis-2/maxwin/BulkDock/OUTPUTS/openbind_d68ev3c_c2_elabs_1LSYI5W.sdf']

$$$$
P138948
     RDKit          3D

 25 26  0  0  0  0  0  0  0  0999 V2000
   -9.1989    0.9115    4.9305 C   0  0  0  0  0  0  0  0  0  0  0  0
   -9.2245   -0.3710    5.6044 N   0  0  0  0  0  0  0  0  0  0  0  0
   -9.2301   -0.3857    7.0602 C   0  0  0  0  0  0  0  0  0  0  0  0
   -8.7367   -1.7215    7.6325 C   0  0  0  0  0  0  0  0  0  0  0  0
   -9.1859   -2.9070    6.9030 N   0  0  0  0  0  0  0  0  0  0  0  0
   -8.1119   -3.8208    6.5034 C   0  0  0  0  0  0  0  0  0  0  0  0
   -7.3376   -3.4887    5.2141 C   0  0  0  0  0  0  0  0  0  0  0  0
   -6.7536   -2.1711    5.2465 N   0  0  0  0  0  0  0  0  0  0  0  0
   -5.3038   -1.7329    5.4365 C   0  0  0  0  0  0  0  0  0  0  0  0
   -4.3545   -2.3560    5.6741 O   0  0  0  0  0  0  0  0  0  0  0  0
   -5.1780   -0.2612    5.3707 C   0  0  0  0  0  0  0  0  0  0  0  0
   -4.6803    0.4625    6.4676 C   0  0  0  0  0  0  0  0  0  0  0  0
   -4.2872   -0.2246    7.7548 C   0  0  0  0  0  0  0  0  0  0  0  0
   -3.8120    0.6644    8.6728 F   0  0  0  0  0  0  0  0  0  0  0  0
   -3.2991   -1.1415    7.6163 F   0  0  0  0  0  0  0  0  0  0  0  0
   -5.3394   -0.8378    8.3543 F   0  0  0  0  0  0  0  0  0  0  0  0
   -4.5772    1.8627    6.3517 C   0  0  0  0  0  0  0  0  0  0  0  0
   -4.9353    2.5139    5.1680 C   0  0  0  0  0  0  0  0  0  0  0  0
   -5.4112    1.7743    4.0873 C   0  0  0  0  0  0  0  0  0  0  0  0
   -5.8919    2.6670    2.4922 Br  0  0  0  0  0  0  0  0  0  0  0  0
   -5.5324    0.3910    4.1881 C   0  0  0  0  0  0  0  0  0  0  0  0
   -5.9873   -0.3192    3.1443 F   0  0  0  0  0  0  0  0  0  0  0  0
  -10.1970   -2.6440    5.8645 C   0  0  0  0  0  0  0  0  0  0  0  0
   -9.8455   -1.4498    4.9591 C   0  0  0  0  0  0  0  0  0  0  0  0
  -10.1036   -1.4313    3.7567 O   0  0  0  0  0  0  0  0  0  0  0  0
  1  2  1  0
  2  3  1  0
  3  4  1  0
  4  5  1  0
  5  6  1  0
  6  7  1  0
  7  8  1  0
  8  9  1  0
  9 10  2  0
  9 11  1  0
 11 12  2  0
 12 13  1  0
 13 14  1  0
 13 15  1  0
 13 16  1  0
 12 17  1  0
 17 18  2  0
 18 19  1  0
 19 20  1  0
 19 21  2  0
 21 22  1  0
  5 23  1  0
 23 24  1  0
 24 25  2  0
 24  2  1  0
 21 11  1  0
M  END
>  <ref_mols>  (1993) 
7gpj-a

>  <gnina_score>  (1993) 
5.117

>  <smina_score_min>  (1993) 
-5.025

>  <ref_pdb>  (1993) 
7gpj-a

>  <inspiration_score>  (1993) 
None

>  <inchikey>  (1993) 
FCEWLFCMFZQTCO-UHFFFAOYSA-N

>  <tags>  (1993) 
BulkDock Fragalysis export,openbind_d68ev3c_c2_elabs_scored,openbind_d68ev3c_c2_elabs_scored_4.5plus,openbind_d68ev3c_c2_elabs,openbind_d68ev3c_c2_elabs_scored_5plus,syndirella_product,openbind_d68ev3c_c2_elabs_scored_top80percent,syndirella_placed

>  <smiles>  (1993) 
CN1CCN(CCNC(=O)c2c(C(F)(F)F)ccc(Br)c2F)CC1=O

>  <subsites>  (1993) 
None

>  <rmsd(smina/fragmenstein)>  (1993) 
0.747

>  <alias>  (1993) 
None

>  <energy_score>  (1993) 
-35.344543

>  <HIPPO Pose ID>  (1993) 
138948

>  <distance_score>  (1993) 
0.714462

>  <HIPPO Compound ID>  (1993) 
164118

>  <gnina_score_min>  (1993) 
5.108

>  <name>  (1993) 
P138948

>  <exports>  (1993) 
['/opt/xchem-fragalysis-2/maxwin/BulkDock/OUTPUTS/openbind_d68ev3c_c2_elabs_1LOTQJ3.sdf', '/opt/xchem-fragalysis-2/maxwin/BulkDock/OUTPUTS/openbind_d68ev3c_c2_elabs_1LSYI5W.sdf']

$$$$
P138949
     RDKit          3D

 25 27  0  0  0  0  0  0  0  0999 V2000
  -10.0802   -0.5965    9.9539 O   0  0  0  0  0  0  0  0  0  0  0  0
   -9.8692   -0.6992    8.7493 C   0  0  0  0  0  0  0  0  0  0  0  0
   -8.9430   -1.7461    8.0943 C   0  0  0  0  0  0  0  0  0  0  0  0
   -9.4647   -2.2659    6.8220 N   0  0  0  0  0  0  0  0  0  0  0  0
   -8.6427   -3.1477    5.9756 C   0  0  0  0  0  0  0  0  0  0  0  0
   -7.7472   -2.3997    5.0023 C   0  0  0  0  0  0  0  0  0  0  0  0
   -6.7348   -2.1900    6.1611 N   0  0  0  0  0  0  0  0  0  0  0  0
   -5.3858   -1.8042    5.6470 C   0  0  0  0  0  0  0  0  0  0  0  0
   -4.4703   -2.4713    5.3422 O   0  0  0  0  0  0  0  0  0  0  0  0
   -5.2674   -0.3403    5.5368 C   0  0  0  0  0  0  0  0  0  0  0  0
   -4.7633    0.4143    6.6022 C   0  0  0  0  0  0  0  0  0  0  0  0
   -4.3548   -0.2518    7.8884 C   0  0  0  0  0  0  0  0  0  0  0  0
   -3.5409   -1.3226    7.7085 F   0  0  0  0  0  0  0  0  0  0  0  0
   -3.6669    0.5950    8.6990 F   0  0  0  0  0  0  0  0  0  0  0  0
   -5.4231   -0.6777    8.6071 F   0  0  0  0  0  0  0  0  0  0  0  0
   -4.6504    1.8080    6.4416 C   0  0  0  0  0  0  0  0  0  0  0  0
   -5.0020    2.4190    5.2335 C   0  0  0  0  0  0  0  0  0  0  0  0
   -5.4788    1.6434    4.1771 C   0  0  0  0  0  0  0  0  0  0  0  0
   -5.9376    2.4777    2.5444 Br  0  0  0  0  0  0  0  0  0  0  0  0
   -5.6106    0.2654    4.3281 C   0  0  0  0  0  0  0  0  0  0  0  0
   -6.0629   -0.4832    3.3091 F   0  0  0  0  0  0  0  0  0  0  0  0
   -7.3000   -3.5483    6.5415 C   0  0  0  0  0  0  0  0  0  0  0  0
  -10.3871   -1.4094    6.0938 C   0  0  0  0  0  0  0  0  0  0  0  0
  -10.2309    0.0665    6.4765 C   0  0  0  0  0  0  0  0  0  0  0  0
  -10.3939    0.2384    7.8923 N   0  0  0  0  0  0  0  0  0  0  0  0
  1  2  2  0
  2  3  1  0
  3  4  1  0
  4  5  1  0
  5  6  1  0
  6  7  1  0
  7  8  1  0
  8  9  2  0
  8 10  1  0
 10 11  2  0
 11 12  1  0
 12 13  1  0
 12 14  1  0
 12 15  1  0
 11 16  1  0
 16 17  2  0
 17 18  1  0
 18 19  1  0
 18 20  2  0
 20 21  1  0
  7 22  1  0
  4 23  1  0
 23 24  1  0
 24 25  1  0
 25  2  1  0
 22  5  1  0
 20 10  1  0
M  END
>  <ref_mols>  (1994) 
7gpj-a

>  <gnina_score>  (1994) 
5.276

>  <smina_score_min>  (1994) 
-5.765

>  <ref_pdb>  (1994) 
7gpj-a

>  <inspiration_score>  (1994) 
None

>  <inchikey>  (1994) 
LHGYVENETUVBDA-UHFFFAOYSA-N

>  <tags>  (1994) 
BulkDock Fragalysis export,openbind_d68ev3c_c2_elabs_scored,openbind_d68ev3c_c2_elabs_scored_4.5plus,openbind_d68ev3c_c2_elabs,openbind_d68ev3c_c2_elabs_scored_5plus,syndirella_product,openbind_d68ev3c_c2_elabs_scored_top80percent,syndirella_placed

>  <smiles>  (1994) 
O=C1CN(C2CN(C(=O)c3c(C(F)(F)F)ccc(Br)c3F)C2)CCN1

>  <subsites>  (1994) 
None

>  <rmsd(smina/fragmenstein)>  (1994) 
0.514

>  <alias>  (1994) 
None

>  <energy_score>  (1994) 
-2.925182

>  <HIPPO Pose ID>  (1994) 
138949

>  <distance_score>  (1994) 
1.063547

>  <HIPPO Compound ID>  (1994) 
164121

>  <gnina_score_min>  (1994) 
5.27

>  <name>  (1994) 
P138949

>  <exports>  (1994) 
['/opt/xchem-fragalysis-2/maxwin/BulkDock/OUTPUTS/openbind_d68ev3c_c2_elabs_1LOTQJ3.sdf', '/opt/xchem-fragalysis-2/maxwin/BulkDock/OUTPUTS/openbind_d68ev3c_c2_elabs_1LSYI5W.sdf']

$$$$
P138950
     RDKit          3D

 25 26  0  0  0  0  0  0  0  0999 V2000
   -8.4729   -0.5238    4.4678 C   0  0  0  0  0  0  0  0  0  0  0  0
   -9.3744   -0.6147    5.6803 C   0  0  2  0  0  0  0  0  0  0  0  0
   -8.8993    0.1908    6.9045 C   0  0  0  0  0  0  0  0  0  0  0  0
   -7.8714    0.8661    6.9250 O   0  0  0  0  0  0  0  0  0  0  0  0
   -9.7137    0.1328    8.0090 N   0  0  0  0  0  0  0  0  0  0  0  0
  -10.3858   -1.1194    8.3011 C   0  0  0  0  0  0  0  0  0  0  0  0
  -10.7979   -1.9277    7.0548 C   0  0  0  0  0  0  0  0  0  0  0  0
   -9.7595   -1.9862    6.0278 N   0  0  0  0  0  0  0  0  0  0  0  0
   -8.7342   -3.0360    6.1730 C   0  0  0  0  0  0  0  0  0  0  0  0
   -7.5356   -2.8543    7.1272 C   0  0  0  0  0  0  0  0  0  0  0  0
   -6.6550   -1.7678    6.7663 N   0  0  0  0  0  0  0  0  0  0  0  0
   -5.4121   -1.7490    5.8683 C   0  0  0  0  0  0  0  0  0  0  0  0
   -4.8539   -2.6175    5.3378 O   0  0  0  0  0  0  0  0  0  0  0  0
   -4.9990   -0.3425    5.6340 C   0  0  0  0  0  0  0  0  0  0  0  0
   -4.5928    0.4643    6.7005 C   0  0  0  0  0  0  0  0  0  0  0  0
   -4.3336   -0.1475    8.0451 C   0  0  0  0  0  0  0  0  0  0  0  0
   -3.5384    0.6465    8.8033 F   0  0  0  0  0  0  0  0  0  0  0  0
   -3.6888   -1.3409    7.9677 F   0  0  0  0  0  0  0  0  0  0  0  0
   -5.4627   -0.3462    8.7701 F   0  0  0  0  0  0  0  0  0  0  0  0
   -4.4122    1.8421    6.4788 C   0  0  0  0  0  0  0  0  0  0  0  0
   -4.5783    2.3855    5.2021 C   0  0  0  0  0  0  0  0  0  0  0  0
   -4.9245    1.5549    4.1375 C   0  0  0  0  0  0  0  0  0  0  0  0
   -5.1086    2.2929    2.4066 Br  0  0  0  0  0  0  0  0  0  0  0  0
   -5.1331    0.1936    4.3515 C   0  0  0  0  0  0  0  0  0  0  0  0
   -5.4973   -0.5933    3.3268 F   0  0  0  0  0  0  0  0  0  0  0  0
  2  1  1  6
  2  3  1  0
  3  4  2  0
  3  5  1  0
  5  6  1  0
  6  7  1  0
  7  8  1  0
  8  9  1  0
  9 10  1  0
 10 11  1  0
 11 12  1  0
 12 13  2  0
 12 14  1  0
 14 15  2  0
 15 16  1  0
 16 17  1  0
 16 18  1  0
 16 19  1  0
 15 20  1  0
 20 21  2  0
 21 22  1  0
 22 23  1  0
 22 24  2  0
 24 25  1  0
  8  2  1  0
 24 14  1  0
M  END
>  <ref_mols>  (1995) 
7gpj-a

>  <gnina_score>  (1995) 
4.939

>  <smina_score_min>  (1995) 
-4.811

>  <ref_pdb>  (1995) 
7gpj-a

>  <inspiration_score>  (1995) 
None

>  <inchikey>  (1995) 
ZIUZZPYVBXFGCT-MRVPVSSYSA-N

>  <tags>  (1995) 
BulkDock Fragalysis export,openbind_d68ev3c_c2_elabs_scored,openbind_d68ev3c_c2_elabs_scored_4.5plus,openbind_d68ev3c_c2_elabs,openbind_d68ev3c_c2_elabs_scored_5plus,syndirella_product,openbind_d68ev3c_c2_elabs_scored_top80percent,syndirella_placed

>  <smiles>  (1995) 
C[C@@H]1C(=O)NCCN1CCNC(=O)c1c(C(F)(F)F)ccc(Br)c1F

>  <subsites>  (1995) 
None

>  <rmsd(smina/fragmenstein)>  (1995) 
1.017

>  <alias>  (1995) 
None

>  <energy_score>  (1995) 
-11.554392

>  <HIPPO Pose ID>  (1995) 
138950

>  <distance_score>  (1995) 
1.166988

>  <HIPPO Compound ID>  (1995) 
164122

>  <gnina_score_min>  (1995) 
5.042

>  <name>  (1995) 
P138950

>  <exports>  (1995) 
['/opt/xchem-fragalysis-2/maxwin/BulkDock/OUTPUTS/openbind_d68ev3c_c2_elabs_1LOTQJ3.sdf', '/opt/xchem-fragalysis-2/maxwin/BulkDock/OUTPUTS/openbind_d68ev3c_c2_elabs_1LSYI5W.sdf']

$$$$
P138952
     RDKit          3D

 25 26  0  0  0  0  0  0  0  0999 V2000
  -11.3738   -0.1055    9.5302 O   0  0  0  0  0  0  0  0  0  0  0  0
  -10.8405   -0.3077    8.4393 C   0  0  0  0  0  0  0  0  0  0  0  0
   -9.3179   -0.4200    8.2706 C   0  0  0  0  0  0  0  0  0  0  0  0
   -8.8704   -1.2198    7.0955 N   0  0  0  0  0  0  0  0  0  0  0  0
   -9.0642   -2.6668    7.3559 C   0  0  0  0  0  0  0  0  0  0  0  0
   -8.4341   -3.5975    6.3087 C   0  0  0  0  0  0  0  0  0  0  0  0
   -6.9208   -3.4784    6.2051 C   0  0  0  0  0  0  0  0  0  0  0  0
   -6.4865   -2.1213    6.0505 N   0  0  0  0  0  0  0  0  0  0  0  0
   -5.1852   -1.5561    5.5038 C   0  0  0  0  0  0  0  0  0  0  0  0
   -4.2192   -2.0931    5.1589 O   0  0  0  0  0  0  0  0  0  0  0  0
   -5.2188   -0.0855    5.5078 C   0  0  0  0  0  0  0  0  0  0  0  0
   -5.6632    0.5780    4.3615 C   0  0  0  0  0  0  0  0  0  0  0  0
   -5.6842    1.9715    4.3418 C   0  0  0  0  0  0  0  0  0  0  0  0
   -5.2653    2.7042    5.4626 C   0  0  0  0  0  0  0  0  0  0  0  0
   -5.3093    4.2057    5.4519 C   0  0  0  0  0  0  0  0  0  0  0  0
   -3.6851    4.9034    4.6562 Br  0  0  0  0  0  0  0  0  0  0  0  0
   -4.8036    2.0148    6.5978 C   0  0  0  0  0  0  0  0  0  0  0  0
   -4.7744    0.6101    6.6342 C   0  0  0  0  0  0  0  0  0  0  0  0
   -4.3170   -0.1293    7.8634 C   0  0  0  0  0  0  0  0  0  0  0  0
   -5.3593   -0.6275    8.5784 F   0  0  0  0  0  0  0  0  0  0  0  0
   -3.4750   -1.1658    7.6182 F   0  0  0  0  0  0  0  0  0  0  0  0
   -3.6393    0.6848    8.7169 F   0  0  0  0  0  0  0  0  0  0  0  0
   -9.6003   -0.7465    5.9033 C   0  0  0  0  0  0  0  0  0  0  0  0
  -11.1277   -0.8357    6.0430 C   0  0  0  0  0  0  0  0  0  0  0  0
  -11.6069   -0.2982    7.2987 N   0  0  0  0  0  0  0  0  0  0  0  0
  1  2  2  0
  2  3  1  0
  3  4  1  0
  4  5  1  0
  5  6  1  0
  6  7  1  0
  7  8  1  0
  8  9  1  0
  9 10  2  0
  9 11  1  0
 11 12  2  0
 12 13  1  0
 13 14  2  0
 14 15  1  0
 15 16  1  0
 14 17  1  0
 17 18  2  0
 18 19  1  0
 19 20  1  0
 19 21  1  0
 19 22  1  0
  4 23  1  0
 23 24  1  0
 24 25  1  0
 25  2  1  0
 18 11  1  0
M  END
>  <ref_mols>  (1996) 
7gpj-a

>  <gnina_score>  (1996) 
4.947

>  <smina_score_min>  (1996) 
-5.238

>  <ref_pdb>  (1996) 
7gpj-a

>  <inspiration_score>  (1996) 
None

>  <inchikey>  (1996) 
OJAVFNJYWBOXHW-UHFFFAOYSA-N

>  <tags>  (1996) 
BulkDock Fragalysis export,openbind_d68ev3c_c2_elabs_scored,openbind_d68ev3c_c2_elabs_scored_4.5plus,openbind_d68ev3c_c2_elabs,openbind_d68ev3c_c2_elabs_scored_5plus,syndirella_product,openbind_d68ev3c_c2_elabs_scored_top80percent,syndirella_placed

>  <smiles>  (1996) 
O=C1CN(CCCNC(=O)c2ccc(CBr)cc2C(F)(F)F)CCN1

>  <subsites>  (1996) 
None

>  <rmsd(smina/fragmenstein)>  (1996) 
0.869

>  <alias>  (1996) 
None

>  <energy_score>  (1996) 
-37.576646

>  <HIPPO Pose ID>  (1996) 
138952

>  <distance_score>  (1996) 
0.630009

>  <HIPPO Compound ID>  (1996) 
164131

>  <gnina_score_min>  (1996) 
5.04

>  <name>  (1996) 
P138952

>  <exports>  (1996) 
['/opt/xchem-fragalysis-2/maxwin/BulkDock/OUTPUTS/openbind_d68ev3c_c2_elabs_1LOTQJ3.sdf', '/opt/xchem-fragalysis-2/maxwin/BulkDock/OUTPUTS/openbind_d68ev3c_c2_elabs_1LSYI5W.sdf']

$$$$
P138954
     RDKit          3D

 25 26  0  0  0  0  0  0  0  0999 V2000
   -5.6363    1.7220    2.3380 C   0  0  0  0  0  0  0  0  0  0  0  0
   -6.4933    1.5704    3.4710 O   0  0  0  0  0  0  0  0  0  0  0  0
   -5.7621    1.5594    4.6305 C   0  0  0  0  0  0  0  0  0  0  0  0
   -5.3283    2.7858    5.1382 C   0  0  0  0  0  0  0  0  0  0  0  0
   -4.6579    2.8337    6.3536 C   0  0  0  0  0  0  0  0  0  0  0  0
   -4.4236    1.6555    7.0596 C   0  0  0  0  0  0  0  0  0  0  0  0
   -4.8489    0.4054    6.5622 C   0  0  0  0  0  0  0  0  0  0  0  0
   -4.5186   -0.8331    7.3488 C   0  0  0  0  0  0  0  0  0  0  0  0
   -3.4239   -0.6429    8.1458 F   0  0  0  0  0  0  0  0  0  0  0  0
   -4.1967   -1.9122    6.5847 F   0  0  0  0  0  0  0  0  0  0  0  0
   -5.5161   -1.2171    8.1859 F   0  0  0  0  0  0  0  0  0  0  0  0
   -5.5555    0.3666    5.3475 C   0  0  0  0  0  0  0  0  0  0  0  0
   -6.0930   -0.9112    4.7866 C   0  0  0  0  0  0  0  0  0  0  0  0
   -5.7888   -1.1916    3.6593 O   0  0  0  0  0  0  0  0  0  0  0  0
   -6.9232   -1.5921    5.7163 N   0  0  0  0  0  0  0  0  0  0  0  0
   -7.5945   -2.9308    5.6324 C   0  0  0  0  0  0  0  0  0  0  0  0
   -8.2715   -3.4502    6.9047 C   0  0  0  0  0  0  0  0  0  0  0  0
   -9.3013   -2.5678    7.3498 N   0  0  0  0  0  0  0  0  0  0  0  0
   -9.2891   -1.2843    6.8815 C   0  0  0  0  0  0  0  0  0  0  0  0
   -9.9978   -0.4116    7.3725 O   0  0  0  0  0  0  0  0  0  0  0  0
   -8.4231   -1.0859    5.5857 C   0  0  2  0  0  0  0  0  0  0  0  0
   -9.3226   -1.0667    4.2434 C   0  0  0  0  0  0  0  0  0  0  0  0
   -8.5838   -1.2676    2.9082 C   0  0  0  0  0  0  0  0  0  0  0  0
  -10.0011    0.3318    4.1422 C   0  0  0  0  0  0  0  0  0  0  0  0
  -10.4842   -2.0869    4.2947 C   0  0  0  0  0  0  0  0  0  0  0  0
  1  2  1  0
  2  3  1  0
  3  4  2  0
  4  5  1  0
  5  6  2  0
  6  7  1  0
  7  8  1  0
  8  9  1  0
  8 10  1  0
  8 11  1  0
  7 12  2  0
 12 13  1  0
 13 14  2  0
 13 15  1  0
 15 16  1  0
 16 17  1  0
 17 18  1  0
 18 19  1  0
 19 20  2  0
 19 21  1  0
 21 22  1  6
 22 23  1  0
 22 24  1  0
 22 25  1  0
 12  3  1  0
 21 15  1  0
M  END
>  <ref_mols>  (1997) 
7gpj-a

>  <gnina_score>  (1997) 
5.198

>  <smina_score_min>  (1997) 
-5.073

>  <ref_pdb>  (1997) 
7gpj-a

>  <inspiration_score>  (1997) 
None

>  <inchikey>  (1997) 
HROIDPDAQMOMMA-CYBMUJFWSA-N

>  <tags>  (1997) 
BulkDock Fragalysis export,openbind_d68ev3c_c2_elabs_scored,openbind_d68ev3c_c2_elabs_scored_4.5plus,openbind_d68ev3c_c2_elabs,openbind_d68ev3c_c2_elabs_scored_5plus,syndirella_product,openbind_d68ev3c_c2_elabs_scored_top80percent,syndirella_placed

>  <smiles>  (1997) 
COc1cccc(C(F)(F)F)c1C(=O)N1CCNC(=O)[C@@H]1C(C)(C)C

>  <subsites>  (1997) 
None

>  <rmsd(smina/fragmenstein)>  (1997) 
0.689

>  <alias>  (1997) 
None

>  <energy_score>  (1997) 
-2.880281

>  <HIPPO Pose ID>  (1997) 
138954

>  <distance_score>  (1997) 
1.015547

>  <HIPPO Compound ID>  (1997) 
164136

>  <gnina_score_min>  (1997) 
5.332

>  <name>  (1997) 
P138954

>  <exports>  (1997) 
['/opt/xchem-fragalysis-2/maxwin/BulkDock/OUTPUTS/openbind_d68ev3c_c2_elabs_1LOTQJ3.sdf', '/opt/xchem-fragalysis-2/maxwin/BulkDock/OUTPUTS/openbind_d68ev3c_c2_elabs_1LSYI5W.sdf']

$$$$
P138957
     RDKit          3D

 25 26  0  0  0  0  0  0  0  0999 V2000
   -9.5335   -0.7498    8.5013 C   0  0  0  0  0  0  0  0  0  0  0  0
   -8.6978   -1.3269    7.3602 C   0  0  2  0  0  0  0  0  0  0  0  0
   -8.8008   -0.3309    6.1968 C   0  0  0  0  0  0  0  0  0  0  0  0
   -8.0241    0.6146    6.0562 O   0  0  0  0  0  0  0  0  0  0  0  0
   -9.8387   -0.4721    5.3126 N   0  0  0  0  0  0  0  0  0  0  0  0
  -10.4892   -1.7468    5.0832 C   0  0  0  0  0  0  0  0  0  0  0  0
  -10.4053   -2.7164    6.2657 C   0  0  0  0  0  0  0  0  0  0  0  0
   -9.1361   -2.6878    6.9967 N   0  0  0  0  0  0  0  0  0  0  0  0
   -8.0944   -3.5989    6.5096 C   0  0  0  0  0  0  0  0  0  0  0  0
   -7.4605   -3.3675    5.1233 C   0  0  0  0  0  0  0  0  0  0  0  0
   -6.7652   -2.1083    5.0285 N   0  0  0  0  0  0  0  0  0  0  0  0
   -5.3208   -1.7413    5.3766 C   0  0  0  0  0  0  0  0  0  0  0  0
   -4.4372   -2.4094    5.7230 O   0  0  0  0  0  0  0  0  0  0  0  0
   -5.1155   -0.2712    5.2777 C   0  0  0  0  0  0  0  0  0  0  0  0
   -5.4252    0.3724    4.0700 C   0  0  0  0  0  0  0  0  0  0  0  0
   -5.3094    1.7540    3.9830 C   0  0  0  0  0  0  0  0  0  0  0  0
   -5.6068    2.3621    2.8266 F   0  0  0  0  0  0  0  0  0  0  0  0
   -4.8852    2.4954    5.0771 C   0  0  0  0  0  0  0  0  0  0  0  0
   -4.7780    3.8274    4.9880 F   0  0  0  0  0  0  0  0  0  0  0  0
   -4.5556    1.8623    6.2727 C   0  0  0  0  0  0  0  0  0  0  0  0
   -4.6527    0.4606    6.3892 C   0  0  0  0  0  0  0  0  0  0  0  0
   -4.2899   -0.2124    7.6923 C   0  0  0  0  0  0  0  0  0  0  0  0
   -3.2878   -1.1213    7.5732 F   0  0  0  0  0  0  0  0  0  0  0  0
   -3.8315    0.6820    8.6152 F   0  0  0  0  0  0  0  0  0  0  0  0
   -5.3395   -0.8387    8.2814 F   0  0  0  0  0  0  0  0  0  0  0  0
  2  1  1  1
  2  3  1  0
  3  4  2  0
  3  5  1  0
  5  6  1  0
  6  7  1  0
  7  8  1  0
  8  9  1  0
  9 10  1  0
 10 11  1  0
 11 12  1  0
 12 13  2  0
 12 14  1  0
 14 15  2  0
 15 16  1  0
 16 17  1  0
 16 18  2  0
 18 19  1  0
 18 20  1  0
 20 21  2  0
 21 22  1  0
 22 23  1  0
 22 24  1  0
 22 25  1  0
  8  2  1  0
 21 14  1  0
M  END
>  <ref_mols>  (1998) 
7gpj-a

>  <gnina_score>  (1998) 
5.191

>  <smina_score_min>  (1998) 
-4.932

>  <ref_pdb>  (1998) 
7gpj-a

>  <inspiration_score>  (1998) 
None

>  <inchikey>  (1998) 
BBUJOCAIDYETIF-MRVPVSSYSA-N

>  <tags>  (1998) 
BulkDock Fragalysis export,openbind_d68ev3c_c2_elabs_scored,openbind_d68ev3c_c2_elabs_scored_4.5plus,openbind_d68ev3c_c2_elabs,openbind_d68ev3c_c2_elabs_scored_5plus,syndirella_product,openbind_d68ev3c_c2_elabs_scored_top80percent,syndirella_placed

>  <smiles>  (1998) 
C[C@@H]1C(=O)NCCN1CCNC(=O)c1cc(F)c(F)cc1C(F)(F)F

>  <subsites>  (1998) 
None

>  <rmsd(smina/fragmenstein)>  (1998) 
0.567

>  <alias>  (1998) 
None

>  <energy_score>  (1998) 
-35.685074

>  <HIPPO Pose ID>  (1998) 
138957

>  <distance_score>  (1998) 
0.613377

>  <HIPPO Compound ID>  (1998) 
164169

>  <gnina_score_min>  (1998) 
5.157

>  <name>  (1998) 
P138957

>  <exports>  (1998) 
['/opt/xchem-fragalysis-2/maxwin/BulkDock/OUTPUTS/openbind_d68ev3c_c2_elabs_1LOTQJ3.sdf', '/opt/xchem-fragalysis-2/maxwin/BulkDock/OUTPUTS/openbind_d68ev3c_c2_elabs_1LSYI5W.sdf']

$$$$
P138959
     RDKit          3D

 25 27  0  0  0  0  0  0  0  0999 V2000
  -10.5792   -0.6926   10.0506 O   0  0  0  0  0  0  0  0  0  0  0  0
  -10.2826   -0.5797    8.8619 C   0  0  0  0  0  0  0  0  0  0  0  0
   -9.7814   -1.7432    7.9815 C   0  0  0  0  0  0  0  0  0  0  0  0
   -8.9759   -1.3068    6.8247 N   0  0  0  0  0  0  0  0  0  0  0  0
   -8.6082   -2.4898    5.9917 C   0  0  0  0  0  0  0  0  0  0  0  0
   -7.3273   -3.1294    6.5547 C   0  0  0  0  0  0  0  0  0  0  0  0
   -6.5981   -1.8985    6.0707 N   0  0  0  0  0  0  0  0  0  0  0  0
   -5.2129   -1.7274    5.5703 C   0  0  0  0  0  0  0  0  0  0  0  0
   -4.3807   -2.5217    5.3587 O   0  0  0  0  0  0  0  0  0  0  0  0
   -4.9675   -0.2760    5.4235 C   0  0  0  0  0  0  0  0  0  0  0  0
   -5.2013    0.3217    4.1799 C   0  0  0  0  0  0  0  0  0  0  0  0
   -5.1201    1.7038    4.0716 C   0  0  0  0  0  0  0  0  0  0  0  0
   -5.3569    2.2814    2.8864 F   0  0  0  0  0  0  0  0  0  0  0  0
   -4.8107    2.4814    5.1818 C   0  0  0  0  0  0  0  0  0  0  0  0
   -4.7507    3.8146    5.0737 F   0  0  0  0  0  0  0  0  0  0  0  0
   -4.5648    1.8859    6.4173 C   0  0  0  0  0  0  0  0  0  0  0  0
   -4.6295    0.4870    6.5517 C   0  0  0  0  0  0  0  0  0  0  0  0
   -4.3510   -0.1758    7.8761 C   0  0  0  0  0  0  0  0  0  0  0  0
   -3.5976   -1.3003    7.7680 F   0  0  0  0  0  0  0  0  0  0  0  0
   -3.6481    0.6459    8.7012 F   0  0  0  0  0  0  0  0  0  0  0  0
   -5.4766   -0.5101    8.5523 F   0  0  0  0  0  0  0  0  0  0  0  0
   -7.6033   -2.0975    4.9069 C   0  0  0  0  0  0  0  0  0  0  0  0
   -9.7397   -0.3071    6.0832 C   0  0  0  0  0  0  0  0  0  0  0  0
   -9.8830    0.9248    6.9832 C   0  0  0  0  0  0  0  0  0  0  0  0
  -10.5118    0.6232    8.2410 N   0  0  0  0  0  0  0  0  0  0  0  0
  1  2  2  0
  2  3  1  0
  3  4  1  0
  4  5  1  0
  5  6  1  0
  6  7  1  0
  7  8  1  0
  8  9  2  0
  8 10  1  0
 10 11  2  0
 11 12  1  0
 12 13  1  0
 12 14  2  0
 14 15  1  0
 14 16  1  0
 16 17  2  0
 17 18  1  0
 18 19  1  0
 18 20  1  0
 18 21  1  0
  7 22  1  0
  4 23  1  0
 23 24  1  0
 24 25  1  0
 25  2  1  0
 22  5  1  0
 17 10  1  0
M  END
>  <ref_mols>  (1999) 
7gpj-a

>  <gnina_score>  (1999) 
4.824

>  <smina_score_min>  (1999) 
-5.969

>  <ref_pdb>  (1999) 
7gpj-a

>  <inspiration_score>  (1999) 
None

>  <inchikey>  (1999) 
JLVUMVFGGUCLKA-UHFFFAOYSA-N

>  <tags>  (1999) 
BulkDock Fragalysis export,openbind_d68ev3c_c2_elabs_scored,openbind_d68ev3c_c2_elabs_scored_4.5plus,openbind_d68ev3c_c2_elabs,openbind_d68ev3c_c2_elabs_scored_5plus,syndirella_product,openbind_d68ev3c_c2_elabs_scored_top80percent,syndirella_placed

>  <smiles>  (1999) 
O=C1CN(C2CN(C(=O)c3cc(F)c(F)cc3C(F)(F)F)C2)CCN1

>  <subsites>  (1999) 
None

>  <rmsd(smina/fragmenstein)>  (1999) 
0.904

>  <alias>  (1999) 
None

>  <energy_score>  (1999) 
-10.273503

>  <HIPPO Pose ID>  (1999) 
138959

>  <distance_score>  (1999) 
1.147743

>  <HIPPO Compound ID>  (1999) 
164170

>  <gnina_score_min>  (1999) 
5.104

>  <name>  (1999) 
P138959

>  <exports>  (1999) 
['/opt/xchem-fragalysis-2/maxwin/BulkDock/OUTPUTS/openbind_d68ev3c_c2_elabs_1LOTQJ3.sdf', '/opt/xchem-fragalysis-2/maxwin/BulkDock/OUTPUTS/openbind_d68ev3c_c2_elabs_1LSYI5W.sdf']

$$$$
P138960
     RDKit          3D

 25 26  0  0  0  0  0  0  0  0999 V2000
   -9.9339    0.8643    4.9223 C   0  0  0  0  0  0  0  0  0  0  0  0
   -9.9281   -0.2772    5.8146 N   0  0  0  0  0  0  0  0  0  0  0  0
  -10.6857   -1.4581    5.3834 C   0  0  0  0  0  0  0  0  0  0  0  0
  -10.6433   -2.6429    6.3635 C   0  0  0  0  0  0  0  0  0  0  0  0
   -9.3223   -2.8430    6.9886 N   0  0  0  0  0  0  0  0  0  0  0  0
   -8.3574   -3.3684    6.0127 C   0  0  0  0  0  0  0  0  0  0  0  0
   -6.8636   -3.3155    6.3554 C   0  0  0  0  0  0  0  0  0  0  0  0
   -6.3168   -1.9867    6.2211 N   0  0  0  0  0  0  0  0  0  0  0  0
   -5.7883   -1.2487    4.9892 C   0  0  0  0  0  0  0  0  0  0  0  0
   -5.6362   -1.6175    3.8970 O   0  0  0  0  0  0  0  0  0  0  0  0
   -5.4716    0.1884    5.2618 C   0  0  0  0  0  0  0  0  0  0  0  0
   -5.8638    1.0755    4.2402 C   0  0  0  0  0  0  0  0  0  0  0  0
   -5.6309    2.4363    4.3651 C   0  0  0  0  0  0  0  0  0  0  0  0
   -6.0184    3.2637    3.3853 F   0  0  0  0  0  0  0  0  0  0  0  0
   -5.0060    2.9332    5.4961 C   0  0  0  0  0  0  0  0  0  0  0  0
   -4.7840    4.2478    5.6233 F   0  0  0  0  0  0  0  0  0  0  0  0
   -4.5992    2.0723    6.5112 C   0  0  0  0  0  0  0  0  0  0  0  0
   -4.8108    0.6800    6.4069 C   0  0  0  0  0  0  0  0  0  0  0  0
   -4.3188   -0.2064    7.5205 C   0  0  0  0  0  0  0  0  0  0  0  0
   -3.4802    0.4420    8.3753 F   0  0  0  0  0  0  0  0  0  0  0  0
   -5.3304   -0.6865    8.2922 F   0  0  0  0  0  0  0  0  0  0  0  0
   -3.6166   -1.2840    7.0791 F   0  0  0  0  0  0  0  0  0  0  0  0
   -8.9725   -1.6028    7.6867 C   0  0  0  0  0  0  0  0  0  0  0  0
   -8.9124   -0.3863    6.7620 C   0  0  0  0  0  0  0  0  0  0  0  0
   -8.0410    0.4732    6.9182 O   0  0  0  0  0  0  0  0  0  0  0  0
  1  2  1  0
  2  3  1  0
  3  4  1  0
  4  5  1  0
  5  6  1  0
  6  7  1  0
  7  8  1  0
  8  9  1  0
  9 10  2  0
  9 11  1  0
 11 12  2  0
 12 13  1  0
 13 14  1  0
 13 15  2  0
 15 16  1  0
 15 17  1  0
 17 18  2  0
 18 19  1  0
 19 20  1  0
 19 21  1  0
 19 22  1  0
  5 23  1  0
 23 24  1  0
 24 25  2  0
 24  2  1  0
 18 11  1  0
M  END
>  <ref_mols>  (2000) 
7gpj-a

>  <gnina_score>  (2000) 
5.111

>  <smina_score_min>  (2000) 
-4.928

>  <ref_pdb>  (2000) 
7gpj-a

>  <inspiration_score>  (2000) 
None

>  <inchikey>  (2000) 
HWZXUSQCCVBKKC-UHFFFAOYSA-N

>  <tags>  (2000) 
BulkDock Fragalysis export,openbind_d68ev3c_c2_elabs_scored,openbind_d68ev3c_c2_elabs_scored_4.5plus,openbind_d68ev3c_c2_elabs,openbind_d68ev3c_c2_elabs_scored_5plus,syndirella_product,openbind_d68ev3c_c2_elabs_scored_top80percent,syndirella_placed

>  <smiles>  (2000) 
CN1CCN(CCNC(=O)c2cc(F)c(F)cc2C(F)(F)F)CC1=O

>  <subsites>  (2000) 
None

>  <rmsd(smina/fragmenstein)>  (2000) 
1.684

>  <alias>  (2000) 
None

>  <energy_score>  (2000) 
-29.234877

>  <HIPPO Pose ID>  (2000) 
138960

>  <distance_score>  (2000) 
0.691557

>  <HIPPO Compound ID>  (2000) 
164173

>  <gnina_score_min>  (2000) 
5.125

>  <name>  (2000) 
P138960

>  <exports>  (2000) 
['/opt/xchem-fragalysis-2/maxwin/BulkDock/OUTPUTS/openbind_d68ev3c_c2_elabs_1LOTQJ3.sdf', '/opt/xchem-fragalysis-2/maxwin/BulkDock/OUTPUTS/openbind_d68ev3c_c2_elabs_1LSYI5W.sdf']

$$$$
P138961
     RDKit          3D

 25 26  0  0  0  0  0  0  0  0999 V2000
   -8.9423    1.5667    5.0502 O   0  0  0  0  0  0  0  0  0  0  0  0
   -9.0653    0.9594    6.1100 C   0  0  0  0  0  0  0  0  0  0  0  0
   -9.4049   -0.5363    6.1999 C   0  0  0  0  0  0  0  0  0  0  0  0
   -8.7101   -1.1591    7.3471 N   0  0  0  0  0  0  0  0  0  0  0  0
   -8.9576   -2.6129    7.4179 C   0  0  0  0  0  0  0  0  0  0  0  0
   -8.3246   -3.4421    6.2869 C   0  0  0  0  0  0  0  0  0  0  0  0
   -6.8127   -3.2784    6.1621 C   0  0  0  0  0  0  0  0  0  0  0  0
   -6.4430   -1.8962    6.0398 N   0  0  0  0  0  0  0  0  0  0  0  0
   -5.7169   -1.1592    4.9185 C   0  0  0  0  0  0  0  0  0  0  0  0
   -5.3662   -1.5315    3.8768 O   0  0  0  0  0  0  0  0  0  0  0  0
   -5.4771    0.2713    5.2434 C   0  0  0  0  0  0  0  0  0  0  0  0
   -5.8220    1.1807    4.2286 C   0  0  0  0  0  0  0  0  0  0  0  0
   -5.5966    2.5364    4.4067 C   0  0  0  0  0  0  0  0  0  0  0  0
   -5.9229    3.3964    3.4329 F   0  0  0  0  0  0  0  0  0  0  0  0
   -5.0293    2.9966    5.5842 C   0  0  0  0  0  0  0  0  0  0  0  0
   -4.8154    4.3064    5.7653 F   0  0  0  0  0  0  0  0  0  0  0  0
   -4.6685    2.1053    6.5921 C   0  0  0  0  0  0  0  0  0  0  0  0
   -4.8694    0.7190    6.4326 C   0  0  0  0  0  0  0  0  0  0  0  0
   -4.4093   -0.2144    7.5231 C   0  0  0  0  0  0  0  0  0  0  0  0
   -3.7380   -1.3042    7.0668 F   0  0  0  0  0  0  0  0  0  0  0  0
   -3.5528    0.3932    8.3929 F   0  0  0  0  0  0  0  0  0  0  0  0
   -5.4381   -0.6700    8.2851 F   0  0  0  0  0  0  0  0  0  0  0  0
   -9.0466   -0.4936    8.6203 C   0  0  0  0  0  0  0  0  0  0  0  0
   -9.4634    0.9862    8.5009 C   0  0  0  0  0  0  0  0  0  0  0  0
   -8.9366    1.6148    7.3128 N   0  0  0  0  0  0  0  0  0  0  0  0
  1  2  2  0
  2  3  1  0
  3  4  1  0
  4  5  1  0
  5  6  1  0
  6  7  1  0
  7  8  1  0
  8  9  1  0
  9 10  2  0
  9 11  1  0
 11 12  2  0
 12 13  1  0
 13 14  1  0
 13 15  2  0
 15 16  1  0
 15 17  1  0
 17 18  2  0
 18 19  1  0
 19 20  1  0
 19 21  1  0
 19 22  1  0
  4 23  1  0
 23 24  1  0
 24 25  1  0
 25  2  1  0
 18 11  1  0
M  END
>  <ref_mols>  (2001) 
7gpj-a

>  <gnina_score>  (2001) 
5.043

>  <smina_score_min>  (2001) 
-4.389

>  <ref_pdb>  (2001) 
7gpj-a

>  <inspiration_score>  (2001) 
None

>  <inchikey>  (2001) 
JRGGDUUUKNDTCF-UHFFFAOYSA-N

>  <tags>  (2001) 
BulkDock Fragalysis export,openbind_d68ev3c_c2_elabs_scored,openbind_d68ev3c_c2_elabs_scored_4.5plus,openbind_d68ev3c_c2_elabs,openbind_d68ev3c_c2_elabs_scored_5plus,syndirella_product,openbind_d68ev3c_c2_elabs_scored_top80percent,syndirella_placed

>  <smiles>  (2001) 
O=C1CN(CCCNC(=O)c2cc(F)c(F)cc2C(F)(F)F)CCN1

>  <subsites>  (2001) 
None

>  <rmsd(smina/fragmenstein)>  (2001) 
1.162

>  <alias>  (2001) 
None

>  <energy_score>  (2001) 
-27.603077

>  <HIPPO Pose ID>  (2001) 
138961

>  <distance_score>  (2001) 
0.663872

>  <HIPPO Compound ID>  (2001) 
164183

>  <gnina_score_min>  (2001) 
5.142

>  <name>  (2001) 
P138961

>  <exports>  (2001) 
['/opt/xchem-fragalysis-2/maxwin/BulkDock/OUTPUTS/openbind_d68ev3c_c2_elabs_1LOTQJ3.sdf', '/opt/xchem-fragalysis-2/maxwin/BulkDock/OUTPUTS/openbind_d68ev3c_c2_elabs_1LSYI5W.sdf']

$$$$
P138963
     RDKit          3D

 25 27  0  0  0  0  0  0  0  0999 V2000
   -9.4807   -0.5716    8.0910 O   0  0  0  0  0  0  0  0  0  0  0  0
   -8.9458   -1.4217    7.3885 C   0  0  0  0  0  0  0  0  0  0  0  0
   -9.0414   -2.7534    7.6522 N   0  0  0  0  0  0  0  0  0  0  0  0
   -8.1036   -3.5974    6.9954 C   0  0  0  0  0  0  0  0  0  0  0  0
   -7.6120   -2.9559    5.6817 C   0  0  1  0  0  0  0  0  0  0  0  0
   -8.5411   -3.2266    4.4646 C   0  0  0  0  0  0  0  0  0  0  0  0
   -9.1544   -1.9928    3.8558 C   0  0  0  0  0  0  0  0  0  0  0  0
   -9.2315   -0.8970    4.8820 C   0  0  0  0  0  0  0  0  0  0  0  0
   -8.2322   -1.1025    6.0373 C   0  0  2  0  0  0  0  0  0  0  0  0
   -6.8143   -1.6454    5.7335 N   0  0  0  0  0  0  0  0  0  0  0  0
   -6.1545   -0.8595    4.6403 C   0  0  0  0  0  0  0  0  0  0  0  0
   -6.1617   -1.0214    3.4770 O   0  0  0  0  0  0  0  0  0  0  0  0
   -5.4633    0.3813    5.1273 C   0  0  0  0  0  0  0  0  0  0  0  0
   -5.5604    1.4579    4.2122 C   0  0  0  0  0  0  0  0  0  0  0  0
   -5.0862    2.7283    4.5401 C   0  0  0  0  0  0  0  0  0  0  0  0
   -5.2018    3.8295    3.5767 N   0  0  0  0  0  0  0  0  0  0  0  0
   -4.9371    4.9724    3.9741 O   0  0  0  0  0  0  0  0  0  0  0  0
   -5.5632    3.5505    2.4251 O   0  0  0  0  0  0  0  0  0  0  0  0
   -4.5203    2.9571    5.7896 C   0  0  0  0  0  0  0  0  0  0  0  0
   -4.4122    1.8979    6.6938 C   0  0  0  0  0  0  0  0  0  0  0  0
   -4.8513    0.5891    6.3745 C   0  0  0  0  0  0  0  0  0  0  0  0
   -4.5965   -0.4934    7.3950 C   0  0  0  0  0  0  0  0  0  0  0  0
   -5.6717   -0.7716    8.1733 F   0  0  0  0  0  0  0  0  0  0  0  0
   -4.1623   -1.6639    6.8580 F   0  0  0  0  0  0  0  0  0  0  0  0
   -3.6048   -0.1259    8.2644 F   0  0  0  0  0  0  0  0  0  0  0  0
  1  2  2  0
  2  3  1  0
  3  4  1  0
  5  4  1  1
  5  6  1  0
  6  7  1  0
  7  8  1  0
  9  8  1  6
  9 10  1  0
 10 11  1  0
 11 12  2  0
 11 13  1  0
 13 14  2  0
 14 15  1  0
 15 16  1  0
 16 17  2  0
 16 18  1  0
 15 19  2  0
 19 20  1  0
 20 21  2  0
 21 22  1  0
 22 23  1  0
 22 24  1  0
 22 25  1  0
  9  2  1  0
 21 13  1  0
 10  5  1  0
M  CHG  2  16   1  18  -1
M  END
>  <ref_mols>  (2002) 
7gpj-a

>  <gnina_score>  (2002) 
5.093

>  <smina_score_min>  (2002) 
-5.425

>  <ref_pdb>  (2002) 
7gpj-a

>  <inspiration_score>  (2002) 
None

>  <inchikey>  (2002) 
OLXCIKRARFYAFC-SKDRFNHKSA-N

>  <tags>  (2002) 
BulkDock Fragalysis export,openbind_d68ev3c_c2_elabs_scored,openbind_d68ev3c_c2_elabs_scored_4.5plus,openbind_d68ev3c_c2_elabs,openbind_d68ev3c_c2_elabs_scored_5plus,syndirella_product,openbind_d68ev3c_c2_elabs_scored_top80percent,syndirella_placed

>  <smiles>  (2002) 
O=C1NC[C@H]2CCC[C@@H]1N2C(=O)c1cc([N+](=O)[O-])ccc1C(F)(F)F

>  <subsites>  (2002) 
None

>  <rmsd(smina/fragmenstein)>  (2002) 
0.723

>  <alias>  (2002) 
None

>  <energy_score>  (2002) 
-45.040514

>  <HIPPO Pose ID>  (2002) 
138963

>  <distance_score>  (2002) 
0.828624

>  <HIPPO Compound ID>  (2002) 
164212

>  <gnina_score_min>  (2002) 
5.066

>  <name>  (2002) 
P138963

>  <exports>  (2002) 
['/opt/xchem-fragalysis-2/maxwin/BulkDock/OUTPUTS/openbind_d68ev3c_c2_elabs_1LOTQJ3.sdf', '/opt/xchem-fragalysis-2/maxwin/BulkDock/OUTPUTS/openbind_d68ev3c_c2_elabs_1LSYI5W.sdf']

$$$$
P138966
     RDKit          3D

 25 27  0  0  0  0  0  0  0  0999 V2000
   -9.4703   -0.4755    8.0093 O   0  0  0  0  0  0  0  0  0  0  0  0
   -8.9922   -1.3542    7.3020 C   0  0  0  0  0  0  0  0  0  0  0  0
   -9.1382   -2.6801    7.5814 N   0  0  0  0  0  0  0  0  0  0  0  0
   -8.1680   -3.5427    7.0000 C   0  0  0  0  0  0  0  0  0  0  0  0
   -7.5879   -2.9402    5.7027 C   0  0  1  0  0  0  0  0  0  0  0  0
   -8.4046   -3.2843    4.4255 C   0  0  0  0  0  0  0  0  0  0  0  0
   -9.0089   -2.0907    3.7379 C   0  0  0  0  0  0  0  0  0  0  0  0
   -9.2669   -1.0245    4.7614 C   0  0  0  0  0  0  0  0  0  0  0  0
   -8.2745   -1.0878    5.9401 C   0  0  2  0  0  0  0  0  0  0  0  0
   -6.8237   -1.6093    5.7536 N   0  0  0  0  0  0  0  0  0  0  0  0
   -6.1082   -0.8515    4.6749 C   0  0  0  0  0  0  0  0  0  0  0  0
   -6.0333   -1.0595    3.5231 O   0  0  0  0  0  0  0  0  0  0  0  0
   -5.4805    0.4201    5.1549 C   0  0  0  0  0  0  0  0  0  0  0  0
   -5.5612    1.5391    4.2926 C   0  0  0  0  0  0  0  0  0  0  0  0
   -6.2251    1.4752    3.0029 N   0  0  0  0  0  0  0  0  0  0  0  0
   -7.4632    1.4666    3.0149 O   0  0  0  0  0  0  0  0  0  0  0  0
   -5.5020    1.5392    1.9987 O   0  0  0  0  0  0  0  0  0  0  0  0
   -5.0704    2.8020    4.6387 C   0  0  0  0  0  0  0  0  0  0  0  0
   -4.4995    2.9795    5.8853 C   0  0  0  0  0  0  0  0  0  0  0  0
   -4.4039    1.8964    6.7575 C   0  0  0  0  0  0  0  0  0  0  0  0
   -4.8559    0.5986    6.4050 C   0  0  0  0  0  0  0  0  0  0  0  0
   -4.5896   -0.5059    7.3992 C   0  0  0  0  0  0  0  0  0  0  0  0
   -3.5835   -0.1609    8.2612 F   0  0  0  0  0  0  0  0  0  0  0  0
   -4.1663   -1.6654    6.8308 F   0  0  0  0  0  0  0  0  0  0  0  0
   -5.6533   -0.7975    8.1877 F   0  0  0  0  0  0  0  0  0  0  0  0
  1  2  2  0
  2  3  1  0
  3  4  1  0
  5  4  1  1
  5  6  1  0
  6  7  1  0
  7  8  1  0
  9  8  1  6
  9 10  1  0
 10 11  1  0
 11 12  2  0
 11 13  1  0
 13 14  2  0
 14 15  1  0
 15 16  2  0
 15 17  1  0
 14 18  1  0
 18 19  2  0
 19 20  1  0
 20 21  2  0
 21 22  1  0
 22 23  1  0
 22 24  1  0
 22 25  1  0
  9  2  1  0
 21 13  1  0
 10  5  1  0
M  CHG  2  15   1  17  -1
M  END
>  <ref_mols>  (2003) 
7gpj-a

>  <gnina_score>  (2003) 
5.121

>  <smina_score_min>  (2003) 
-5.096

>  <ref_pdb>  (2003) 
7gpj-a

>  <inspiration_score>  (2003) 
None

>  <inchikey>  (2003) 
NGLLLUNDTMFONX-KCJUWKMLSA-N

>  <tags>  (2003) 
BulkDock Fragalysis export,openbind_d68ev3c_c2_elabs_scored,openbind_d68ev3c_c2_elabs_scored_4.5plus,openbind_d68ev3c_c2_elabs,openbind_d68ev3c_c2_elabs_scored_5plus,syndirella_product,openbind_d68ev3c_c2_elabs_scored_top80percent,syndirella_placed

>  <smiles>  (2003) 
O=C1NC[C@H]2CCC[C@@H]1N2C(=O)c1c([N+](=O)[O-])cccc1C(F)(F)F

>  <subsites>  (2003) 
None

>  <rmsd(smina/fragmenstein)>  (2003) 
0.872

>  <alias>  (2003) 
None

>  <energy_score>  (2003) 
-97.680825

>  <HIPPO Pose ID>  (2003) 
138966

>  <distance_score>  (2003) 
0.845555

>  <HIPPO Compound ID>  (2003) 
164252

>  <gnina_score_min>  (2003) 
5.188

>  <name>  (2003) 
P138966

>  <exports>  (2003) 
['/opt/xchem-fragalysis-2/maxwin/BulkDock/OUTPUTS/openbind_d68ev3c_c2_elabs_1LOTQJ3.sdf', '/opt/xchem-fragalysis-2/maxwin/BulkDock/OUTPUTS/openbind_d68ev3c_c2_elabs_1LSYI5W.sdf']

$$$$
P138967
     RDKit          3D

 25 26  0  0  0  0  0  0  0  0999 V2000
   -2.5019    5.7174    5.9922 C   0  0  0  0  0  0  0  0  0  0  0  0
   -3.1876    4.7434    5.8417 C   0  0  0  0  0  0  0  0  0  0  0  0
   -3.9965    3.5767    5.6665 C   0  0  0  0  0  0  0  0  0  0  0  0
   -4.7993    3.4491    4.5357 C   0  0  0  0  0  0  0  0  0  0  0  0
   -5.6088    2.3329    4.3957 C   0  0  0  0  0  0  0  0  0  0  0  0
   -5.5956    1.3382    5.3811 C   0  0  0  0  0  0  0  0  0  0  0  0
   -6.6097    0.2916    5.1938 C   0  0  0  0  0  0  0  0  0  0  0  0
   -6.6477   -0.2817    4.1861 O   0  0  0  0  0  0  0  0  0  0  0  0
   -7.5097    0.1935    6.4238 N   0  0  0  0  0  0  0  0  0  0  0  0
   -8.5948   -0.6991    6.7167 C   0  0  0  0  0  0  0  0  0  0  0  0
   -8.1307   -1.8507    7.6178 C   0  0  0  0  0  0  0  0  0  0  0  0
   -7.5807   -3.0882    7.0514 N   0  0  0  0  0  0  0  0  0  0  0  0
   -8.5883   -4.1204    6.8856 C   0  0  0  0  0  0  0  0  0  0  0  0
   -9.5498   -3.7916    5.7475 C   0  0  0  0  0  0  0  0  0  0  0  0
   -8.8820   -3.3825    4.5202 N   0  0  0  0  0  0  0  0  0  0  0  0
   -9.6910   -3.2892    3.3216 C   0  0  0  0  0  0  0  0  0  0  0  0
   -7.5169   -3.1445    4.4835 C   0  0  0  0  0  0  0  0  0  0  0  0
   -6.9048   -3.0932    3.4112 O   0  0  0  0  0  0  0  0  0  0  0  0
   -6.7630   -3.0218    5.8293 C   0  0  0  0  0  0  0  0  0  0  0  0
   -4.7229    1.3900    6.4798 C   0  0  0  0  0  0  0  0  0  0  0  0
   -4.5410    0.2575    7.4659 C   0  0  0  0  0  0  0  0  0  0  0  0
   -3.4626    0.4595    8.2774 F   0  0  0  0  0  0  0  0  0  0  0  0
   -5.5940    0.1126    8.3104 F   0  0  0  0  0  0  0  0  0  0  0  0
   -4.3181   -0.9497    6.8840 F   0  0  0  0  0  0  0  0  0  0  0  0
   -3.9618    2.5612    6.6294 C   0  0  0  0  0  0  0  0  0  0  0  0
  1  2  3  0
  2  3  1  0
  3  4  2  0
  4  5  1  0
  5  6  2  0
  6  7  1  0
  7  8  2  0
  7  9  1  0
  9 10  1  0
 10 11  1  0
 11 12  1  0
 12 13  1  0
 13 14  1  0
 14 15  1  0
 15 16  1  0
 15 17  1  0
 17 18  2  0
 17 19  1  0
  6 20  1  0
 20 21  1  0
 21 22  1  0
 21 23  1  0
 21 24  1  0
 20 25  2  0
 25  3  1  0
 19 12  1  0
M  END
>  <ref_mols>  (2004) 
7gpj-a

>  <gnina_score>  (2004) 
4.953

>  <smina_score_min>  (2004) 
-4.702

>  <ref_pdb>  (2004) 
7gpj-a

>  <inspiration_score>  (2004) 
None

>  <inchikey>  (2004) 
XOGVXAWBYJJJPE-UHFFFAOYSA-N

>  <tags>  (2004) 
BulkDock Fragalysis export,openbind_d68ev3c_c2_elabs_scored,openbind_d68ev3c_c2_elabs_scored_4.5plus,openbind_d68ev3c_c2_elabs,openbind_d68ev3c_c2_elabs_scored_5plus,syndirella_product,openbind_d68ev3c_c2_elabs_scored_top80percent,syndirella_placed

>  <smiles>  (2004) 
C#Cc1ccc(C(=O)NCCN2CCN(C)C(=O)C2)c(C(F)(F)F)c1

>  <subsites>  (2004) 
None

>  <rmsd(smina/fragmenstein)>  (2004) 
0.635

>  <alias>  (2004) 
None

>  <energy_score>  (2004) 
-12.718772

>  <HIPPO Pose ID>  (2004) 
138967

>  <distance_score>  (2004) 
1.493496

>  <HIPPO Compound ID>  (2004) 
164276

>  <gnina_score_min>  (2004) 
5.054

>  <name>  (2004) 
P138967

>  <exports>  (2004) 
['/opt/xchem-fragalysis-2/maxwin/BulkDock/OUTPUTS/openbind_d68ev3c_c2_elabs_1LOTQJ3.sdf', '/opt/xchem-fragalysis-2/maxwin/BulkDock/OUTPUTS/openbind_d68ev3c_c2_elabs_1LSYI5W.sdf']

$$$$
P138968
     RDKit          3D

 26 27  0  0  0  0  0  0  0  0999 V2000
   -2.7652    4.7009    4.9575 N   0  0  0  0  0  0  0  0  0  0  0  0
   -4.3021    4.6353    5.6200 S   0  0  0  0  0  0  0  0  0  0  0  0
   -5.1940    5.3909    4.7734 O   0  0  0  0  0  0  0  0  0  0  0  0
   -4.1470    4.9243    7.0267 O   0  0  0  0  0  0  0  0  0  0  0  0
   -4.7281    2.9154    5.4707 C   0  0  0  0  0  0  0  0  0  0  0  0
   -5.3853    2.4735    4.3266 C   0  0  0  0  0  0  0  0  0  0  0  0
   -5.7311    1.1293    4.2214 C   0  0  0  0  0  0  0  0  0  0  0  0
   -5.4249    0.2143    5.2499 C   0  0  0  0  0  0  0  0  0  0  0  0
   -5.7367   -1.2080    4.9248 C   0  0  0  0  0  0  0  0  0  0  0  0
   -5.4803   -1.5444    3.8425 O   0  0  0  0  0  0  0  0  0  0  0  0
   -6.4385   -1.9602    6.0575 N   0  0  0  0  0  0  0  0  0  0  0  0
   -6.8925   -3.3225    6.1338 C   0  0  0  0  0  0  0  0  0  0  0  0
   -8.1923   -3.5296    6.9221 C   0  0  0  0  0  0  0  0  0  0  0  0
   -9.3768   -2.7584    6.5808 N   0  0  0  0  0  0  0  0  0  0  0  0
   -9.6978   -1.6027    7.4072 C   0  0  0  0  0  0  0  0  0  0  0  0
   -9.1330   -0.2763    6.8971 C   0  0  0  0  0  0  0  0  0  0  0  0
   -9.1393   -0.1405    5.4590 N   0  0  0  0  0  0  0  0  0  0  0  0
   -9.2037   -1.2095    4.6008 C   0  0  0  0  0  0  0  0  0  0  0  0
   -8.9630   -1.0285    3.4070 O   0  0  0  0  0  0  0  0  0  0  0  0
   -9.6793   -2.5566    5.1597 C   0  0  0  0  0  0  0  0  0  0  0  0
   -4.7739    0.6566    6.4143 C   0  0  0  0  0  0  0  0  0  0  0  0
   -4.3785   -0.2752    7.5294 C   0  0  0  0  0  0  0  0  0  0  0  0
   -3.7108   -1.3781    7.1024 F   0  0  0  0  0  0  0  0  0  0  0  0
   -3.5543    0.3173    8.4364 F   0  0  0  0  0  0  0  0  0  0  0  0
   -5.4567   -0.7110    8.2351 F   0  0  0  0  0  0  0  0  0  0  0  0
   -4.4543    2.0299    6.5214 C   0  0  0  0  0  0  0  0  0  0  0  0
  1  2  1  0
  2  3  2  0
  2  4  2  0
  2  5  1  0
  5  6  2  0
  6  7  1  0
  7  8  2  0
  8  9  1  0
  9 10  2  0
  9 11  1  0
 11 12  1  0
 12 13  1  0
 13 14  1  0
 14 15  1  0
 15 16  1  0
 16 17  1  0
 17 18  1  0
 18 19  2  0
 18 20  1  0
  8 21  1  0
 21 22  1  0
 22 23  1  0
 22 24  1  0
 22 25  1  0
 21 26  2  0
 26  5  1  0
 20 14  1  0
M  END
>  <ref_mols>  (2005) 
7gpj-a

>  <gnina_score>  (2005) 
5.066

>  <smina_score_min>  (2005) 
-4.793

>  <ref_pdb>  (2005) 
7gpj-a

>  <inspiration_score>  (2005) 
None

>  <inchikey>  (2005) 
FQMPJDQKZISWAE-UHFFFAOYSA-N

>  <tags>  (2005) 
BulkDock Fragalysis export,openbind_d68ev3c_c2_elabs_scored,openbind_d68ev3c_c2_elabs_scored_4.5plus,openbind_d68ev3c_c2_elabs,openbind_d68ev3c_c2_elabs_scored_5plus,syndirella_product,openbind_d68ev3c_c2_elabs_scored_top80percent,syndirella_placed

>  <smiles>  (2005) 
NS(=O)(=O)c1ccc(C(=O)NCCN2CCNC(=O)C2)c(C(F)(F)F)c1

>  <subsites>  (2005) 
None

>  <rmsd(smina/fragmenstein)>  (2005) 
1.15

>  <alias>  (2005) 
None

>  <energy_score>  (2005) 
-27.68696

>  <HIPPO Pose ID>  (2005) 
138968

>  <distance_score>  (2005) 
0.75543

>  <HIPPO Compound ID>  (2005) 
164291

>  <gnina_score_min>  (2005) 
5.021

>  <name>  (2005) 
P138968

>  <exports>  (2005) 
['/opt/xchem-fragalysis-2/maxwin/BulkDock/OUTPUTS/openbind_d68ev3c_c2_elabs_1LOTQJ3.sdf', '/opt/xchem-fragalysis-2/maxwin/BulkDock/OUTPUTS/openbind_d68ev3c_c2_elabs_1LSYI5W.sdf']

$$$$
P138969
     RDKit          3D

 26 28  0  0  0  0  0  0  0  0999 V2000
   -2.7160    4.6039    4.5107 N   0  0  0  0  0  0  0  0  0  0  0  0
   -3.2657    4.2204    6.0465 S   0  0  0  0  0  0  0  0  0  0  0  0
   -2.1049    3.7546    6.7735 O   0  0  0  0  0  0  0  0  0  0  0  0
   -4.0908    5.3187    6.4837 O   0  0  0  0  0  0  0  0  0  0  0  0
   -4.3158    2.8225    5.7439 C   0  0  0  0  0  0  0  0  0  0  0  0
   -4.9731    2.6740    4.5320 C   0  0  0  0  0  0  0  0  0  0  0  0
   -5.5913    1.4594    4.2507 C   0  0  0  0  0  0  0  0  0  0  0  0
   -5.5414    0.3670    5.1509 C   0  0  0  0  0  0  0  0  0  0  0  0
   -6.2641   -0.8495    4.6442 C   0  0  0  0  0  0  0  0  0  0  0  0
   -6.3074   -0.9835    3.4784 O   0  0  0  0  0  0  0  0  0  0  0  0
   -6.9033   -1.6502    5.7361 N   0  0  0  0  0  0  0  0  0  0  0  0
   -7.7204   -2.9440    5.6776 C   0  0  2  0  0  0  0  0  0  0  0  0
   -8.7014   -3.1833    4.4964 C   0  0  0  0  0  0  0  0  0  0  0  0
   -9.3038   -1.9281    3.9212 C   0  0  0  0  0  0  0  0  0  0  0  0
   -9.3255   -0.8447    4.9647 C   0  0  0  0  0  0  0  0  0  0  0  0
   -8.3026   -1.0940    6.0936 C   0  0  1  0  0  0  0  0  0  0  0  0
   -8.9932   -1.4349    7.4484 C   0  0  0  0  0  0  0  0  0  0  0  0
   -9.5377   -0.5996    8.1613 O   0  0  0  0  0  0  0  0  0  0  0  0
   -9.0712   -2.7701    7.6978 N   0  0  0  0  0  0  0  0  0  0  0  0
   -8.1571   -3.6062    7.0001 C   0  0  0  0  0  0  0  0  0  0  0  0
   -4.8815    0.5214    6.3821 C   0  0  0  0  0  0  0  0  0  0  0  0
   -4.6679   -0.5730    7.3963 C   0  0  0  0  0  0  0  0  0  0  0  0
   -3.6716   -0.2451    8.2771 F   0  0  0  0  0  0  0  0  0  0  0  0
   -5.7549   -0.8261    8.1671 F   0  0  0  0  0  0  0  0  0  0  0  0
   -4.2624   -1.7510    6.8543 F   0  0  0  0  0  0  0  0  0  0  0  0
   -4.3079    1.7806    6.6748 C   0  0  0  0  0  0  0  0  0  0  0  0
  1  2  1  0
  2  3  2  0
  2  4  2  0
  2  5  1  0
  5  6  2  0
  6  7  1  0
  7  8  2  0
  8  9  1  0
  9 10  2  0
  9 11  1  0
 11 12  1  0
 12 13  1  6
 13 14  1  0
 14 15  1  0
 16 15  1  6
 16 17  1  0
 17 18  2  0
 17 19  1  0
 19 20  1  0
  8 21  1  0
 21 22  1  0
 22 23  1  0
 22 24  1  0
 22 25  1  0
 21 26  2  0
 26  5  1  0
 16 11  1  0
 20 12  1  0
M  END
>  <ref_mols>  (2006) 
7gpj-a

>  <gnina_score>  (2006) 
5.24

>  <smina_score_min>  (2006) 
-5.721

>  <ref_pdb>  (2006) 
7gpj-a

>  <inspiration_score>  (2006) 
None

>  <inchikey>  (2006) 
GPNXBMBXQNWDHC-PELKAZGASA-N

>  <tags>  (2006) 
BulkDock Fragalysis export,openbind_d68ev3c_c2_elabs_scored,openbind_d68ev3c_c2_elabs_scored_4.5plus,openbind_d68ev3c_c2_elabs,openbind_d68ev3c_c2_elabs_scored_5plus,syndirella_product,openbind_d68ev3c_c2_elabs_scored_top80percent,syndirella_placed

>  <smiles>  (2006) 
NS(=O)(=O)c1ccc(C(=O)N2[C@@H]3CCC[C@H]2C(=O)NC3)c(C(F)(F)F)c1

>  <subsites>  (2006) 
None

>  <rmsd(smina/fragmenstein)>  (2006) 
0.592

>  <alias>  (2006) 
None

>  <energy_score>  (2006) 
-61.160272

>  <HIPPO Pose ID>  (2006) 
138969

>  <distance_score>  (2006) 
0.866539

>  <HIPPO Compound ID>  (2006) 
164293

>  <gnina_score_min>  (2006) 
5.351

>  <name>  (2006) 
P138969

>  <exports>  (2006) 
['/opt/xchem-fragalysis-2/maxwin/BulkDock/OUTPUTS/openbind_d68ev3c_c2_elabs_1LOTQJ3.sdf', '/opt/xchem-fragalysis-2/maxwin/BulkDock/OUTPUTS/openbind_d68ev3c_c2_elabs_1LSYI5W.sdf']

$$$$
P138970
     RDKit          3D

 26 27  0  0  0  0  0  0  0  0999 V2000
  -11.0953   -0.2074    3.4204 C   0  0  0  0  0  0  0  0  0  0  0  0
  -10.1610   -0.1578    4.6197 C   0  0  0  0  0  0  0  0  0  0  0  0
   -9.2939   -1.4211    4.7062 C   0  0  0  0  0  0  0  0  0  0  0  0
   -8.3019   -1.3837    5.9142 C   0  0  1  0  0  0  0  0  0  0  0  0
   -8.9968   -1.5922    7.2878 C   0  0  0  0  0  0  0  0  0  0  0  0
   -9.4978   -0.6903    7.9487 O   0  0  0  0  0  0  0  0  0  0  0  0
   -9.0899   -2.9038    7.6408 N   0  0  0  0  0  0  0  0  0  0  0  0
   -8.1421   -3.7896    7.0559 C   0  0  0  0  0  0  0  0  0  0  0  0
   -7.5548   -3.2174    5.7640 C   0  0  0  0  0  0  0  0  0  0  0  0
   -6.8315   -1.8829    5.7351 N   0  0  0  0  0  0  0  0  0  0  0  0
   -6.1500   -1.1675    4.6118 C   0  0  0  0  0  0  0  0  0  0  0  0
   -6.0839   -1.4337    3.4706 O   0  0  0  0  0  0  0  0  0  0  0  0
   -5.5503    0.1428    5.0304 C   0  0  0  0  0  0  0  0  0  0  0  0
   -5.6974    1.1557    4.0522 C   0  0  0  0  0  0  0  0  0  0  0  0
   -5.1919    2.4380    4.2402 C   0  0  0  0  0  0  0  0  0  0  0  0
   -4.5432    2.7289    5.4310 C   0  0  0  0  0  0  0  0  0  0  0  0
   -3.6558    4.2533    5.6066 S   0  0  0  0  0  0  0  0  0  0  0  0
   -2.9337    4.4128    4.1024 N   0  0  0  0  0  0  0  0  0  0  0  0
   -4.6147    5.3250    5.7281 O   0  0  0  0  0  0  0  0  0  0  0  0
   -2.5736    4.0425    6.5407 O   0  0  0  0  0  0  0  0  0  0  0  0
   -4.4401    1.7640    6.4382 C   0  0  0  0  0  0  0  0  0  0  0  0
   -4.9132    0.4435    6.2468 C   0  0  0  0  0  0  0  0  0  0  0  0
   -4.6333   -0.5560    7.3408 C   0  0  0  0  0  0  0  0  0  0  0  0
   -3.6560   -0.1076    8.1904 F   0  0  0  0  0  0  0  0  0  0  0  0
   -4.1660   -1.7483    6.8858 F   0  0  0  0  0  0  0  0  0  0  0  0
   -5.7034   -0.8123    8.1345 F   0  0  0  0  0  0  0  0  0  0  0  0
  1  2  1  0
  2  3  1  0
  4  3  1  6
  4  5  1  0
  5  6  2  0
  5  7  1  0
  7  8  1  0
  8  9  1  0
  9 10  1  0
 10 11  1  0
 11 12  2  0
 11 13  1  0
 13 14  2  0
 14 15  1  0
 15 16  2  0
 16 17  1  0
 17 18  1  0
 17 19  2  0
 17 20  2  0
 16 21  1  0
 21 22  2  0
 22 23  1  0
 23 24  1  0
 23 25  1  0
 23 26  1  0
 10  4  1  0
 22 13  1  0
M  END
>  <ref_mols>  (2007) 
7gpj-a

>  <gnina_score>  (2007) 
5.257

>  <smina_score_min>  (2007) 
-5.468

>  <ref_pdb>  (2007) 
7gpj-a

>  <inspiration_score>  (2007) 
None

>  <inchikey>  (2007) 
JRYSPLLPRONEHU-LBPRGKRZSA-N

>  <tags>  (2007) 
BulkDock Fragalysis export,openbind_d68ev3c_c2_elabs_scored,openbind_d68ev3c_c2_elabs_scored_4.5plus,openbind_d68ev3c_c2_elabs,openbind_d68ev3c_c2_elabs_scored_5plus,syndirella_product,openbind_d68ev3c_c2_elabs_scored_top80percent,syndirella_placed

>  <smiles>  (2007) 
CCC[C@H]1C(=O)NCCN1C(=O)c1ccc(S(N)(=O)=O)cc1C(F)(F)F

>  <subsites>  (2007) 
None

>  <rmsd(smina/fragmenstein)>  (2007) 
0.792

>  <alias>  (2007) 
None

>  <energy_score>  (2007) 
-5.362286

>  <HIPPO Pose ID>  (2007) 
138970

>  <distance_score>  (2007) 
0.723485

>  <HIPPO Compound ID>  (2007) 
164332

>  <gnina_score_min>  (2007) 
5.256

>  <name>  (2007) 
P138970

>  <exports>  (2007) 
['/opt/xchem-fragalysis-2/maxwin/BulkDock/OUTPUTS/openbind_d68ev3c_c2_elabs_1LOTQJ3.sdf', '/opt/xchem-fragalysis-2/maxwin/BulkDock/OUTPUTS/openbind_d68ev3c_c2_elabs_1LSYI5W.sdf']

$$$$
P138972
     RDKit          3D

 26 28  0  0  0  0  0  0  0  0999 V2000
   -9.5046   -0.5639    8.0753 O   0  0  0  0  0  0  0  0  0  0  0  0
   -8.9624   -1.4129    7.3771 C   0  0  0  0  0  0  0  0  0  0  0  0
   -9.0649   -2.7449    7.6379 N   0  0  0  0  0  0  0  0  0  0  0  0
   -8.1232   -3.5890    6.9877 C   0  0  0  0  0  0  0  0  0  0  0  0
   -7.6343   -2.9504    5.6713 C   0  0  1  0  0  0  0  0  0  0  0  0
   -8.5700   -3.2141    4.4582 C   0  0  0  0  0  0  0  0  0  0  0  0
   -9.1742   -1.9749    3.8509 C   0  0  0  0  0  0  0  0  0  0  0  0
   -9.2304   -0.8727    4.8723 C   0  0  0  0  0  0  0  0  0  0  0  0
   -8.2374   -1.0938    6.0315 C   0  0  2  0  0  0  0  0  0  0  0  0
   -6.8255   -1.6494    5.7228 N   0  0  0  0  0  0  0  0  0  0  0  0
   -6.1612   -0.8675    4.6284 C   0  0  0  0  0  0  0  0  0  0  0  0
   -6.1733   -1.0275    3.4646 O   0  0  0  0  0  0  0  0  0  0  0  0
   -5.4580    0.3652    5.1213 C   0  0  0  0  0  0  0  0  0  0  0  0
   -5.5297    1.4439    4.2097 C   0  0  0  0  0  0  0  0  0  0  0  0
   -5.0184    2.7030    4.5141 C   0  0  0  0  0  0  0  0  0  0  0  0
   -4.4284    2.9290    5.7542 C   0  0  0  0  0  0  0  0  0  0  0  0
   -3.8566    4.2807    6.1216 C   0  0  0  0  0  0  0  0  0  0  0  0
   -3.7558    5.1345    5.0668 F   0  0  0  0  0  0  0  0  0  0  0  0
   -4.6156    4.9210    7.0519 F   0  0  0  0  0  0  0  0  0  0  0  0
   -2.6072    4.1834    6.6539 F   0  0  0  0  0  0  0  0  0  0  0  0
   -4.3693    1.8670    6.6717 C   0  0  0  0  0  0  0  0  0  0  0  0
   -4.8431    0.5662    6.3656 C   0  0  0  0  0  0  0  0  0  0  0  0
   -4.6094   -0.5134    7.3915 C   0  0  0  0  0  0  0  0  0  0  0  0
   -5.6920   -0.7772    8.1651 F   0  0  0  0  0  0  0  0  0  0  0  0
   -3.6197   -0.1536    8.2675 F   0  0  0  0  0  0  0  0  0  0  0  0
   -4.1823   -1.6911    6.8643 F   0  0  0  0  0  0  0  0  0  0  0  0
  1  2  2  0
  2  3  1  0
  3  4  1  0
  5  4  1  1
  5  6  1  0
  6  7  1  0
  7  8  1  0
  9  8  1  6
  9 10  1  0
 10 11  1  0
 11 12  2  0
 11 13  1  0
 13 14  2  0
 14 15  1  0
 15 16  2  0
 16 17  1  0
 17 18  1  0
 17 19  1  0
 17 20  1  0
 16 21  1  0
 21 22  2  0
 22 23  1  0
 23 24  1  0
 23 25  1  0
 23 26  1  0
  9  2  1  0
 22 13  1  0
 10  5  1  0
M  END
>  <ref_mols>  (2008) 
7gpj-a

>  <gnina_score>  (2008) 
5.226

>  <smina_score_min>  (2008) 
-5.771

>  <ref_pdb>  (2008) 
7gpj-a

>  <inspiration_score>  (2008) 
None

>  <inchikey>  (2008) 
VQBPREPSVBFNHO-SKDRFNHKSA-N

>  <tags>  (2008) 
BulkDock Fragalysis export,openbind_d68ev3c_c2_elabs_scored,openbind_d68ev3c_c2_elabs_scored_4.5plus,openbind_d68ev3c_c2_elabs,openbind_d68ev3c_c2_elabs_scored_5plus,syndirella_product,openbind_d68ev3c_c2_elabs_scored_top80percent,syndirella_placed

>  <smiles>  (2008) 
O=C1NC[C@H]2CCC[C@@H]1N2C(=O)c1ccc(C(F)(F)F)cc1C(F)(F)F

>  <subsites>  (2008) 
None

>  <rmsd(smina/fragmenstein)>  (2008) 
0.651

>  <alias>  (2008) 
None

>  <energy_score>  (2008) 
-54.530084

>  <HIPPO Pose ID>  (2008) 
138972

>  <distance_score>  (2008) 
0.836579

>  <HIPPO Compound ID>  (2008) 
164392

>  <gnina_score_min>  (2008) 
5.268

>  <name>  (2008) 
P138972

>  <exports>  (2008) 
['/opt/xchem-fragalysis-2/maxwin/BulkDock/OUTPUTS/openbind_d68ev3c_c2_elabs_1LOTQJ3.sdf', '/opt/xchem-fragalysis-2/maxwin/BulkDock/OUTPUTS/openbind_d68ev3c_c2_elabs_1LSYI5W.sdf']

$$$$
P138973
     RDKit          3D

 26 28  0  0  0  0  0  0  0  0999 V2000
   -6.0201    3.7064    2.5432 C   0  0  0  0  0  0  0  0  0  0  0  0
   -5.3375    3.8626    3.7793 O   0  0  0  0  0  0  0  0  0  0  0  0
   -5.2077    2.7611    4.5848 C   0  0  0  0  0  0  0  0  0  0  0  0
   -5.6426    1.4799    4.2536 C   0  0  0  0  0  0  0  0  0  0  0  0
   -5.4949    0.3859    5.1383 C   0  0  0  0  0  0  0  0  0  0  0  0
   -6.1767   -0.8546    4.6404 C   0  0  0  0  0  0  0  0  0  0  0  0
   -6.1831   -1.0150    3.4767 O   0  0  0  0  0  0  0  0  0  0  0  0
   -6.8323   -1.6457    5.7329 N   0  0  0  0  0  0  0  0  0  0  0  0
   -7.6219   -2.9590    5.6795 C   0  0  2  0  0  0  0  0  0  0  0  0
   -8.5556   -3.2339    4.4670 C   0  0  0  0  0  0  0  0  0  0  0  0
   -9.1695   -2.0022    3.8546 C   0  0  0  0  0  0  0  0  0  0  0  0
   -9.2490   -0.9052    4.8792 C   0  0  0  0  0  0  0  0  0  0  0  0
   -8.2522   -1.1112    6.0373 C   0  0  1  0  0  0  0  0  0  0  0  0
   -8.9673   -1.4366    7.3860 C   0  0  0  0  0  0  0  0  0  0  0  0
   -9.5170   -0.5934    8.0854 O   0  0  0  0  0  0  0  0  0  0  0  0
   -9.0495   -2.7690    7.6508 N   0  0  0  0  0  0  0  0  0  0  0  0
   -8.1037   -3.6041    6.9949 C   0  0  0  0  0  0  0  0  0  0  0  0
   -4.8666    0.5804    6.3739 C   0  0  0  0  0  0  0  0  0  0  0  0
   -4.5849   -0.5084    7.3750 C   0  0  0  0  0  0  0  0  0  0  0  0
   -3.5757   -0.1473    8.2284 F   0  0  0  0  0  0  0  0  0  0  0  0
   -4.1590   -1.6743    6.8210 F   0  0  0  0  0  0  0  0  0  0  0  0
   -5.6414   -0.7985    8.1760 F   0  0  0  0  0  0  0  0  0  0  0  0
   -4.4475    1.8915    6.7072 C   0  0  0  0  0  0  0  0  0  0  0  0
   -4.6018    2.9697    5.8291 C   0  0  0  0  0  0  0  0  0  0  0  0
   -4.2113    4.2545    6.1062 O   0  0  0  0  0  0  0  0  0  0  0  0
   -3.4272    4.4754    7.2708 C   0  0  0  0  0  0  0  0  0  0  0  0
  1  2  1  0
  2  3  1  0
  3  4  2  0
  4  5  1  0
  5  6  1  0
  6  7  2  0
  6  8  1  0
  8  9  1  0
  9 10  1  6
 10 11  1  0
 11 12  1  0
 13 12  1  6
 13 14  1  0
 14 15  2  0
 14 16  1  0
 16 17  1  0
  5 18  2  0
 18 19  1  0
 19 20  1  0
 19 21  1  0
 19 22  1  0
 18 23  1  0
 23 24  2  0
 24 25  1  0
 25 26  1  0
 24  3  1  0
 13  8  1  0
 17  9  1  0
M  END
>  <ref_mols>  (2009) 
7gpj-a

>  <gnina_score>  (2009) 
5.145

>  <smina_score_min>  (2009) 
-5.265

>  <ref_pdb>  (2009) 
7gpj-a

>  <inspiration_score>  (2009) 
None

>  <inchikey>  (2009) 
GQNLCHRDEIUUAZ-SKDRFNHKSA-N

>  <tags>  (2009) 
BulkDock Fragalysis export,openbind_d68ev3c_c2_elabs_scored,openbind_d68ev3c_c2_elabs_scored_4.5plus,openbind_d68ev3c_c2_elabs,openbind_d68ev3c_c2_elabs_scored_5plus,syndirella_product,openbind_d68ev3c_c2_elabs_scored_top80percent,syndirella_placed

>  <smiles>  (2009) 
COc1cc(C(=O)N2[C@@H]3CCC[C@H]2C(=O)NC3)c(C(F)(F)F)cc1OC

>  <subsites>  (2009) 
None

>  <rmsd(smina/fragmenstein)>  (2009) 
0.723

>  <alias>  (2009) 
None

>  <energy_score>  (2009) 
-44.700117

>  <HIPPO Pose ID>  (2009) 
138973

>  <distance_score>  (2009) 
0.835759

>  <HIPPO Compound ID>  (2009) 
164398

>  <gnina_score_min>  (2009) 
5.132

>  <name>  (2009) 
P138973

>  <exports>  (2009) 
['/opt/xchem-fragalysis-2/maxwin/BulkDock/OUTPUTS/openbind_d68ev3c_c2_elabs_1LOTQJ3.sdf', '/opt/xchem-fragalysis-2/maxwin/BulkDock/OUTPUTS/openbind_d68ev3c_c2_elabs_1LSYI5W.sdf']

$$$$
P138975
     RDKit          3D

 26 28  0  0  0  0  0  0  0  0999 V2000
   -9.4991   -0.4776    7.9769 O   0  0  0  0  0  0  0  0  0  0  0  0
   -8.9981   -1.3534    7.2816 C   0  0  0  0  0  0  0  0  0  0  0  0
   -9.1282   -2.6795    7.5688 N   0  0  0  0  0  0  0  0  0  0  0  0
   -8.1463   -3.5332    6.9940 C   0  0  0  0  0  0  0  0  0  0  0  0
   -7.5750   -2.9315    5.6932 C   0  0  1  0  0  0  0  0  0  0  0  0
   -8.3955   -3.2845    4.4207 C   0  0  0  0  0  0  0  0  0  0  0  0
   -8.9992   -2.0958    3.7233 C   0  0  0  0  0  0  0  0  0  0  0  0
   -9.2610   -1.0236    4.7396 C   0  0  0  0  0  0  0  0  0  0  0  0
   -8.2737   -1.0841    5.9228 C   0  0  2  0  0  0  0  0  0  0  0  0
   -6.8202   -1.5961    5.7408 N   0  0  0  0  0  0  0  0  0  0  0  0
   -6.1077   -0.8373    4.6606 C   0  0  0  0  0  0  0  0  0  0  0  0
   -6.0294   -1.0488    3.5099 O   0  0  0  0  0  0  0  0  0  0  0  0
   -5.4875    0.4440    5.1389 C   0  0  0  0  0  0  0  0  0  0  0  0
   -5.6063    1.5676    4.2663 C   0  0  0  0  0  0  0  0  0  0  0  0
   -6.2654    1.5161    2.8956 C   0  0  0  0  0  0  0  0  0  0  0  0
   -5.5047    0.9051    1.9475 F   0  0  0  0  0  0  0  0  0  0  0  0
   -7.4931    0.9312    2.8910 F   0  0  0  0  0  0  0  0  0  0  0  0
   -6.4943    2.7698    2.3897 F   0  0  0  0  0  0  0  0  0  0  0  0
   -5.1014    2.8153    4.6736 C   0  0  0  0  0  0  0  0  0  0  0  0
   -4.5260    2.9783    5.9220 C   0  0  0  0  0  0  0  0  0  0  0  0
   -4.4181    1.8879    6.7738 C   0  0  0  0  0  0  0  0  0  0  0  0
   -4.8604    0.6001    6.3950 C   0  0  0  0  0  0  0  0  0  0  0  0
   -4.5856   -0.5186    7.3718 C   0  0  0  0  0  0  0  0  0  0  0  0
   -5.6413   -0.8183    8.1701 F   0  0  0  0  0  0  0  0  0  0  0  0
   -3.5703   -0.1862    8.2300 F   0  0  0  0  0  0  0  0  0  0  0  0
   -4.1686   -1.6739    6.7894 F   0  0  0  0  0  0  0  0  0  0  0  0
  1  2  2  0
  2  3  1  0
  3  4  1  0
  5  4  1  1
  5  6  1  0
  6  7  1  0
  7  8  1  0
  9  8  1  6
  9 10  1  0
 10 11  1  0
 11 12  2  0
 11 13  1  0
 13 14  2  0
 14 15  1  0
 15 16  1  0
 15 17  1  0
 15 18  1  0
 14 19  1  0
 19 20  2  0
 20 21  1  0
 21 22  2  0
 22 23  1  0
 23 24  1  0
 23 25  1  0
 23 26  1  0
  9  2  1  0
 22 13  1  0
 10  5  1  0
M  END
>  <ref_mols>  (2010) 
7gpj-a

>  <gnina_score>  (2010) 
5.193

>  <smina_score_min>  (2010) 
-5.238

>  <ref_pdb>  (2010) 
7gpj-a

>  <inspiration_score>  (2010) 
None

>  <inchikey>  (2010) 
HMKFEORTBDEXFH-KCJUWKMLSA-N

>  <tags>  (2010) 
BulkDock Fragalysis export,openbind_d68ev3c_c2_elabs_scored,openbind_d68ev3c_c2_elabs_scored_4.5plus,openbind_d68ev3c_c2_elabs,openbind_d68ev3c_c2_elabs_scored_5plus,syndirella_product,openbind_d68ev3c_c2_elabs_scored_top80percent,syndirella_placed

>  <smiles>  (2010) 
O=C1NC[C@H]2CCC[C@@H]1N2C(=O)c1c(C(F)(F)F)cccc1C(F)(F)F

>  <subsites>  (2010) 
None

>  <rmsd(smina/fragmenstein)>  (2010) 
0.766

>  <alias>  (2010) 
None

>  <energy_score>  (2010) 
-38.127041

>  <HIPPO Pose ID>  (2010) 
138975

>  <distance_score>  (2010) 
0.860612

>  <HIPPO Compound ID>  (2010) 
164424

>  <gnina_score_min>  (2010) 
5.285

>  <name>  (2010) 
P138975

>  <exports>  (2010) 
['/opt/xchem-fragalysis-2/maxwin/BulkDock/OUTPUTS/openbind_d68ev3c_c2_elabs_1LOTQJ3.sdf', '/opt/xchem-fragalysis-2/maxwin/BulkDock/OUTPUTS/openbind_d68ev3c_c2_elabs_1LSYI5W.sdf']

$$$$
P138977
     RDKit          3D

 26 28  0  0  0  0  0  0  0  0999 V2000
   -9.4866   -0.5692    8.0715 O   0  0  0  0  0  0  0  0  0  0  0  0
   -8.9446   -1.4200    7.3754 C   0  0  0  0  0  0  0  0  0  0  0  0
   -9.0444   -2.7510    7.6421 N   0  0  0  0  0  0  0  0  0  0  0  0
   -8.1058   -3.5979    6.9910 C   0  0  0  0  0  0  0  0  0  0  0  0
   -7.6146   -2.9620    5.6743 C   0  0  1  0  0  0  0  0  0  0  0  0
   -8.5491   -3.2285    4.4606 C   0  0  0  0  0  0  0  0  0  0  0  0
   -9.1493   -1.9908    3.8465 C   0  0  0  0  0  0  0  0  0  0  0  0
   -9.2145   -0.8897    4.8681 C   0  0  0  0  0  0  0  0  0  0  0  0
   -8.2213   -1.1048    6.0275 C   0  0  2  0  0  0  0  0  0  0  0  0
   -6.8078   -1.6588    5.7235 N   0  0  0  0  0  0  0  0  0  0  0  0
   -6.1427   -0.8793    4.6283 C   0  0  0  0  0  0  0  0  0  0  0  0
   -6.1520   -1.0429    3.4650 O   0  0  0  0  0  0  0  0  0  0  0  0
   -5.4418    0.3574    5.1158 C   0  0  0  0  0  0  0  0  0  0  0  0
   -5.5068    1.4275    4.1908 C   0  0  0  0  0  0  0  0  0  0  0  0
   -5.0257    2.7074    4.4886 C   0  0  0  0  0  0  0  0  0  0  0  0
   -5.1069    3.8068    3.4577 C   0  0  0  0  0  0  0  0  0  0  0  0
   -4.3869    3.5210    2.3378 F   0  0  0  0  0  0  0  0  0  0  0  0
   -4.6512    5.0098    3.9030 F   0  0  0  0  0  0  0  0  0  0  0  0
   -6.3833    4.0252    3.0356 F   0  0  0  0  0  0  0  0  0  0  0  0
   -4.4861    2.9281    5.7523 C   0  0  0  0  0  0  0  0  0  0  0  0
   -4.4064    1.8829    6.6754 C   0  0  0  0  0  0  0  0  0  0  0  0
   -4.8481    0.5740    6.3675 C   0  0  0  0  0  0  0  0  0  0  0  0
   -4.6081   -0.4971    7.4002 C   0  0  0  0  0  0  0  0  0  0  0  0
   -5.6910   -0.7673    8.1714 F   0  0  0  0  0  0  0  0  0  0  0  0
   -3.6242   -0.1253    8.2780 F   0  0  0  0  0  0  0  0  0  0  0  0
   -4.1704   -1.6747    6.8800 F   0  0  0  0  0  0  0  0  0  0  0  0
  1  2  2  0
  2  3  1  0
  3  4  1  0
  5  4  1  1
  5  6  1  0
  6  7  1  0
  7  8  1  0
  9  8  1  6
  9 10  1  0
 10 11  1  0
 11 12  2  0
 11 13  1  0
 13 14  2  0
 14 15  1  0
 15 16  1  0
 16 17  1  0
 16 18  1  0
 16 19  1  0
 15 20  2  0
 20 21  1  0
 21 22  2  0
 22 23  1  0
 23 24  1  0
 23 25  1  0
 23 26  1  0
  9  2  1  0
 22 13  1  0
 10  5  1  0
M  END
>  <ref_mols>  (2011) 
7gpj-a

>  <gnina_score>  (2011) 
5.144

>  <smina_score_min>  (2011) 
-5.255

>  <ref_pdb>  (2011) 
7gpj-a

>  <inspiration_score>  (2011) 
None

>  <inchikey>  (2011) 
HEXWEOBMAPBQCW-SKDRFNHKSA-N

>  <tags>  (2011) 
BulkDock Fragalysis export,openbind_d68ev3c_c2_elabs_scored,openbind_d68ev3c_c2_elabs_scored_4.5plus,openbind_d68ev3c_c2_elabs,openbind_d68ev3c_c2_elabs_scored_5plus,syndirella_product,openbind_d68ev3c_c2_elabs_scored_top80percent,syndirella_placed

>  <smiles>  (2011) 
O=C1NC[C@H]2CCC[C@@H]1N2C(=O)c1cc(C(F)(F)F)ccc1C(F)(F)F

>  <subsites>  (2011) 
None

>  <rmsd(smina/fragmenstein)>  (2011) 
0.911

>  <alias>  (2011) 
None

>  <energy_score>  (2011) 
-56.366887

>  <HIPPO Pose ID>  (2011) 
138977

>  <distance_score>  (2011) 
0.8245

>  <HIPPO Compound ID>  (2011) 
164451

>  <gnina_score_min>  (2011) 
5.306

>  <name>  (2011) 
P138977

>  <exports>  (2011) 
['/opt/xchem-fragalysis-2/maxwin/BulkDock/OUTPUTS/openbind_d68ev3c_c2_elabs_1LOTQJ3.sdf', '/opt/xchem-fragalysis-2/maxwin/BulkDock/OUTPUTS/openbind_d68ev3c_c2_elabs_1LSYI5W.sdf']

$$$$
P138978
     RDKit          3D

 26 28  0  0  0  0  0  0  0  0999 V2000
   -9.6172   -0.3334    7.8198 O   0  0  0  0  0  0  0  0  0  0  0  0
   -9.0907   -1.2427    7.1903 C   0  0  0  0  0  0  0  0  0  0  0  0
   -9.2076   -2.5479    7.5649 N   0  0  0  0  0  0  0  0  0  0  0  0
   -8.1614   -3.3872    7.1038 C   0  0  0  0  0  0  0  0  0  0  0  0
   -7.6307   -2.9031    5.7476 C   0  0  1  0  0  0  0  0  0  0  0  0
   -8.4916   -3.3628    4.5375 C   0  0  0  0  0  0  0  0  0  0  0  0
   -9.1595   -2.2562    3.7621 C   0  0  0  0  0  0  0  0  0  0  0  0
   -9.3076   -1.0361    4.6248 C   0  0  0  0  0  0  0  0  0  0  0  0
   -8.3426   -1.0512    5.8231 C   0  0  2  0  0  0  0  0  0  0  0  0
   -6.8908   -1.5707    5.6328 N   0  0  0  0  0  0  0  0  0  0  0  0
   -6.2305   -0.9191    4.4562 C   0  0  0  0  0  0  0  0  0  0  0  0
   -6.1964   -1.2432    3.3288 O   0  0  0  0  0  0  0  0  0  0  0  0
   -5.6033    0.4044    4.7665 C   0  0  0  0  0  0  0  0  0  0  0  0
   -5.8021    1.3471    3.7202 C   0  0  0  0  0  0  0  0  0  0  0  0
   -6.4887    1.0346    2.6099 F   0  0  0  0  0  0  0  0  0  0  0  0
   -5.3589    2.6566    3.7956 C   0  0  0  0  0  0  0  0  0  0  0  0
   -4.7424    3.0808    4.9492 C   0  0  0  0  0  0  0  0  0  0  0  0
   -4.5732    2.1712    6.0052 C   0  0  0  0  0  0  0  0  0  0  0  0
   -4.0361    2.7855    7.1964 N   0  0  0  0  0  0  0  0  0  0  0  0
   -2.8069    2.8354    7.2899 O   0  0  0  0  0  0  0  0  0  0  0  0
   -4.8663    3.2839    7.9580 O   0  0  0  0  0  0  0  0  0  0  0  0
   -4.9564    0.8065    5.9545 C   0  0  0  0  0  0  0  0  0  0  0  0
   -4.6698   -0.1293    7.1033 C   0  0  0  0  0  0  0  0  0  0  0  0
   -5.7346   -0.3346    7.9180 F   0  0  0  0  0  0  0  0  0  0  0  0
   -4.2342   -1.3551    6.6995 F   0  0  0  0  0  0  0  0  0  0  0  0
   -3.6737    0.3189    7.9201 F   0  0  0  0  0  0  0  0  0  0  0  0
  1  2  2  0
  2  3  1  0
  3  4  1  0
  5  4  1  1
  5  6  1  0
  6  7  1  0
  7  8  1  0
  9  8  1  6
  9 10  1  0
 10 11  1  0
 11 12  2  0
 11 13  1  0
 13 14  2  0
 14 15  1  0
 14 16  1  0
 16 17  2  0
 17 18  1  0
 18 19  1  0
 19 20  2  0
 19 21  1  0
 18 22  2  0
 22 23  1  0
 23 24  1  0
 23 25  1  0
 23 26  1  0
  9  2  1  0
 22 13  1  0
 10  5  1  0
M  CHG  2  19   1  21  -1
M  END
>  <ref_mols>  (2012) 
7gpj-a

>  <gnina_score>  (2012) 
5.273

>  <smina_score_min>  (2012) 
-4.706

>  <ref_pdb>  (2012) 
7gpj-a

>  <inspiration_score>  (2012) 
None

>  <inchikey>  (2012) 
JIINXXBNNSDSAR-XCBNKYQSSA-N

>  <tags>  (2012) 
BulkDock Fragalysis export,openbind_d68ev3c_c2_elabs_scored,openbind_d68ev3c_c2_elabs_scored_4.5plus,openbind_d68ev3c_c2_elabs,openbind_d68ev3c_c2_elabs_scored_5plus,syndirella_product,openbind_d68ev3c_c2_elabs_scored_top80percent,syndirella_placed

>  <smiles>  (2012) 
O=C1NC[C@H]2CCC[C@@H]1N2C(=O)c1c(F)ccc([N+](=O)[O-])c1C(F)(F)F

>  <subsites>  (2012) 
None

>  <rmsd(smina/fragmenstein)>  (2012) 
0.749

>  <alias>  (2012) 
None

>  <energy_score>  (2012) 
-73.245068

>  <HIPPO Pose ID>  (2012) 
138978

>  <distance_score>  (2012) 
0.91872

>  <HIPPO Compound ID>  (2012) 
164481

>  <gnina_score_min>  (2012) 
5.296

>  <name>  (2012) 
P138978

>  <exports>  (2012) 
['/opt/xchem-fragalysis-2/maxwin/BulkDock/OUTPUTS/openbind_d68ev3c_c2_elabs_1LOTQJ3.sdf', '/opt/xchem-fragalysis-2/maxwin/BulkDock/OUTPUTS/openbind_d68ev3c_c2_elabs_1LSYI5W.sdf']

$$$$
P138979
     RDKit          3D

 26 27  0  0  0  0  0  0  0  0999 V2000
   -8.8020    1.1582    5.6989 C   0  0  0  0  0  0  0  0  0  0  0  0
   -9.0915    0.0368    4.6960 C   0  0  0  0  0  0  0  0  0  0  0  0
  -10.4875    0.2252    4.0752 C   0  0  0  0  0  0  0  0  0  0  0  0
   -8.8608   -1.4239    5.2668 C   0  0  2  0  0  0  0  0  0  0  0  0
   -9.7543   -1.5493    6.5832 C   0  0  0  0  0  0  0  0  0  0  0  0
  -10.7033   -0.8270    6.8712 O   0  0  0  0  0  0  0  0  0  0  0  0
   -9.5069   -2.6470    7.3500 N   0  0  0  0  0  0  0  0  0  0  0  0
   -8.2767   -3.3246    7.1670 C   0  0  0  0  0  0  0  0  0  0  0  0
   -7.8259   -3.1536    5.7306 C   0  0  0  0  0  0  0  0  0  0  0  0
   -7.2536   -1.8070    5.3868 N   0  0  0  0  0  0  0  0  0  0  0  0
   -6.5527   -1.3663    4.2325 C   0  0  0  0  0  0  0  0  0  0  0  0
   -6.3175   -1.9307    3.1995 O   0  0  0  0  0  0  0  0  0  0  0  0
   -5.9275   -0.0137    4.3855 C   0  0  0  0  0  0  0  0  0  0  0  0
   -5.9630    0.8381    3.2643 C   0  0  0  0  0  0  0  0  0  0  0  0
   -6.5351    0.4456    2.1170 F   0  0  0  0  0  0  0  0  0  0  0  0
   -5.4619    2.1365    3.3135 C   0  0  0  0  0  0  0  0  0  0  0  0
   -4.9407    2.6228    4.5029 C   0  0  0  0  0  0  0  0  0  0  0  0
   -4.8838    1.7701    5.6131 C   0  0  0  0  0  0  0  0  0  0  0  0
   -4.4840    2.3731    6.8715 N   0  0  0  0  0  0  0  0  0  0  0  0
   -3.3686    2.9000    6.9211 O   0  0  0  0  0  0  0  0  0  0  0  0
   -5.3163    2.3149    7.7800 O   0  0  0  0  0  0  0  0  0  0  0  0
   -5.2971    0.4205    5.5702 C   0  0  0  0  0  0  0  0  0  0  0  0
   -5.0115   -0.5015    6.7298 C   0  0  0  0  0  0  0  0  0  0  0  0
   -3.9114   -0.1081    7.4389 F   0  0  0  0  0  0  0  0  0  0  0  0
   -4.7013   -1.7716    6.3457 F   0  0  0  0  0  0  0  0  0  0  0  0
   -6.0228   -0.5926    7.6270 F   0  0  0  0  0  0  0  0  0  0  0  0
  1  2  1  0
  2  3  1  0
  4  2  1  1
  4  5  1  0
  5  6  2  0
  5  7  1  0
  7  8  1  0
  8  9  1  0
  9 10  1  0
 10 11  1  0
 11 12  2  0
 11 13  1  0
 13 14  2  0
 14 15  1  0
 14 16  1  0
 16 17  2  0
 17 18  1  0
 18 19  1  0
 19 20  2  0
 19 21  1  0
 18 22  2  0
 22 23  1  0
 23 24  1  0
 23 25  1  0
 23 26  1  0
 10  4  1  0
 22 13  1  0
M  CHG  2  19   1  21  -1
M  END
>  <ref_mols>  (2013) 
7gpj-a

>  <gnina_score>  (2013) 
5.286

>  <smina_score_min>  (2013) 
-4.727

>  <ref_pdb>  (2013) 
7gpj-a

>  <inspiration_score>  (2013) 
None

>  <inchikey>  (2013) 
KPBKXSBRIVLXIA-GFCCVEGCSA-N

>  <tags>  (2013) 
BulkDock Fragalysis export,openbind_d68ev3c_c2_elabs_scored,openbind_d68ev3c_c2_elabs_scored_4.5plus,openbind_d68ev3c_c2_elabs,openbind_d68ev3c_c2_elabs_scored_5plus,syndirella_product,openbind_d68ev3c_c2_elabs_scored_top80percent,syndirella_placed

>  <smiles>  (2013) 
CC(C)[C@@H]1C(=O)NCCN1C(=O)c1c(F)ccc([N+](=O)[O-])c1C(F)(F)F

>  <subsites>  (2013) 
None

>  <rmsd(smina/fragmenstein)>  (2013) 
0.497

>  <alias>  (2013) 
None

>  <energy_score>  (2013) 
-3.761617

>  <HIPPO Pose ID>  (2013) 
138979

>  <distance_score>  (2013) 
1.282727

>  <HIPPO Compound ID>  (2013) 
164483

>  <gnina_score_min>  (2013) 
5.39

>  <name>  (2013) 
P138979

>  <exports>  (2013) 
['/opt/xchem-fragalysis-2/maxwin/BulkDock/OUTPUTS/openbind_d68ev3c_c2_elabs_1LOTQJ3.sdf', '/opt/xchem-fragalysis-2/maxwin/BulkDock/OUTPUTS/openbind_d68ev3c_c2_elabs_1LSYI5W.sdf']

$$$$
P138980
     RDKit          3D

 26 28  0  0  0  0  0  0  0  0999 V2000
   -8.0652   -4.5752    7.8066 O   0  0  0  0  0  0  0  0  0  0  0  0
   -8.1373   -3.4396    7.3602 C   0  0  0  0  0  0  0  0  0  0  0  0
   -8.9363   -2.4842    7.8919 N   0  0  0  0  0  0  0  0  0  0  0  0
   -9.0131   -1.2781    7.2740 C   0  0  0  0  0  0  0  0  0  0  0  0
   -9.5885   -0.3172    7.7704 O   0  0  0  0  0  0  0  0  0  0  0  0
   -8.3456   -1.2519    5.8615 C   0  0  2  0  0  0  0  0  0  0  0  0
   -9.1266   -1.9836    4.7897 C   0  0  0  0  0  0  0  0  0  0  0  0
   -8.4542   -3.3066    4.8865 C   0  0  0  0  0  0  0  0  0  0  0  0
   -7.4919   -3.0220    6.0371 C   0  0  1  0  0  0  0  0  0  0  0  0
   -6.8614   -1.6353    5.8784 N   0  0  0  0  0  0  0  0  0  0  0  0
   -6.1293   -1.0233    4.7261 C   0  0  0  0  0  0  0  0  0  0  0  0
   -5.9359   -1.4348    3.6447 O   0  0  0  0  0  0  0  0  0  0  0  0
   -5.6663    0.3674    4.9846 C   0  0  0  0  0  0  0  0  0  0  0  0
   -6.0026    1.2516    3.9314 C   0  0  0  0  0  0  0  0  0  0  0  0
   -6.7323    0.8372    2.8840 F   0  0  0  0  0  0  0  0  0  0  0  0
   -5.6462    2.5892    3.9465 C   0  0  0  0  0  0  0  0  0  0  0  0
   -4.9655    3.0818    5.0402 C   0  0  0  0  0  0  0  0  0  0  0  0
   -4.6566    2.2185    6.1064 C   0  0  0  0  0  0  0  0  0  0  0  0
   -4.0123    2.8882    7.2158 N   0  0  0  0  0  0  0  0  0  0  0  0
   -2.7785    2.8753    7.2328 O   0  0  0  0  0  0  0  0  0  0  0  0
   -4.7615    3.4951    7.9846 O   0  0  0  0  0  0  0  0  0  0  0  0
   -4.9744    0.8390    6.1188 C   0  0  0  0  0  0  0  0  0  0  0  0
   -4.6034   -0.0663    7.2647 C   0  0  0  0  0  0  0  0  0  0  0  0
   -4.1036   -1.2647    6.8564 F   0  0  0  0  0  0  0  0  0  0  0  0
   -3.6378    0.4488    8.0725 F   0  0  0  0  0  0  0  0  0  0  0  0
   -5.6513   -0.3376    8.0847 F   0  0  0  0  0  0  0  0  0  0  0  0
  1  2  2  0
  2  3  1  0
  3  4  1  0
  4  5  2  0
  4  6  1  0
  6  7  1  6
  7  8  1  0
  9  8  1  6
  9 10  1  0
 10 11  1  0
 11 12  2  0
 11 13  1  0
 13 14  2  0
 14 15  1  0
 14 16  1  0
 16 17  2  0
 17 18  1  0
 18 19  1  0
 19 20  2  0
 19 21  1  0
 18 22  2  0
 22 23  1  0
 23 24  1  0
 23 25  1  0
 23 26  1  0
  9  2  1  0
 22 13  1  0
 10  6  1  0
M  CHG  2  19   1  21  -1
M  END
>  <ref_mols>  (2014) 
7gpj-a

>  <gnina_score>  (2014) 
5.095

>  <smina_score_min>  (2014) 
-5.266

>  <ref_pdb>  (2014) 
7gpj-a

>  <inspiration_score>  (2014) 
None

>  <inchikey>  (2014) 
FIFMOJFJNSMHKE-OCAPTIKFSA-N

>  <tags>  (2014) 
BulkDock Fragalysis export,openbind_d68ev3c_c2_elabs_scored,openbind_d68ev3c_c2_elabs_scored_4.5plus,openbind_d68ev3c_c2_elabs,openbind_d68ev3c_c2_elabs_scored_5plus,syndirella_product,openbind_d68ev3c_c2_elabs_scored_top80percent,syndirella_placed

>  <smiles>  (2014) 
O=C1NC(=O)[C@@H]2CC[C@H]1N2C(=O)c1c(F)ccc([N+](=O)[O-])c1C(F)(F)F

>  <subsites>  (2014) 
None

>  <rmsd(smina/fragmenstein)>  (2014) 
0.312

>  <alias>  (2014) 
None

>  <energy_score>  (2014) 
-7.142087

>  <HIPPO Pose ID>  (2014) 
138980

>  <distance_score>  (2014) 
0.782034

>  <HIPPO Compound ID>  (2014) 
164485

>  <gnina_score_min>  (2014) 
5.024

>  <name>  (2014) 
P138980

>  <exports>  (2014) 
['/opt/xchem-fragalysis-2/maxwin/BulkDock/OUTPUTS/openbind_d68ev3c_c2_elabs_1LOTQJ3.sdf', '/opt/xchem-fragalysis-2/maxwin/BulkDock/OUTPUTS/openbind_d68ev3c_c2_elabs_1LSYI5W.sdf']

$$$$
P138982
     RDKit          3D

 26 28  0  0  0  0  0  0  0  0999 V2000
   -5.4622   -0.8478    3.1630 O   0  0  0  0  0  0  0  0  0  0  0  0
   -5.7728   -0.2754    4.1687 C   0  0  0  0  0  0  0  0  0  0  0  0
   -5.1438    1.0465    4.4320 C   0  0  0  0  0  0  0  0  0  0  0  0
   -5.1255    1.9351    3.3413 C   0  0  0  0  0  0  0  0  0  0  0  0
   -5.6364    1.5827    2.1529 F   0  0  0  0  0  0  0  0  0  0  0  0
   -4.6273    3.2250    3.4660 C   0  0  0  0  0  0  0  0  0  0  0  0
   -4.1472    3.6497    4.6950 C   0  0  0  0  0  0  0  0  0  0  0  0
   -4.1695    2.7620    5.7820 C   0  0  0  0  0  0  0  0  0  0  0  0
   -3.6471    3.2881    7.0253 N   0  0  0  0  0  0  0  0  0  0  0  0
   -2.4157    3.3596    7.1170 O   0  0  0  0  0  0  0  0  0  0  0  0
   -4.4835    3.6348    7.8627 O   0  0  0  0  0  0  0  0  0  0  0  0
   -4.6472    1.4393    5.6914 C   0  0  0  0  0  0  0  0  0  0  0  0
   -4.6039    0.4900    6.8633 C   0  0  0  0  0  0  0  0  0  0  0  0
   -3.6513    0.8171    7.7807 F   0  0  0  0  0  0  0  0  0  0  0  0
   -4.2878   -0.7864    6.5051 F   0  0  0  0  0  0  0  0  0  0  0  0
   -5.7693    0.4303    7.5545 F   0  0  0  0  0  0  0  0  0  0  0  0
   -6.7336   -0.5978    5.1479 N   0  0  0  0  0  0  0  0  0  0  0  0
   -8.0798    0.0428    4.7966 C   0  0  0  0  0  0  0  0  0  0  0  0
   -9.2137    0.2244    5.8270 C   0  0  0  0  0  0  0  0  0  0  0  0
  -10.0544    1.1113    5.7103 O   0  0  0  0  0  0  0  0  0  0  0  0
   -9.2975   -0.7878    6.7533 N   0  0  0  0  0  0  0  0  0  0  0  0
  -10.6029   -1.2384    7.1878 C   0  0  0  0  0  0  0  0  0  0  0  0
  -10.6764   -2.6035    6.5267 C   0  0  0  0  0  0  0  0  0  0  0  0
   -9.2606   -3.1457    6.7346 C   0  0  0  0  0  0  0  0  0  0  0  0
   -8.3776   -1.8972    6.6290 C   0  0  1  0  0  0  0  0  0  0  0  0
   -7.6036   -1.8206    5.3101 C   0  0  0  0  0  0  0  0  0  0  0  0
  1  2  2  0
  2  3  1  0
  3  4  2  0
  4  5  1  0
  4  6  1  0
  6  7  2  0
  7  8  1  0
  8  9  1  0
  9 10  2  0
  9 11  1  0
  8 12  2  0
 12 13  1  0
 13 14  1  0
 13 15  1  0
 13 16  1  0
  2 17  1  0
 17 18  1  0
 18 19  1  0
 19 20  2  0
 19 21  1  0
 21 22  1  0
 22 23  1  0
 23 24  1  0
 25 24  1  6
 25 26  1  0
 12  3  1  0
 26 17  1  0
 25 21  1  0
M  CHG  2   9   1  11  -1
M  END
>  <ref_mols>  (2015) 
7gpj-a

>  <gnina_score>  (2015) 
5.221

>  <smina_score_min>  (2015) 
-4.145

>  <ref_pdb>  (2015) 
7gpj-a

>  <inspiration_score>  (2015) 
None

>  <inchikey>  (2015) 
QQFOCZNNWLXDAY-QMMMGPOBSA-N

>  <tags>  (2015) 
BulkDock Fragalysis export,openbind_d68ev3c_c2_elabs_scored,openbind_d68ev3c_c2_elabs_scored_4.5plus,openbind_d68ev3c_c2_elabs,openbind_d68ev3c_c2_elabs_scored_5plus,syndirella_product,openbind_d68ev3c_c2_elabs_scored_top80percent,syndirella_placed

>  <smiles>  (2015) 
O=C(c1c(F)ccc([N+](=O)[O-])c1C(F)(F)F)N1CC(=O)N2CCC[C@H]2C1

>  <subsites>  (2015) 
None

>  <rmsd(smina/fragmenstein)>  (2015) 
0.359

>  <alias>  (2015) 
None

>  <energy_score>  (2015) 
-1.877633

>  <HIPPO Pose ID>  (2015) 
138982

>  <distance_score>  (2015) 
1.883436

>  <HIPPO Compound ID>  (2015) 
164496

>  <gnina_score_min>  (2015) 
5.299

>  <name>  (2015) 
P138982

>  <exports>  (2015) 
['/opt/xchem-fragalysis-2/maxwin/BulkDock/OUTPUTS/openbind_d68ev3c_c2_elabs_1LOTQJ3.sdf', '/opt/xchem-fragalysis-2/maxwin/BulkDock/OUTPUTS/openbind_d68ev3c_c2_elabs_1LSYI5W.sdf']

$$$$
P138983
     RDKit          3D

 26 27  0  0  0  0  0  0  0  0999 V2000
  -10.1404    0.3936    3.5666 C   0  0  0  0  0  0  0  0  0  0  0  0
   -8.6496    0.1570    3.8128 C   0  0  0  0  0  0  0  0  0  0  0  0
   -8.3588   -1.1877    4.5546 C   0  0  2  0  0  0  0  0  0  0  0  0
   -8.8347   -1.0325    6.0249 C   0  0  0  0  0  0  0  0  0  0  0  0
   -9.2683    0.0127    6.5009 O   0  0  0  0  0  0  0  0  0  0  0  0
   -8.7074   -2.2041    6.7527 N   0  0  0  0  0  0  0  0  0  0  0  0
   -8.8758   -2.1191    8.1783 C   0  0  0  0  0  0  0  0  0  0  0  0
   -7.8304   -3.2347    6.2474 C   0  0  0  0  0  0  0  0  0  0  0  0
   -7.3610   -2.9435    4.8224 C   0  0  0  0  0  0  0  0  0  0  0  0
   -6.7957   -1.5584    4.6418 N   0  0  0  0  0  0  0  0  0  0  0  0
   -6.0954   -0.9836    3.5643 C   0  0  0  0  0  0  0  0  0  0  0  0
   -5.8461   -1.4186    2.4763 O   0  0  0  0  0  0  0  0  0  0  0  0
   -5.5185    0.3473    3.9532 C   0  0  0  0  0  0  0  0  0  0  0  0
   -5.5393    1.3523    2.9704 C   0  0  0  0  0  0  0  0  0  0  0  0
   -5.9997    1.1042    1.7362 F   0  0  0  0  0  0  0  0  0  0  0  0
   -5.1358    2.6546    3.2512 C   0  0  0  0  0  0  0  0  0  0  0  0
   -4.7326    2.9855    4.5371 C   0  0  0  0  0  0  0  0  0  0  0  0
   -4.6977    1.9839    5.5165 C   0  0  0  0  0  0  0  0  0  0  0  0
   -4.3640    2.4055    6.8667 N   0  0  0  0  0  0  0  0  0  0  0  0
   -5.1925    2.1368    7.7401 O   0  0  0  0  0  0  0  0  0  0  0  0
   -3.2864    2.9881    7.0259 O   0  0  0  0  0  0  0  0  0  0  0  0
   -5.0209    0.6363    5.2465 C   0  0  0  0  0  0  0  0  0  0  0  0
   -4.7691   -0.4278    6.2908 C   0  0  0  0  0  0  0  0  0  0  0  0
   -3.7242   -0.1079    7.1132 F   0  0  0  0  0  0  0  0  0  0  0  0
   -5.8201   -0.6718    7.1103 F   0  0  0  0  0  0  0  0  0  0  0  0
   -4.3877   -1.6276    5.7652 F   0  0  0  0  0  0  0  0  0  0  0  0
  1  2  1  0
  3  2  1  6
  3  4  1  0
  4  5  2  0
  4  6  1  0
  6  7  1  0
  6  8  1  0
  8  9  1  0
  9 10  1  0
 10 11  1  0
 11 12  2  0
 11 13  1  0
 13 14  2  0
 14 15  1  0
 14 16  1  0
 16 17  2  0
 17 18  1  0
 18 19  1  0
 19 20  2  0
 19 21  1  0
 18 22  2  0
 22 23  1  0
 23 24  1  0
 23 25  1  0
 23 26  1  0
 10  3  1  0
 22 13  1  0
M  CHG  2  19   1  21  -1
M  END
>  <ref_mols>  (2016) 
7gpj-a

>  <gnina_score>  (2016) 
5.164

>  <smina_score_min>  (2016) 
-3.723

>  <ref_pdb>  (2016) 
7gpj-a

>  <inspiration_score>  (2016) 
None

>  <inchikey>  (2016) 
XNDRIMNVRMBJKW-SECBINFHSA-N

>  <tags>  (2016) 
BulkDock Fragalysis export,openbind_d68ev3c_c2_elabs_scored,openbind_d68ev3c_c2_elabs_scored_4.5plus,openbind_d68ev3c_c2_elabs,openbind_d68ev3c_c2_elabs_scored_5plus,syndirella_product,openbind_d68ev3c_c2_elabs_scored_top80percent,syndirella_placed

>  <smiles>  (2016) 
CC[C@@H]1C(=O)N(C)CCN1C(=O)c1c(F)ccc([N+](=O)[O-])c1C(F)(F)F

>  <subsites>  (2016) 
None

>  <rmsd(smina/fragmenstein)>  (2016) 
0.1

>  <alias>  (2016) 
None

>  <energy_score>  (2016) 
-11.053373

>  <HIPPO Pose ID>  (2016) 
138983

>  <distance_score>  (2016) 
1.564061

>  <HIPPO Compound ID>  (2016) 
164503

>  <gnina_score_min>  (2016) 
5.125

>  <name>  (2016) 
P138983

>  <exports>  (2016) 
['/opt/xchem-fragalysis-2/maxwin/BulkDock/OUTPUTS/openbind_d68ev3c_c2_elabs_1LOTQJ3.sdf', '/opt/xchem-fragalysis-2/maxwin/BulkDock/OUTPUTS/openbind_d68ev3c_c2_elabs_1LSYI5W.sdf']

$$$$
P138986
     RDKit          3D

 26 28  0  0  0  0  0  0  0  0999 V2000
   -7.7786   -3.1539    3.1459 C   0  0  0  0  0  0  0  0  0  0  0  0
   -8.6151   -2.4230    4.2051 C   0  0  0  0  0  0  0  0  0  0  0  0
   -9.9807   -3.0874    4.3318 C   0  0  0  0  0  0  0  0  0  0  0  0
   -7.8343   -2.2901    5.5790 C   0  0  2  0  0  0  0  0  0  0  0  0
   -8.3507   -3.0377    6.8370 C   0  0  0  0  0  0  0  0  0  0  0  0
   -9.3540   -2.2844    7.5099 N   0  0  0  0  0  0  0  0  0  0  0  0
   -9.3491   -0.9356    7.3267 C   0  0  0  0  0  0  0  0  0  0  0  0
  -10.0826   -0.1853    7.9602 O   0  0  0  0  0  0  0  0  0  0  0  0
   -8.4714   -0.4633    6.1438 C   0  0  0  0  0  0  0  0  0  0  0  0
   -7.0562   -0.9957    5.8287 N   0  0  0  0  0  0  0  0  0  0  0  0
   -6.3977   -0.1234    4.9251 C   0  0  0  0  0  0  0  0  0  0  0  0
   -6.3577   -0.1269    3.7259 O   0  0  0  0  0  0  0  0  0  0  0  0
   -5.7149    1.0073    5.6275 C   0  0  0  0  0  0  0  0  0  0  0  0
   -4.8216    0.7438    6.6842 C   0  0  0  0  0  0  0  0  0  0  0  0
   -4.4650   -0.6452    7.1484 C   0  0  0  0  0  0  0  0  0  0  0  0
   -4.3032   -1.5519    6.1451 F   0  0  0  0  0  0  0  0  0  0  0  0
   -5.3629   -1.1720    8.0225 F   0  0  0  0  0  0  0  0  0  0  0  0
   -3.2665   -0.6660    7.8110 F   0  0  0  0  0  0  0  0  0  0  0  0
   -4.2287    1.8337    7.3348 C   0  0  0  0  0  0  0  0  0  0  0  0
   -4.4768    3.1419    6.9304 C   0  0  0  0  0  0  0  0  0  0  0  0
   -5.3504    3.4132    5.8753 C   0  0  0  0  0  0  0  0  0  0  0  0
   -5.5879    4.7474    5.5037 C   0  0  0  0  0  0  0  0  0  0  0  0
   -6.4720    5.0613    4.4753 C   0  0  0  0  0  0  0  0  0  0  0  0
   -7.1330    4.0421    3.8085 C   0  0  0  0  0  0  0  0  0  0  0  0
   -6.9026    2.7115    4.1686 C   0  0  0  0  0  0  0  0  0  0  0  0
   -5.9984    2.3496    5.2034 C   0  0  0  0  0  0  0  0  0  0  0  0
  1  2  1  0
  2  3  1  0
  4  2  1  6
  4  5  1  0
  5  6  1  0
  6  7  1  0
  7  8  2  0
  7  9  1  0
  9 10  1  0
 10 11  1  0
 11 12  2  0
 11 13  1  0
 13 14  2  0
 14 15  1  0
 15 16  1  0
 15 17  1  0
 15 18  1  0
 14 19  1  0
 19 20  2  0
 20 21  1  0
 21 22  2  0
 22 23  1  0
 23 24  2  0
 24 25  1  0
 25 26  2  0
 10  4  1  0
 26 13  1  0
 26 21  1  0
M  END
>  <ref_mols>  (2017) 
7gpj-a

>  <gnina_score>  (2017) 
5.25

>  <smina_score_min>  (2017) 
-5.127

>  <ref_pdb>  (2017) 
7gpj-a

>  <inspiration_score>  (2017) 
None

>  <inchikey>  (2017) 
QIOYXXHQLZOISN-HNNXBMFYSA-N

>  <tags>  (2017) 
BulkDock Fragalysis export,openbind_d68ev3c_c2_elabs_scored,openbind_d68ev3c_c2_elabs_scored_4.5plus,openbind_d68ev3c_c2_elabs,openbind_d68ev3c_c2_elabs_scored_5plus,syndirella_product,openbind_d68ev3c_c2_elabs_scored_top80percent,syndirella_placed

>  <smiles>  (2017) 
CC(C)[C@@H]1CNC(=O)CN1C(=O)c1c(C(F)(F)F)ccc2ccccc12

>  <subsites>  (2017) 
None

>  <rmsd(smina/fragmenstein)>  (2017) 
0.873

>  <alias>  (2017) 
None

>  <energy_score>  (2017) 
-1.739278

>  <HIPPO Pose ID>  (2017) 
138986

>  <distance_score>  (2017) 
1.450657

>  <HIPPO Compound ID>  (2017) 
164532

>  <gnina_score_min>  (2017) 
5.339

>  <name>  (2017) 
P138986

>  <exports>  (2017) 
['/opt/xchem-fragalysis-2/maxwin/BulkDock/OUTPUTS/openbind_d68ev3c_c2_elabs_1LOTQJ3.sdf', '/opt/xchem-fragalysis-2/maxwin/BulkDock/OUTPUTS/openbind_d68ev3c_c2_elabs_1LSYI5W.sdf']

$$$$
P138987
     RDKit          3D

 26 29  0  0  0  0  0  0  0  0999 V2000
   -9.6264   -0.4427    7.8829 O   0  0  0  0  0  0  0  0  0  0  0  0
   -9.0940   -1.3243    7.2194 C   0  0  0  0  0  0  0  0  0  0  0  0
   -9.2286   -2.6463    7.5249 N   0  0  0  0  0  0  0  0  0  0  0  0
   -8.1893   -3.4847    7.0381 C   0  0  0  0  0  0  0  0  0  0  0  0
   -7.5757   -2.9119    5.7461 C   0  0  1  0  0  0  0  0  0  0  0  0
   -8.3523   -3.3083    4.4586 C   0  0  0  0  0  0  0  0  0  0  0  0
   -8.9368   -2.1497    3.6962 C   0  0  0  0  0  0  0  0  0  0  0  0
   -9.2162   -1.0239    4.6492 C   0  0  0  0  0  0  0  0  0  0  0  0
   -8.3056   -1.0719    5.8908 C   0  0  2  0  0  0  0  0  0  0  0  0
   -6.8434   -1.5649    5.7810 N   0  0  0  0  0  0  0  0  0  0  0  0
   -6.0997   -0.8273    4.7044 C   0  0  0  0  0  0  0  0  0  0  0  0
   -5.9737   -1.0730    3.5633 O   0  0  0  0  0  0  0  0  0  0  0  0
   -5.5234    0.4753    5.1874 C   0  0  0  0  0  0  0  0  0  0  0  0
   -4.8385    0.6049    6.4121 C   0  0  0  0  0  0  0  0  0  0  0  0
   -4.5335   -0.5277    7.3574 C   0  0  0  0  0  0  0  0  0  0  0  0
   -3.4949   -0.2092    8.1928 F   0  0  0  0  0  0  0  0  0  0  0  0
   -5.5655   -0.8413    8.1824 F   0  0  0  0  0  0  0  0  0  0  0  0
   -4.1347   -1.6751    6.7477 F   0  0  0  0  0  0  0  0  0  0  0  0
   -4.3918    1.8837    6.7888 C   0  0  0  0  0  0  0  0  0  0  0  0
   -4.5683    2.9896    5.9653 C   0  0  0  0  0  0  0  0  0  0  0  0
   -5.2414    2.8799    4.7519 C   0  0  0  0  0  0  0  0  0  0  0  0
   -5.4106    4.0370    3.9708 C   0  0  0  0  0  0  0  0  0  0  0  0
   -6.1143    4.0021    2.7726 C   0  0  0  0  0  0  0  0  0  0  0  0
   -6.6643    2.8064    2.3481 C   0  0  0  0  0  0  0  0  0  0  0  0
   -6.4921    1.6506    3.1170 C   0  0  0  0  0  0  0  0  0  0  0  0
   -5.7573    1.6298    4.3401 C   0  0  0  0  0  0  0  0  0  0  0  0
  1  2  2  0
  2  3  1  0
  3  4  1  0
  5  4  1  1
  5  6  1  0
  6  7  1  0
  7  8  1  0
  9  8  1  6
  9 10  1  0
 10 11  1  0
 11 12  2  0
 11 13  1  0
 13 14  2  0
 14 15  1  0
 15 16  1  0
 15 17  1  0
 15 18  1  0
 14 19  1  0
 19 20  2  0
 20 21  1  0
 21 22  2  0
 22 23  1  0
 23 24  2  0
 24 25  1  0
 25 26  2  0
  9  2  1  0
 26 13  1  0
 10  5  1  0
 26 21  1  0
M  END
>  <ref_mols>  (2018) 
7gpj-a

>  <gnina_score>  (2018) 
5.231

>  <smina_score_min>  (2018) 
-5.435

>  <ref_pdb>  (2018) 
7gpj-a

>  <inspiration_score>  (2018) 
None

>  <inchikey>  (2018) 
YYAKGLDLCAOFDG-DOMZBBRYSA-N

>  <tags>  (2018) 
BulkDock Fragalysis export,openbind_d68ev3c_c2_elabs_scored,openbind_d68ev3c_c2_elabs_scored_4.5plus,openbind_d68ev3c_c2_elabs,openbind_d68ev3c_c2_elabs_scored_5plus,syndirella_product,openbind_d68ev3c_c2_elabs_scored_top80percent,syndirella_placed

>  <smiles>  (2018) 
O=C1NC[C@H]2CCC[C@@H]1N2C(=O)c1c(C(F)(F)F)ccc2ccccc12

>  <subsites>  (2018) 
None

>  <rmsd(smina/fragmenstein)>  (2018) 
1.001

>  <alias>  (2018) 
None

>  <energy_score>  (2018) 
-36.415955

>  <HIPPO Pose ID>  (2018) 
138987

>  <distance_score>  (2018) 
0.878567

>  <HIPPO Compound ID>  (2018) 
164537

>  <gnina_score_min>  (2018) 
5.328

>  <name>  (2018) 
P138987

>  <exports>  (2018) 
['/opt/xchem-fragalysis-2/maxwin/BulkDock/OUTPUTS/openbind_d68ev3c_c2_elabs_1LOTQJ3.sdf', '/opt/xchem-fragalysis-2/maxwin/BulkDock/OUTPUTS/openbind_d68ev3c_c2_elabs_1LSYI5W.sdf']

$$$$
P138988
     RDKit          3D

 26 28  0  0  0  0  0  0  0  0999 V2000
   -8.0814    0.4714    6.6164 O   0  0  0  0  0  0  0  0  0  0  0  0
   -8.9353   -0.3788    6.8514 C   0  0  0  0  0  0  0  0  0  0  0  0
   -8.6953   -1.6233    7.7095 C   0  0  0  0  0  0  0  0  0  0  0  0
   -9.1618   -2.8571    7.0563 N   0  0  0  0  0  0  0  0  0  0  0  0
   -8.1127   -3.7354    6.5435 C   0  0  0  0  0  0  0  0  0  0  0  0
   -7.4046   -3.3227    5.2401 C   0  0  0  0  0  0  0  0  0  0  0  0
   -6.7726   -2.0277    5.3131 N   0  0  0  0  0  0  0  0  0  0  0  0
   -5.2949   -1.6472    5.4028 C   0  0  0  0  0  0  0  0  0  0  0  0
   -4.3511   -2.3143    5.5097 O   0  0  0  0  0  0  0  0  0  0  0  0
   -5.1299   -0.1711    5.3364 C   0  0  0  0  0  0  0  0  0  0  0  0
   -4.6767    0.5007    6.4863 C   0  0  0  0  0  0  0  0  0  0  0  0
   -4.3292   -0.2360    7.7549 C   0  0  0  0  0  0  0  0  0  0  0  0
   -3.8198    0.6006    8.7061 F   0  0  0  0  0  0  0  0  0  0  0  0
   -5.3965   -0.8403    8.3367 F   0  0  0  0  0  0  0  0  0  0  0  0
   -3.3716   -1.1869    7.5938 F   0  0  0  0  0  0  0  0  0  0  0  0
   -4.5607    1.8972    6.4368 C   0  0  0  0  0  0  0  0  0  0  0  0
   -4.8557    2.5969    5.2670 C   0  0  0  0  0  0  0  0  0  0  0  0
   -5.2732    1.9271    4.1096 C   0  0  0  0  0  0  0  0  0  0  0  0
   -5.5415    2.6513    2.9364 C   0  0  0  0  0  0  0  0  0  0  0  0
   -5.9409    2.0052    1.7679 C   0  0  0  0  0  0  0  0  0  0  0  0
   -6.0737    0.6239    1.7561 C   0  0  0  0  0  0  0  0  0  0  0  0
   -5.8124   -0.1085    2.9158 C   0  0  0  0  0  0  0  0  0  0  0  0
   -5.4151    0.5195    4.1227 C   0  0  0  0  0  0  0  0  0  0  0  0
  -10.3357   -2.7022    6.1840 C   0  0  0  0  0  0  0  0  0  0  0  0
  -11.1079   -1.3979    6.4411 C   0  0  0  0  0  0  0  0  0  0  0  0
  -10.2073   -0.2673    6.3365 N   0  0  0  0  0  0  0  0  0  0  0  0
  1  2  2  0
  2  3  1  0
  3  4  1  0
  4  5  1  0
  5  6  1  0
  6  7  1  0
  7  8  1  0
  8  9  2  0
  8 10  1  0
 10 11  2  0
 11 12  1  0
 12 13  1  0
 12 14  1  0
 12 15  1  0
 11 16  1  0
 16 17  2  0
 17 18  1  0
 18 19  2  0
 19 20  1  0
 20 21  2  0
 21 22  1  0
 22 23  2  0
  4 24  1  0
 24 25  1  0
 25 26  1  0
 26  2  1  0
 23 10  1  0
 23 18  1  0
M  END
>  <ref_mols>  (2019) 
7gpj-a

>  <gnina_score>  (2019) 
5.045

>  <smina_score_min>  (2019) 
-5.2

>  <ref_pdb>  (2019) 
7gpj-a

>  <inspiration_score>  (2019) 
None

>  <inchikey>  (2019) 
CZYJXNYPTUCQTL-UHFFFAOYSA-N

>  <tags>  (2019) 
BulkDock Fragalysis export,openbind_d68ev3c_c2_elabs_scored,openbind_d68ev3c_c2_elabs_scored_4.5plus,openbind_d68ev3c_c2_elabs,openbind_d68ev3c_c2_elabs_scored_5plus,syndirella_product,openbind_d68ev3c_c2_elabs_scored_top80percent,syndirella_placed

>  <smiles>  (2019) 
O=C1CN(CCNC(=O)c2c(C(F)(F)F)ccc3ccccc23)CCN1

>  <subsites>  (2019) 
None

>  <rmsd(smina/fragmenstein)>  (2019) 
0.704

>  <alias>  (2019) 
None

>  <energy_score>  (2019) 
-35.717696

>  <HIPPO Pose ID>  (2019) 
138988

>  <distance_score>  (2019) 
0.643331

>  <HIPPO Compound ID>  (2019) 
164539

>  <gnina_score_min>  (2019) 
5.016

>  <name>  (2019) 
P138988

>  <exports>  (2019) 
['/opt/xchem-fragalysis-2/maxwin/BulkDock/OUTPUTS/openbind_d68ev3c_c2_elabs_1LOTQJ3.sdf', '/opt/xchem-fragalysis-2/maxwin/BulkDock/OUTPUTS/openbind_d68ev3c_c2_elabs_1LSYI5W.sdf']

$$$$
P138990
     RDKit          3D

 26 28  0  0  0  0  0  0  0  0999 V2000
   -8.1036    0.6776    7.4443 O   0  0  0  0  0  0  0  0  0  0  0  0
   -8.9892   -0.1715    7.3981 C   0  0  0  0  0  0  0  0  0  0  0  0
   -8.8499   -1.6033    7.9157 C   0  0  0  0  0  0  0  0  0  0  0  0
   -9.3957   -2.6077    6.9812 N   0  0  0  0  0  0  0  0  0  0  0  0
   -8.5300   -3.1953    5.9425 C   0  0  0  0  0  0  0  0  0  0  0  0
   -7.8012   -2.2230    5.0545 C   0  0  0  0  0  0  0  0  0  0  0  0
   -6.6764   -2.0995    6.1317 N   0  0  0  0  0  0  0  0  0  0  0  0
   -5.4089   -1.5762    5.5416 C   0  0  0  0  0  0  0  0  0  0  0  0
   -4.5016   -2.1461    5.0644 O   0  0  0  0  0  0  0  0  0  0  0  0
   -5.3651   -0.1040    5.5615 C   0  0  0  0  0  0  0  0  0  0  0  0
   -5.7687    0.5832    4.4104 C   0  0  0  0  0  0  0  0  0  0  0  0
   -5.6596    1.9766    4.3800 C   0  0  0  0  0  0  0  0  0  0  0  0
   -6.0910    2.7109    3.1855 N   0  0  0  0  0  0  0  0  0  0  0  0
   -6.4455    2.0462    2.2007 O   0  0  0  0  0  0  0  0  0  0  0  0
   -6.0737    3.9486    3.2283 O   0  0  0  0  0  0  0  0  0  0  0  0
   -5.1360    2.6741    5.4752 C   0  0  0  0  0  0  0  0  0  0  0  0
   -4.7240    1.9691    6.6110 C   0  0  0  0  0  0  0  0  0  0  0  0
   -4.8252    0.5671    6.6647 C   0  0  0  0  0  0  0  0  0  0  0  0
   -4.3698   -0.1976    7.8788 C   0  0  0  0  0  0  0  0  0  0  0  0
   -3.6476    0.5834    8.7277 F   0  0  0  0  0  0  0  0  0  0  0  0
   -3.5523   -1.2441    7.5828 F   0  0  0  0  0  0  0  0  0  0  0  0
   -5.3959   -0.6985    8.6102 F   0  0  0  0  0  0  0  0  0  0  0  0
   -7.1374   -3.5270    6.3882 C   0  0  0  0  0  0  0  0  0  0  0  0
  -10.7093   -2.2376    6.4088 C   0  0  0  0  0  0  0  0  0  0  0  0
  -11.2646   -0.8888    6.9010 C   0  0  0  0  0  0  0  0  0  0  0  0
  -10.2312    0.1243    6.8786 N   0  0  0  0  0  0  0  0  0  0  0  0
  1  2  2  0
  2  3  1  0
  3  4  1  0
  4  5  1  0
  5  6  1  0
  6  7  1  0
  7  8  1  0
  8  9  2  0
  8 10  1  0
 10 11  2  0
 11 12  1  0
 12 13  1  0
 13 14  2  0
 13 15  1  0
 12 16  2  0
 16 17  1  0
 17 18  2  0
 18 19  1  0
 19 20  1  0
 19 21  1  0
 19 22  1  0
  7 23  1  0
  4 24  1  0
 24 25  1  0
 25 26  1  0
 26  2  1  0
 23  5  1  0
 18 10  1  0
M  CHG  2  13   1  15  -1
M  END
>  <ref_mols>  (2020) 
7gpj-a

>  <gnina_score>  (2020) 
5.206

>  <smina_score_min>  (2020) 
-5.275

>  <ref_pdb>  (2020) 
7gpj-a

>  <inspiration_score>  (2020) 
None

>  <inchikey>  (2020) 
XRBOGQCUZWBTAY-UHFFFAOYSA-N

>  <tags>  (2020) 
BulkDock Fragalysis export,openbind_d68ev3c_c2_elabs_scored,openbind_d68ev3c_c2_elabs_scored_4.5plus,openbind_d68ev3c_c2_elabs,openbind_d68ev3c_c2_elabs_scored_5plus,syndirella_product,openbind_d68ev3c_c2_elabs_scored_top80percent,syndirella_placed

>  <smiles>  (2020) 
O=C1CN(C2CN(C(=O)c3cc([N+](=O)[O-])ccc3C(F)(F)F)C2)CCN1

>  <subsites>  (2020) 
None

>  <rmsd(smina/fragmenstein)>  (2020) 
1.064

>  <alias>  (2020) 
None

>  <energy_score>  (2020) 
-17.593951

>  <HIPPO Pose ID>  (2020) 
138990

>  <distance_score>  (2020) 
0.682708

>  <HIPPO Compound ID>  (2020) 
164575

>  <gnina_score_min>  (2020) 
5.211

>  <name>  (2020) 
P138990

>  <exports>  (2020) 
['/opt/xchem-fragalysis-2/maxwin/BulkDock/OUTPUTS/openbind_d68ev3c_c2_elabs_1LOTQJ3.sdf', '/opt/xchem-fragalysis-2/maxwin/BulkDock/OUTPUTS/openbind_d68ev3c_c2_elabs_1LSYI5W.sdf']

$$$$
P138991
     RDKit          3D

 26 27  0  0  0  0  0  0  0  0999 V2000
   -9.8374   -0.7951    5.2412 C   0  0  0  0  0  0  0  0  0  0  0  0
   -9.9573   -1.6719    6.4815 C   0  0  2  0  0  0  0  0  0  0  0  0
  -10.7653   -0.8562    7.5310 C   0  0  0  0  0  0  0  0  0  0  0  0
  -11.9971   -0.7891    7.5154 O   0  0  0  0  0  0  0  0  0  0  0  0
  -10.0739   -0.1003    8.4399 N   0  0  0  0  0  0  0  0  0  0  0  0
   -8.6714   -0.3277    8.6453 C   0  0  0  0  0  0  0  0  0  0  0  0
   -8.3014   -1.7649    8.2753 C   0  0  0  0  0  0  0  0  0  0  0  0
   -8.5723   -2.0127    6.8719 N   0  0  0  0  0  0  0  0  0  0  0  0
   -8.1275   -3.3585    6.4435 C   0  0  0  0  0  0  0  0  0  0  0  0
   -7.4311   -3.2844    5.0674 C   0  0  0  0  0  0  0  0  0  0  0  0
   -6.7117   -2.0315    4.9629 N   0  0  0  0  0  0  0  0  0  0  0  0
   -5.2712   -1.6812    5.3267 C   0  0  0  0  0  0  0  0  0  0  0  0
   -4.4040   -2.3558    5.6969 O   0  0  0  0  0  0  0  0  0  0  0  0
   -5.0716   -0.2077    5.2532 C   0  0  0  0  0  0  0  0  0  0  0  0
   -5.3876    0.4497    4.0537 C   0  0  0  0  0  0  0  0  0  0  0  0
   -5.2574    1.8407    3.9758 C   0  0  0  0  0  0  0  0  0  0  0  0
   -5.5729    2.5286    2.7194 N   0  0  0  0  0  0  0  0  0  0  0  0
   -5.6947    1.8306    1.7031 O   0  0  0  0  0  0  0  0  0  0  0  0
   -5.7007    3.7594    2.7530 O   0  0  0  0  0  0  0  0  0  0  0  0
   -4.8238    2.5786    5.0808 C   0  0  0  0  0  0  0  0  0  0  0  0
   -4.5054    1.9145    6.2687 C   0  0  0  0  0  0  0  0  0  0  0  0
   -4.6069    0.5105    6.3704 C   0  0  0  0  0  0  0  0  0  0  0  0
   -4.2342   -0.1730    7.6692 C   0  0  0  0  0  0  0  0  0  0  0  0
   -3.7476    0.7178    8.5831 F   0  0  0  0  0  0  0  0  0  0  0  0
   -5.2937   -0.7565    8.2841 F   0  0  0  0  0  0  0  0  0  0  0  0
   -3.2596   -1.1070    7.5510 F   0  0  0  0  0  0  0  0  0  0  0  0
  2  1  1  6
  2  3  1  0
  3  4  2  0
  3  5  1  0
  5  6  1  0
  6  7  1  0
  7  8  1  0
  8  9  1  0
  9 10  1  0
 10 11  1  0
 11 12  1  0
 12 13  2  0
 12 14  1  0
 14 15  2  0
 15 16  1  0
 16 17  1  0
 17 18  2  0
 17 19  1  0
 16 20  2  0
 20 21  1  0
 21 22  2  0
 22 23  1  0
 23 24  1  0
 23 25  1  0
 23 26  1  0
  8  2  1  0
 22 14  1  0
M  CHG  2  17   1  19  -1
M  END
>  <ref_mols>  (2021) 
7gpj-a

>  <gnina_score>  (2021) 
5.031

>  <smina_score_min>  (2021) 
-4.911

>  <ref_pdb>  (2021) 
7gpj-a

>  <inspiration_score>  (2021) 
None

>  <inchikey>  (2021) 
TUSYIWZBJKIZKO-SECBINFHSA-N

>  <tags>  (2021) 
BulkDock Fragalysis export,openbind_d68ev3c_c2_elabs_scored,openbind_d68ev3c_c2_elabs_scored_4.5plus,openbind_d68ev3c_c2_elabs,openbind_d68ev3c_c2_elabs_scored_5plus,syndirella_product,openbind_d68ev3c_c2_elabs_scored_top80percent,syndirella_placed

>  <smiles>  (2021) 
C[C@@H]1C(=O)NCCN1CCNC(=O)c1cc([N+](=O)[O-])ccc1C(F)(F)F

>  <subsites>  (2021) 
None

>  <rmsd(smina/fragmenstein)>  (2021) 
0.924

>  <alias>  (2021) 
None

>  <energy_score>  (2021) 
-29.150889

>  <HIPPO Pose ID>  (2021) 
138991

>  <distance_score>  (2021) 
1.011725

>  <HIPPO Compound ID>  (2021) 
164576

>  <gnina_score_min>  (2021) 
5.055

>  <name>  (2021) 
P138991

>  <exports>  (2021) 
['/opt/xchem-fragalysis-2/maxwin/BulkDock/OUTPUTS/openbind_d68ev3c_c2_elabs_1LOTQJ3.sdf', '/opt/xchem-fragalysis-2/maxwin/BulkDock/OUTPUTS/openbind_d68ev3c_c2_elabs_1LSYI5W.sdf']

$$$$
P138995
     RDKit          3D

 26 27  0  0  0  0  0  0  0  0999 V2000
   -9.6052   -0.0461    4.1522 O   0  0  0  0  0  0  0  0  0  0  0  0
   -9.4647   -0.5239    5.2735 C   0  0  0  0  0  0  0  0  0  0  0  0
  -10.2291   -1.7412    5.8057 C   0  0  0  0  0  0  0  0  0  0  0  0
   -9.4063   -2.5515    6.7211 N   0  0  0  0  0  0  0  0  0  0  0  0
   -8.6404   -3.6264    6.0874 C   0  0  0  0  0  0  0  0  0  0  0  0
   -7.1144   -3.5137    5.9552 C   0  0  0  0  0  0  0  0  0  0  0  0
   -6.6266   -2.1952    5.6475 N   0  0  0  0  0  0  0  0  0  0  0  0
   -5.2058   -1.6840    5.4676 C   0  0  0  0  0  0  0  0  0  0  0  0
   -4.1977   -2.2536    5.4616 O   0  0  0  0  0  0  0  0  0  0  0  0
   -5.1819   -0.2101    5.3880 C   0  0  0  0  0  0  0  0  0  0  0  0
   -5.6197    0.4174    4.2152 C   0  0  0  0  0  0  0  0  0  0  0  0
   -5.5886    1.8095    4.1238 C   0  0  0  0  0  0  0  0  0  0  0  0
   -5.1241    2.5611    5.2077 C   0  0  0  0  0  0  0  0  0  0  0  0
   -5.1381    4.3360    5.1243 S   0  0  0  0  0  0  0  0  0  0  0  0
   -5.4639    4.7415    3.7738 O   0  0  0  0  0  0  0  0  0  0  0  0
   -5.8468    4.8221    6.2887 O   0  0  0  0  0  0  0  0  0  0  0  0
   -3.1731    4.8148    5.3953 Cl  0  0  0  0  0  0  0  0  0  0  0  0
   -4.7030    1.9325    6.3887 C   0  0  0  0  0  0  0  0  0  0  0  0
   -4.7163    0.5288    6.4876 C   0  0  0  0  0  0  0  0  0  0  0  0
   -4.2962   -0.1601    7.7656 C   0  0  0  0  0  0  0  0  0  0  0  0
   -3.3517   -1.1184    7.6053 F   0  0  0  0  0  0  0  0  0  0  0  0
   -5.3490   -0.7335    8.4060 F   0  0  0  0  0  0  0  0  0  0  0  0
   -3.7589    0.7194    8.6557 F   0  0  0  0  0  0  0  0  0  0  0  0
   -8.7918   -1.8017    7.8153 C   0  0  0  0  0  0  0  0  0  0  0  0
   -8.6914   -0.2837    7.5666 C   0  0  0  0  0  0  0  0  0  0  0  0
   -8.5736    0.0493    6.1612 N   0  0  0  0  0  0  0  0  0  0  0  0
  1  2  2  0
  2  3  1  0
  3  4  1  0
  4  5  1  0
  5  6  1  0
  6  7  1  0
  7  8  1  0
  8  9  2  0
  8 10  1  0
 10 11  2  0
 11 12  1  0
 12 13  2  0
 13 14  1  0
 14 15  2  0
 14 16  2  0
 14 17  1  0
 13 18  1  0
 18 19  2  0
 19 20  1  0
 20 21  1  0
 20 22  1  0
 20 23  1  0
  4 24  1  0
 24 25  1  0
 25 26  1  0
 26  2  1  0
 19 10  1  0
M  END
>  <ref_mols>  (2022) 
7gpj-a

>  <gnina_score>  (2022) 
4.972

>  <smina_score_min>  (2022) 
-4.652

>  <ref_pdb>  (2022) 
7gpj-a

>  <inspiration_score>  (2022) 
None

>  <inchikey>  (2022) 
PLEJNYTXBSUEJG-UHFFFAOYSA-N

>  <tags>  (2022) 
BulkDock Fragalysis export,openbind_d68ev3c_c2_elabs_scored,openbind_d68ev3c_c2_elabs_scored_4.5plus,openbind_d68ev3c_c2_elabs,openbind_d68ev3c_c2_elabs_scored_5plus,syndirella_product,openbind_d68ev3c_c2_elabs_scored_top80percent,syndirella_placed

>  <smiles>  (2022) 
O=C1CN(CCNC(=O)c2ccc(S(=O)(=O)Cl)cc2C(F)(F)F)CCN1

>  <subsites>  (2022) 
None

>  <rmsd(smina/fragmenstein)>  (2022) 
0.819

>  <alias>  (2022) 
None

>  <energy_score>  (2022) 
-15.242084

>  <HIPPO Pose ID>  (2022) 
138995

>  <distance_score>  (2022) 
0.729496

>  <HIPPO Compound ID>  (2022) 
164612

>  <gnina_score_min>  (2022) 
5.096

>  <name>  (2022) 
P138995

>  <exports>  (2022) 
['/opt/xchem-fragalysis-2/maxwin/BulkDock/OUTPUTS/openbind_d68ev3c_c2_elabs_1LOTQJ3.sdf', '/opt/xchem-fragalysis-2/maxwin/BulkDock/OUTPUTS/openbind_d68ev3c_c2_elabs_1LSYI5W.sdf']

$$$$
P138996
     RDKit          3D

 26 28  0  0  0  0  0  0  0  0999 V2000
   -9.4880   -0.5715    8.0600 O   0  0  0  0  0  0  0  0  0  0  0  0
   -8.9427   -1.4187    7.3622 C   0  0  0  0  0  0  0  0  0  0  0  0
   -9.0403   -2.7513    7.6224 N   0  0  0  0  0  0  0  0  0  0  0  0
   -8.0928   -3.5920    6.9745 C   0  0  0  0  0  0  0  0  0  0  0  0
   -7.5944   -2.9492    5.6623 C   0  0  1  0  0  0  0  0  0  0  0  0
   -8.5220   -3.2143    4.4427 C   0  0  0  0  0  0  0  0  0  0  0  0
   -9.1149   -1.9747    3.8260 C   0  0  0  0  0  0  0  0  0  0  0  0
   -9.1981   -0.8807    4.8541 C   0  0  0  0  0  0  0  0  0  0  0  0
   -8.2129   -1.0954    6.0202 C   0  0  2  0  0  0  0  0  0  0  0  0
   -6.7939   -1.6401    5.7273 N   0  0  0  0  0  0  0  0  0  0  0  0
   -6.1214   -0.8499    4.6423 C   0  0  0  0  0  0  0  0  0  0  0  0
   -6.1182   -1.0068    3.4779 O   0  0  0  0  0  0  0  0  0  0  0  0
   -5.4338    0.3855    5.1508 C   0  0  0  0  0  0  0  0  0  0  0  0
   -5.5226    1.4774    4.2536 C   0  0  0  0  0  0  0  0  0  0  0  0
   -5.0863    2.7537    4.5991 C   0  0  0  0  0  0  0  0  0  0  0  0
   -4.5608    2.9606    5.8668 C   0  0  0  0  0  0  0  0  0  0  0  0
   -4.0829    4.5914    6.3833 S   0  0  0  0  0  0  0  0  0  0  0  0
   -4.6760    4.8371    7.6799 O   0  0  0  0  0  0  0  0  0  0  0  0
   -4.2250    5.5013    5.2663 O   0  0  0  0  0  0  0  0  0  0  0  0
   -2.0742    4.3835    6.6895 Cl  0  0  0  0  0  0  0  0  0  0  0  0
   -4.4490    1.8945    6.7665 C   0  0  0  0  0  0  0  0  0  0  0  0
   -4.8503    0.5819    6.4128 C   0  0  0  0  0  0  0  0  0  0  0  0
   -4.5927   -0.5133    7.4159 C   0  0  0  0  0  0  0  0  0  0  0  0
   -4.1579   -1.6764    6.8645 F   0  0  0  0  0  0  0  0  0  0  0  0
   -3.5961   -0.1515    8.2824 F   0  0  0  0  0  0  0  0  0  0  0  0
   -5.6624   -0.8011    8.1976 F   0  0  0  0  0  0  0  0  0  0  0  0
  1  2  2  0
  2  3  1  0
  3  4  1  0
  5  4  1  1
  5  6  1  0
  6  7  1  0
  7  8  1  0
  9  8  1  6
  9 10  1  0
 10 11  1  0
 11 12  2  0
 11 13  1  0
 13 14  2  0
 14 15  1  0
 15 16  2  0
 16 17  1  0
 17 18  2  0
 17 19  2  0
 17 20  1  0
 16 21  1  0
 21 22  2  0
 22 23  1  0
 23 24  1  0
 23 25  1  0
 23 26  1  0
  9  2  1  0
 22 13  1  0
 10  5  1  0
M  END
>  <ref_mols>  (2023) 
7gpj-a

>  <gnina_score>  (2023) 
5.34

>  <smina_score_min>  (2023) 
-5.58

>  <ref_pdb>  (2023) 
7gpj-a

>  <inspiration_score>  (2023) 
None

>  <inchikey>  (2023) 
BBQHQMXRVLSALD-PELKAZGASA-N

>  <tags>  (2023) 
BulkDock Fragalysis export,openbind_d68ev3c_c2_elabs_scored,openbind_d68ev3c_c2_elabs_scored_4.5plus,openbind_d68ev3c_c2_elabs,openbind_d68ev3c_c2_elabs_scored_5plus,syndirella_product,openbind_d68ev3c_c2_elabs_scored_top80percent,syndirella_placed

>  <smiles>  (2023) 
O=C1NC[C@H]2CCC[C@@H]1N2C(=O)c1ccc(S(=O)(=O)Cl)cc1C(F)(F)F

>  <subsites>  (2023) 
None

>  <rmsd(smina/fragmenstein)>  (2023) 
0.48

>  <alias>  (2023) 
None

>  <energy_score>  (2023) 
-59.365955

>  <HIPPO Pose ID>  (2023) 
138996

>  <distance_score>  (2023) 
0.837046

>  <HIPPO Compound ID>  (2023) 
164617

>  <gnina_score_min>  (2023) 
5.396

>  <name>  (2023) 
P138996

>  <exports>  (2023) 
['/opt/xchem-fragalysis-2/maxwin/BulkDock/OUTPUTS/openbind_d68ev3c_c2_elabs_1LOTQJ3.sdf', '/opt/xchem-fragalysis-2/maxwin/BulkDock/OUTPUTS/openbind_d68ev3c_c2_elabs_1LSYI5W.sdf']

$$$$
P138997
     RDKit          3D

 26 28  0  0  0  0  0  0  0  0999 V2000
  -10.9146   -1.1084    7.2703 C   0  0  0  0  0  0  0  0  0  0  0  0
   -9.7029   -1.3756    6.3826 C   0  0  1  0  0  0  0  0  0  0  0  0
   -8.9056   -0.0736    6.1812 C   0  0  0  0  0  0  0  0  0  0  0  0
   -8.8414    0.5142    5.1024 O   0  0  0  0  0  0  0  0  0  0  0  0
   -8.2143    0.3921    7.2722 N   0  0  0  0  0  0  0  0  0  0  0  0
   -8.0295   -0.4817    8.4079 C   0  0  0  0  0  0  0  0  0  0  0  0
   -7.9006   -1.9492    7.9550 C   0  0  0  0  0  0  0  0  0  0  0  0
   -8.8817   -2.4264    6.9835 N   0  0  0  0  0  0  0  0  0  0  0  0
   -8.3588   -3.4768    6.1032 C   0  0  0  0  0  0  0  0  0  0  0  0
   -7.6945   -3.0800    4.7613 C   0  0  0  0  0  0  0  0  0  0  0  0
   -6.9207   -1.8615    4.7960 N   0  0  0  0  0  0  0  0  0  0  0  0
   -5.4885   -1.6025    5.2867 C   0  0  0  0  0  0  0  0  0  0  0  0
   -4.6776   -2.3425    5.6694 O   0  0  0  0  0  0  0  0  0  0  0  0
   -5.1989   -0.1353    5.2989 C   0  0  0  0  0  0  0  0  0  0  0  0
   -5.5544    0.6310    4.1795 C   0  0  0  0  0  0  0  0  0  0  0  0
   -5.3770    2.0159    4.1829 C   0  0  0  0  0  0  0  0  0  0  0  0
   -4.8348    2.6778    5.2901 C   0  0  0  0  0  0  0  0  0  0  0  0
   -4.6747    4.1776    5.3054 C   0  0  0  0  0  0  0  0  0  0  0  0
   -3.8226    4.8540    4.2567 C   0  0  0  0  0  0  0  0  0  0  0  0
   -3.3495    4.8015    5.6773 C   0  0  0  0  0  0  0  0  0  0  0  0
   -4.4679    1.8915    6.3943 C   0  0  0  0  0  0  0  0  0  0  0  0
   -4.6130    0.4855    6.4125 C   0  0  0  0  0  0  0  0  0  0  0  0
   -4.1299   -0.2818    7.6196 C   0  0  0  0  0  0  0  0  0  0  0  0
   -5.1098   -0.9569    8.2665 F   0  0  0  0  0  0  0  0  0  0  0  0
   -3.1338   -1.1642    7.3517 F   0  0  0  0  0  0  0  0  0  0  0  0
   -3.6040    0.5521    8.5663 F   0  0  0  0  0  0  0  0  0  0  0  0
  2  1  1  1
  2  3  1  0
  3  4  2  0
  3  5  1  0
  5  6  1  0
  6  7  1  0
  7  8  1  0
  8  9  1  0
  9 10  1  0
 10 11  1  0
 11 12  1  0
 12 13  2  0
 12 14  1  0
 14 15  2  0
 15 16  1  0
 16 17  2  0
 17 18  1  0
 18 19  1  0
 19 20  1  0
 17 21  1  0
 21 22  2  0
 22 23  1  0
 23 24  1  0
 23 25  1  0
 23 26  1  0
  8  2  1  0
 22 14  1  0
 20 18  1  0
M  END
>  <ref_mols>  (2024) 
7gpj-a

>  <gnina_score>  (2024) 
5.054

>  <smina_score_min>  (2024) 
-4.831

>  <ref_pdb>  (2024) 
7gpj-a

>  <inspiration_score>  (2024) 
None

>  <inchikey>  (2024) 
VRVWIJYEBPFCKQ-NSHDSACASA-N

>  <tags>  (2024) 
BulkDock Fragalysis export,openbind_d68ev3c_c2_elabs_scored,openbind_d68ev3c_c2_elabs_scored_4.5plus,openbind_d68ev3c_c2_elabs,openbind_d68ev3c_c2_elabs_scored_5plus,syndirella_product,openbind_d68ev3c_c2_elabs_scored_top80percent,syndirella_placed

>  <smiles>  (2024) 
C[C@H]1C(=O)NCCN1CCNC(=O)c1ccc(C2CC2)cc1C(F)(F)F

>  <subsites>  (2024) 
None

>  <rmsd(smina/fragmenstein)>  (2024) 
1.044

>  <alias>  (2024) 
None

>  <energy_score>  (2024) 
-30.04774

>  <HIPPO Pose ID>  (2024) 
138997

>  <distance_score>  (2024) 
0.952933

>  <HIPPO Compound ID>  (2024) 
164643

>  <gnina_score_min>  (2024) 
5.067

>  <name>  (2024) 
P138997

>  <exports>  (2024) 
['/opt/xchem-fragalysis-2/maxwin/BulkDock/OUTPUTS/openbind_d68ev3c_c2_elabs_1LOTQJ3.sdf', '/opt/xchem-fragalysis-2/maxwin/BulkDock/OUTPUTS/openbind_d68ev3c_c2_elabs_1LSYI5W.sdf']

$$$$
P139000
     RDKit          3D

 26 27  0  0  0  0  0  0  0  0999 V2000
   -7.6137    1.7908    8.4848 O   0  0  0  0  0  0  0  0  0  0  0  0
   -8.3766    1.0738    7.8421 C   0  0  0  0  0  0  0  0  0  0  0  0
   -8.6794   -0.3860    8.2124 C   0  0  0  0  0  0  0  0  0  0  0  0
   -8.7751   -1.2223    6.9921 N   0  0  0  0  0  0  0  0  0  0  0  0
   -9.0309   -2.6358    7.3435 C   0  0  0  0  0  0  0  0  0  0  0  0
   -8.4797   -3.5978    6.2797 C   0  0  0  0  0  0  0  0  0  0  0  0
   -6.9630   -3.5336    6.1212 C   0  0  0  0  0  0  0  0  0  0  0  0
   -6.4913   -2.1830    5.9976 N   0  0  0  0  0  0  0  0  0  0  0  0
   -5.1522   -1.6444    5.5279 C   0  0  0  0  0  0  0  0  0  0  0  0
   -4.1808   -2.2000    5.2348 O   0  0  0  0  0  0  0  0  0  0  0  0
   -5.1678   -0.1726    5.4949 C   0  0  0  0  0  0  0  0  0  0  0  0
   -5.5724    0.4614    4.3162 C   0  0  0  0  0  0  0  0  0  0  0  0
   -5.5596    1.8585    4.2671 C   0  0  0  0  0  0  0  0  0  0  0  0
   -5.9947    2.5428    3.0456 N   0  0  0  0  0  0  0  0  0  0  0  0
   -6.1560    1.8522    2.0295 O   0  0  0  0  0  0  0  0  0  0  0  0
   -6.1911    3.7638    3.1071 O   0  0  0  0  0  0  0  0  0  0  0  0
   -5.1472    2.6088    5.3757 C   0  0  0  0  0  0  0  0  0  0  0  0
   -4.7450    1.9530    6.5442 C   0  0  0  0  0  0  0  0  0  0  0  0
   -4.7421    0.5494    6.6162 C   0  0  0  0  0  0  0  0  0  0  0  0
   -4.3111   -0.1652    7.8728 C   0  0  0  0  0  0  0  0  0  0  0  0
   -5.3564   -0.6950    8.5557 F   0  0  0  0  0  0  0  0  0  0  0  0
   -3.6742    0.6677    8.7374 F   0  0  0  0  0  0  0  0  0  0  0  0
   -3.4343   -1.1791    7.6493 F   0  0  0  0  0  0  0  0  0  0  0  0
   -9.8439   -0.6887    6.1311 C   0  0  0  0  0  0  0  0  0  0  0  0
   -9.4991    0.7368    5.6812 C   0  0  0  0  0  0  0  0  0  0  0  0
   -9.0508    1.5926    6.7606 N   0  0  0  0  0  0  0  0  0  0  0  0
  1  2  2  0
  2  3  1  0
  3  4  1  0
  4  5  1  0
  5  6  1  0
  6  7  1  0
  7  8  1  0
  8  9  1  0
  9 10  2  0
  9 11  1  0
 11 12  2  0
 12 13  1  0
 13 14  1  0
 14 15  2  0
 14 16  1  0
 13 17  2  0
 17 18  1  0
 18 19  2  0
 19 20  1  0
 20 21  1  0
 20 22  1  0
 20 23  1  0
  4 24  1  0
 24 25  1  0
 25 26  1  0
 26  2  1  0
 19 11  1  0
M  CHG  2  14   1  16  -1
M  END
>  <ref_mols>  (2025) 
7gpj-a

>  <gnina_score>  (2025) 
4.876

>  <smina_score_min>  (2025) 
-4.554

>  <ref_pdb>  (2025) 
7gpj-a

>  <inspiration_score>  (2025) 
None

>  <inchikey>  (2025) 
PCSUYTPZKZRFCA-UHFFFAOYSA-N

>  <tags>  (2025) 
BulkDock Fragalysis export,openbind_d68ev3c_c2_elabs_scored,openbind_d68ev3c_c2_elabs_scored_4.5plus,openbind_d68ev3c_c2_elabs,openbind_d68ev3c_c2_elabs_scored_5plus,syndirella_product,openbind_d68ev3c_c2_elabs_scored_top80percent,syndirella_placed

>  <smiles>  (2025) 
O=C1CN(CCCNC(=O)c2cc([N+](=O)[O-])ccc2C(F)(F)F)CCN1

>  <subsites>  (2025) 
None

>  <rmsd(smina/fragmenstein)>  (2025) 
0.962

>  <alias>  (2025) 
None

>  <energy_score>  (2025) 
-43.617963

>  <HIPPO Pose ID>  (2025) 
139000

>  <distance_score>  (2025) 
0.655924

>  <HIPPO Compound ID>  (2025) 
164663

>  <gnina_score_min>  (2025) 
5.015

>  <name>  (2025) 
P139000

>  <exports>  (2025) 
['/opt/xchem-fragalysis-2/maxwin/BulkDock/OUTPUTS/openbind_d68ev3c_c2_elabs_1LOTQJ3.sdf', '/opt/xchem-fragalysis-2/maxwin/BulkDock/OUTPUTS/openbind_d68ev3c_c2_elabs_1LSYI5W.sdf']

$$$$
P139001
     RDKit          3D

 26 27  0  0  0  0  0  0  0  0999 V2000
  -11.2071   -1.2788    6.7260 C   0  0  0  0  0  0  0  0  0  0  0  0
   -9.8150   -1.4951    7.2555 C   0  0  2  0  0  0  0  0  0  0  0  0
   -8.9049   -0.3059    6.9611 C   0  0  0  0  0  0  0  0  0  0  0  0
   -9.2491    0.7519    6.4439 O   0  0  0  0  0  0  0  0  0  0  0  0
   -7.6151   -0.4873    7.3691 N   0  0  0  0  0  0  0  0  0  0  0  0
   -7.1816   -1.7221    7.9877 C   0  0  0  0  0  0  0  0  0  0  0  0
   -8.0178   -2.9881    7.6818 C   0  0  0  0  0  0  0  0  0  0  0  0
   -9.1829   -2.7657    6.8460 N   0  0  0  0  0  0  0  0  0  0  0  0
   -8.9929   -3.0150    5.4172 C   0  0  0  0  0  0  0  0  0  0  0  0
   -7.5819   -3.0094    4.7751 C   0  0  0  0  0  0  0  0  0  0  0  0
   -6.9021   -1.7368    4.8470 N   0  0  0  0  0  0  0  0  0  0  0  0
   -5.4271   -1.4069    5.1313 C   0  0  0  0  0  0  0  0  0  0  0  0
   -4.5121   -2.1095    5.2764 O   0  0  0  0  0  0  0  0  0  0  0  0
   -5.2023    0.0626    5.1805 C   0  0  0  0  0  0  0  0  0  0  0  0
   -5.5804    0.8033    4.0499 C   0  0  0  0  0  0  0  0  0  0  0  0
   -5.4091    2.1879    4.0234 C   0  0  0  0  0  0  0  0  0  0  0  0
   -4.8551    2.8577    5.1132 C   0  0  0  0  0  0  0  0  0  0  0  0
   -4.7444    4.2547    5.0578 N   0  0  0  0  0  0  0  0  0  0  0  0
   -3.6128    4.6892    5.3518 N   0  0  0  0  0  0  0  0  0  0  0  0
   -2.5902    5.1046    5.6384 N   0  0  0  0  0  0  0  0  0  0  0  0
   -4.4920    2.1129    6.2431 C   0  0  0  0  0  0  0  0  0  0  0  0
   -4.6238    0.7045    6.2891 C   0  0  0  0  0  0  0  0  0  0  0  0
   -4.1982    0.0157    7.5665 C   0  0  0  0  0  0  0  0  0  0  0  0
   -3.7622   -1.2595    7.4634 F   0  0  0  0  0  0  0  0  0  0  0  0
   -3.1779    0.6868    8.1686 F   0  0  0  0  0  0  0  0  0  0  0  0
   -5.1897    0.0190    8.4980 F   0  0  0  0  0  0  0  0  0  0  0  0
  2  1  1  6
  2  3  1  0
  3  4  2  0
  3  5  1  0
  5  6  1  0
  6  7  1  0
  7  8  1  0
  8  9  1  0
  9 10  1  0
 10 11  1  0
 11 12  1  0
 12 13  2  0
 12 14  1  0
 14 15  2  0
 15 16  1  0
 16 17  2  0
 17 18  1  0
 18 19  2  0
 19 20  2  0
 17 21  1  0
 21 22  2  0
 22 23  1  0
 23 24  1  0
 23 25  1  0
 23 26  1  0
  8  2  1  0
 22 14  1  0
M  CHG  2  19   1  20  -1
M  END
>  <ref_mols>  (2026) 
7gpj-a

>  <gnina_score>  (2026) 
5.051

>  <smina_score_min>  (2026) 
-5.201

>  <ref_pdb>  (2026) 
7gpj-a

>  <inspiration_score>  (2026) 
None

>  <inchikey>  (2026) 
LMJCCQCFVZPGBJ-SECBINFHSA-N

>  <tags>  (2026) 
BulkDock Fragalysis export,openbind_d68ev3c_c2_elabs_scored,openbind_d68ev3c_c2_elabs_scored_4.5plus,openbind_d68ev3c_c2_elabs,openbind_d68ev3c_c2_elabs_scored_5plus,syndirella_product,openbind_d68ev3c_c2_elabs_scored_top80percent,syndirella_placed

>  <smiles>  (2026) 
C[C@@H]1C(=O)NCCN1CCNC(=O)c1ccc(N=[N+]=[N-])cc1C(F)(F)F

>  <subsites>  (2026) 
None

>  <rmsd(smina/fragmenstein)>  (2026) 
1.564

>  <alias>  (2026) 
None

>  <energy_score>  (2026) 
-28.0796

>  <HIPPO Pose ID>  (2026) 
139001

>  <distance_score>  (2026) 
1.050246

>  <HIPPO Compound ID>  (2026) 
164677

>  <gnina_score_min>  (2026) 
5.049

>  <name>  (2026) 
P139001

>  <exports>  (2026) 
['/opt/xchem-fragalysis-2/maxwin/BulkDock/OUTPUTS/openbind_d68ev3c_c2_elabs_1LOTQJ3.sdf', '/opt/xchem-fragalysis-2/maxwin/BulkDock/OUTPUTS/openbind_d68ev3c_c2_elabs_1LSYI5W.sdf']

$$$$
P139003
     RDKit          3D

 26 28  0  0  0  0  0  0  0  0999 V2000
   -2.7713    4.9366    5.9462 N   0  0  0  0  0  0  0  0  0  0  0  0
   -3.8010    4.5255    5.6780 N   0  0  0  0  0  0  0  0  0  0  0  0
   -4.9361    4.0922    5.3967 N   0  0  0  0  0  0  0  0  0  0  0  0
   -5.0403    2.6945    5.4709 C   0  0  0  0  0  0  0  0  0  0  0  0
   -5.5405    2.0014    4.3648 C   0  0  0  0  0  0  0  0  0  0  0  0
   -5.6797    0.6133    4.3988 C   0  0  0  0  0  0  0  0  0  0  0  0
   -5.3312   -0.0885    5.5582 C   0  0  0  0  0  0  0  0  0  0  0  0
   -5.3863   -1.5602    5.5299 C   0  0  0  0  0  0  0  0  0  0  0  0
   -4.4876   -2.1307    5.0377 O   0  0  0  0  0  0  0  0  0  0  0  0
   -6.6529   -2.0819    6.1252 N   0  0  0  0  0  0  0  0  0  0  0  0
   -7.7876   -2.1839    5.0570 C   0  0  0  0  0  0  0  0  0  0  0  0
   -8.5144   -3.1690    5.9314 C   0  0  0  0  0  0  0  0  0  0  0  0
   -9.3783   -2.5976    6.9796 N   0  0  0  0  0  0  0  0  0  0  0  0
  -10.6868   -2.2027    6.4146 C   0  0  0  0  0  0  0  0  0  0  0  0
  -11.2221   -0.8520    6.9230 C   0  0  0  0  0  0  0  0  0  0  0  0
  -10.1722    0.1435    6.9247 N   0  0  0  0  0  0  0  0  0  0  0  0
   -8.9477   -0.1757    7.4715 C   0  0  0  0  0  0  0  0  0  0  0  0
   -8.0669    0.6712    7.5883 O   0  0  0  0  0  0  0  0  0  0  0  0
   -8.8245   -1.6242    7.9414 C   0  0  0  0  0  0  0  0  0  0  0  0
   -7.1220   -3.5096    6.3682 C   0  0  0  0  0  0  0  0  0  0  0  0
   -4.8216    0.5728    6.6772 C   0  0  0  0  0  0  0  0  0  0  0  0
   -4.3974   -0.1951    7.8961 C   0  0  0  0  0  0  0  0  0  0  0  0
   -3.5940   -1.2572    7.6134 F   0  0  0  0  0  0  0  0  0  0  0  0
   -3.6680    0.5752    8.7497 F   0  0  0  0  0  0  0  0  0  0  0  0
   -5.4369   -0.6770    8.6209 F   0  0  0  0  0  0  0  0  0  0  0  0
   -4.7051    1.9749    6.6281 C   0  0  0  0  0  0  0  0  0  0  0  0
  1  2  2  0
  2  3  2  0
  3  4  1  0
  4  5  2  0
  5  6  1  0
  6  7  2  0
  7  8  1  0
  8  9  2  0
  8 10  1  0
 10 11  1  0
 11 12  1  0
 12 13  1  0
 13 14  1  0
 14 15  1  0
 15 16  1  0
 16 17  1  0
 17 18  2  0
 17 19  1  0
 12 20  1  0
  7 21  1  0
 21 22  1  0
 22 23  1  0
 22 24  1  0
 22 25  1  0
 21 26  2  0
 26  4  1  0
 20 10  1  0
 19 13  1  0
M  CHG  2   1  -1   2   1
M  END
>  <ref_mols>  (2027) 
7gpj-a

>  <gnina_score>  (2027) 
5.299

>  <smina_score_min>  (2027) 
-5.378

>  <ref_pdb>  (2027) 
7gpj-a

>  <inspiration_score>  (2027) 
None

>  <inchikey>  (2027) 
KQAUIWFCBGQOLZ-UHFFFAOYSA-N

>  <tags>  (2027) 
BulkDock Fragalysis export,openbind_d68ev3c_c2_elabs_scored,openbind_d68ev3c_c2_elabs_scored_4.5plus,openbind_d68ev3c_c2_elabs,openbind_d68ev3c_c2_elabs_scored_5plus,syndirella_product,openbind_d68ev3c_c2_elabs_scored_top80percent,syndirella_placed

>  <smiles>  (2027) 
[N-]=[N+]=Nc1ccc(C(=O)N2CC(N3CCNC(=O)C3)C2)c(C(F)(F)F)c1

>  <subsites>  (2027) 
None

>  <rmsd(smina/fragmenstein)>  (2027) 
0.716

>  <alias>  (2027) 
None

>  <energy_score>  (2027) 
-19.963375

>  <HIPPO Pose ID>  (2027) 
139003

>  <distance_score>  (2027) 
0.674693

>  <HIPPO Compound ID>  (2027) 
164678

>  <gnina_score_min>  (2027) 
5.373

>  <name>  (2027) 
P139003

>  <exports>  (2027) 
['/opt/xchem-fragalysis-2/maxwin/BulkDock/OUTPUTS/openbind_d68ev3c_c2_elabs_1LOTQJ3.sdf', '/opt/xchem-fragalysis-2/maxwin/BulkDock/OUTPUTS/openbind_d68ev3c_c2_elabs_1LSYI5W.sdf']

$$$$
P139004
     RDKit          3D

 26 28  0  0  0  0  0  0  0  0999 V2000
   -9.4134    1.9263    5.6036 O   0  0  0  0  0  0  0  0  0  0  0  0
   -9.4275    1.1447    6.5553 C   0  0  0  0  0  0  0  0  0  0  0  0
   -8.7674   -0.2395    6.4789 C   0  0  0  0  0  0  0  0  0  0  0  0
   -9.3232   -1.2341    7.4183 N   0  0  0  0  0  0  0  0  0  0  0  0
   -8.5511   -2.4959    7.4347 C   0  0  0  0  0  0  0  0  0  0  0  0
   -8.6767   -3.3134    6.1342 C   0  0  0  0  0  0  0  0  0  0  0  0
   -7.3683   -3.4699    5.3587 C   0  0  0  0  0  0  0  0  0  0  0  0
   -6.6924   -2.2166    5.1633 N   0  0  0  0  0  0  0  0  0  0  0  0
   -5.2489   -1.8093    5.4606 C   0  0  0  0  0  0  0  0  0  0  0  0
   -4.3521   -2.4404    5.8394 O   0  0  0  0  0  0  0  0  0  0  0  0
   -5.0790   -0.3402    5.3038 C   0  0  0  0  0  0  0  0  0  0  0  0
   -5.4294    0.2745    4.0974 C   0  0  0  0  0  0  0  0  0  0  0  0
   -5.3527    1.6639    3.9776 C   0  0  0  0  0  0  0  0  0  0  0  0
   -4.9254    2.4692    5.0436 C   0  0  0  0  0  0  0  0  0  0  0  0
   -4.8772    3.9714    4.9162 C   0  0  0  0  0  0  0  0  0  0  0  0
   -4.0190    4.6101    3.8490 C   0  0  0  0  0  0  0  0  0  0  0  0
   -3.6249    4.7302    5.2894 C   0  0  0  0  0  0  0  0  0  0  0  0
   -4.5807    1.8270    6.2449 C   0  0  0  0  0  0  0  0  0  0  0  0
   -4.6364    0.4265    6.3930 C   0  0  0  0  0  0  0  0  0  0  0  0
   -4.2666   -0.2051    7.7142 C   0  0  0  0  0  0  0  0  0  0  0  0
   -3.2461   -1.0971    7.6333 F   0  0  0  0  0  0  0  0  0  0  0  0
   -3.8392    0.7194    8.6225 F   0  0  0  0  0  0  0  0  0  0  0  0
   -5.3152   -0.8347    8.3072 F   0  0  0  0  0  0  0  0  0  0  0  0
   -9.3798   -0.6451    8.7661 C   0  0  0  0  0  0  0  0  0  0  0  0
  -10.3033    0.5762    8.7673 C   0  0  0  0  0  0  0  0  0  0  0  0
   -9.9354    1.5472    7.7626 N   0  0  0  0  0  0  0  0  0  0  0  0
  1  2  2  0
  2  3  1  0
  3  4  1  0
  4  5  1  0
  5  6  1  0
  6  7  1  0
  7  8  1  0
  8  9  1  0
  9 10  2  0
  9 11  1  0
 11 12  2  0
 12 13  1  0
 13 14  2  0
 14 15  1  0
 15 16  1  0
 16 17  1  0
 14 18  1  0
 18 19  2  0
 19 20  1  0
 20 21  1  0
 20 22  1  0
 20 23  1  0
  4 24  1  0
 24 25  1  0
 25 26  1  0
 26  2  1  0
 19 11  1  0
 17 15  1  0
M  END
>  <ref_mols>  (2028) 
7gpj-a

>  <gnina_score>  (2028) 
4.958

>  <smina_score_min>  (2028) 
-5.037

>  <ref_pdb>  (2028) 
7gpj-a

>  <inspiration_score>  (2028) 
None

>  <inchikey>  (2028) 
VYADAQGYMSCVTM-UHFFFAOYSA-N

>  <tags>  (2028) 
BulkDock Fragalysis export,openbind_d68ev3c_c2_elabs_scored,openbind_d68ev3c_c2_elabs_scored_4.5plus,openbind_d68ev3c_c2_elabs,openbind_d68ev3c_c2_elabs_scored_5plus,syndirella_product,openbind_d68ev3c_c2_elabs_scored_top80percent,syndirella_placed

>  <smiles>  (2028) 
O=C1CN(CCCNC(=O)c2ccc(C3CC3)cc2C(F)(F)F)CCN1

>  <subsites>  (2028) 
None

>  <rmsd(smina/fragmenstein)>  (2028) 
1.134

>  <alias>  (2028) 
None

>  <energy_score>  (2028) 
-28.23843

>  <HIPPO Pose ID>  (2028) 
139004

>  <distance_score>  (2028) 
0.651123

>  <HIPPO Compound ID>  (2028) 
164698

>  <gnina_score_min>  (2028) 
5.0

>  <name>  (2028) 
P139004

>  <exports>  (2028) 
['/opt/xchem-fragalysis-2/maxwin/BulkDock/OUTPUTS/openbind_d68ev3c_c2_elabs_1LOTQJ3.sdf', '/opt/xchem-fragalysis-2/maxwin/BulkDock/OUTPUTS/openbind_d68ev3c_c2_elabs_1LSYI5W.sdf']

$$$$
P139005
     RDKit          3D

 26 28  0  0  0  0  0  0  0  0999 V2000
   -8.5722   -2.6874    2.5984 C   0  0  0  0  0  0  0  0  0  0  0  0
   -8.7733   -3.0253    3.9923 N   0  0  0  0  0  0  0  0  0  0  0  0
   -9.8945   -2.3973    4.6679 C   0  0  0  0  0  0  0  0  0  0  0  0
  -10.1986   -3.0299    6.0239 C   0  0  0  0  0  0  0  0  0  0  0  0
   -9.0218   -3.1132    6.8720 N   0  0  0  0  0  0  0  0  0  0  0  0
   -8.6966   -1.9985    7.7519 C   0  0  0  0  0  0  0  0  0  0  0  0
   -9.0183   -0.5595    7.3353 C   0  0  0  0  0  0  0  0  0  0  0  0
   -7.9605    0.1577    6.6705 N   0  0  0  0  0  0  0  0  0  0  0  0
   -6.6541   -0.3467    6.0471 C   0  0  0  0  0  0  0  0  0  0  0  0
   -6.2581   -1.4269    5.9019 O   0  0  0  0  0  0  0  0  0  0  0  0
   -5.8080    0.7926    5.6978 C   0  0  0  0  0  0  0  0  0  0  0  0
   -6.1566    1.5913    4.6118 C   0  0  0  0  0  0  0  0  0  0  0  0
   -5.5276    2.8226    4.4621 C   0  0  0  0  0  0  0  0  0  0  0  0
   -4.5797    3.2773    5.3972 C   0  0  0  0  0  0  0  0  0  0  0  0
   -4.0509    4.6906    5.3159 C   0  0  0  0  0  0  0  0  0  0  0  0
   -3.1535    5.0892    4.1698 C   0  0  0  0  0  0  0  0  0  0  0  0
   -2.5982    5.0125    5.5607 C   0  0  0  0  0  0  0  0  0  0  0  0
   -4.2140    2.4069    6.4443 C   0  0  0  0  0  0  0  0  0  0  0  0
   -4.7960    1.1388    6.5945 C   0  0  0  0  0  0  0  0  0  0  0  0
   -4.3821    0.1893    7.6953 C   0  0  0  0  0  0  0  0  0  0  0  0
   -3.7909   -0.9474    7.2354 F   0  0  0  0  0  0  0  0  0  0  0  0
   -3.4584    0.7518    8.5223 F   0  0  0  0  0  0  0  0  0  0  0  0
   -5.4031   -0.1886    8.5086 F   0  0  0  0  0  0  0  0  0  0  0  0
   -7.8982   -3.8034    6.2364 C   0  0  0  0  0  0  0  0  0  0  0  0
   -7.7048   -3.5324    4.7299 C   0  0  0  0  0  0  0  0  0  0  0  0
   -6.6621   -3.8605    4.1548 O   0  0  0  0  0  0  0  0  0  0  0  0
  1  2  1  0
  2  3  1  0
  3  4  1  0
  4  5  1  0
  5  6  1  0
  6  7  1  0
  7  8  1  0
  8  9  1  0
  9 10  2  0
  9 11  1  0
 11 12  2  0
 12 13  1  0
 13 14  2  0
 14 15  1  0
 15 16  1  0
 16 17  1  0
 14 18  1  0
 18 19  2  0
 19 20  1  0
 20 21  1  0
 20 22  1  0
 20 23  1  0
  5 24  1  0
 24 25  1  0
 25 26  2  0
 25  2  1  0
 19 11  1  0
 17 15  1  0
M  END
>  <ref_mols>  (2029) 
7gpj-a

>  <gnina_score>  (2029) 
5.091

>  <smina_score_min>  (2029) 
-4.888

>  <ref_pdb>  (2029) 
7gpj-a

>  <inspiration_score>  (2029) 
None

>  <inchikey>  (2029) 
NBOHSAARDWCLSB-UHFFFAOYSA-N

>  <tags>  (2029) 
BulkDock Fragalysis export,openbind_d68ev3c_c2_elabs_scored,openbind_d68ev3c_c2_elabs_scored_4.5plus,openbind_d68ev3c_c2_elabs,openbind_d68ev3c_c2_elabs_scored_5plus,syndirella_product,openbind_d68ev3c_c2_elabs_scored_top80percent,syndirella_placed

>  <smiles>  (2029) 
CN1CCN(CCNC(=O)c2ccc(C3CC3)cc2C(F)(F)F)CC1=O

>  <subsites>  (2029) 
None

>  <rmsd(smina/fragmenstein)>  (2029) 
1.035

>  <alias>  (2029) 
None

>  <energy_score>  (2029) 
-8.439809

>  <HIPPO Pose ID>  (2029) 
139005

>  <distance_score>  (2029) 
1.186258

>  <HIPPO Compound ID>  (2029) 
164713

>  <gnina_score_min>  (2029) 
5.083

>  <name>  (2029) 
P139005

>  <exports>  (2029) 
['/opt/xchem-fragalysis-2/maxwin/BulkDock/OUTPUTS/openbind_d68ev3c_c2_elabs_1LOTQJ3.sdf', '/opt/xchem-fragalysis-2/maxwin/BulkDock/OUTPUTS/openbind_d68ev3c_c2_elabs_1LSYI5W.sdf']

$$$$
P139008
     RDKit          3D

 26 27  0  0  0  0  0  0  0  0999 V2000
   -9.5358   -0.7583    8.4792 C   0  0  0  0  0  0  0  0  0  0  0  0
   -8.7061   -1.3202    7.3265 C   0  0  2  0  0  0  0  0  0  0  0  0
   -8.8467   -0.3328    6.1609 C   0  0  0  0  0  0  0  0  0  0  0  0
   -8.0756    0.6101    5.9861 O   0  0  0  0  0  0  0  0  0  0  0  0
   -9.9138   -0.4803    5.3122 N   0  0  0  0  0  0  0  0  0  0  0  0
  -10.5204   -1.7744    5.0760 C   0  0  0  0  0  0  0  0  0  0  0  0
  -10.3991   -2.7468    6.2531 C   0  0  0  0  0  0  0  0  0  0  0  0
   -9.1240   -2.6886    6.9713 N   0  0  0  0  0  0  0  0  0  0  0  0
   -8.0700   -3.5813    6.4763 C   0  0  0  0  0  0  0  0  0  0  0  0
   -7.4569   -3.3414    5.0812 C   0  0  0  0  0  0  0  0  0  0  0  0
   -6.7321   -2.0977    4.9854 N   0  0  0  0  0  0  0  0  0  0  0  0
   -5.2984   -1.7489    5.3899 C   0  0  0  0  0  0  0  0  0  0  0  0
   -4.4451   -2.4241    5.7942 O   0  0  0  0  0  0  0  0  0  0  0  0
   -5.0677   -0.2816    5.2836 C   0  0  0  0  0  0  0  0  0  0  0  0
   -5.3310    0.3572    4.0628 C   0  0  0  0  0  0  0  0  0  0  0  0
   -5.1491    1.7354    3.9381 C   0  0  0  0  0  0  0  0  0  0  0  0
   -4.7128    2.4953    5.0298 C   0  0  0  0  0  0  0  0  0  0  0  0
   -4.4770    3.9804    4.8896 C   0  0  0  0  0  0  0  0  0  0  0  0
   -5.1790    4.5371    3.8617 F   0  0  0  0  0  0  0  0  0  0  0  0
   -4.8346    4.6793    6.0023 F   0  0  0  0  0  0  0  0  0  0  0  0
   -4.4513    1.8465    6.2479 C   0  0  0  0  0  0  0  0  0  0  0  0
   -4.6066    0.4509    6.3890 C   0  0  0  0  0  0  0  0  0  0  0  0
   -4.2848   -0.2151    7.7063 C   0  0  0  0  0  0  0  0  0  0  0  0
   -3.2834   -1.1297    7.6210 F   0  0  0  0  0  0  0  0  0  0  0  0
   -3.8438    0.6834    8.6350 F   0  0  0  0  0  0  0  0  0  0  0  0
   -5.3522   -0.8308    8.2755 F   0  0  0  0  0  0  0  0  0  0  0  0
  2  1  1  1
  2  3  1  0
  3  4  2  0
  3  5  1  0
  5  6  1  0
  6  7  1  0
  7  8  1  0
  8  9  1  0
  9 10  1  0
 10 11  1  0
 11 12  1  0
 12 13  2  0
 12 14  1  0
 14 15  2  0
 15 16  1  0
 16 17  2  0
 17 18  1  0
 18 19  1  0
 18 20  1  0
 17 21  1  0
 21 22  2  0
 22 23  1  0
 23 24  1  0
 23 25  1  0
 23 26  1  0
  8  2  1  0
 22 14  1  0
M  END
>  <ref_mols>  (2030) 
7gpj-a

>  <gnina_score>  (2030) 
5.104

>  <smina_score_min>  (2030) 
-4.819

>  <ref_pdb>  (2030) 
7gpj-a

>  <inspiration_score>  (2030) 
None

>  <inchikey>  (2030) 
GUMLOALMDLILHH-SECBINFHSA-N

>  <tags>  (2030) 
BulkDock Fragalysis export,openbind_d68ev3c_c2_elabs_scored,openbind_d68ev3c_c2_elabs_scored_4.5plus,openbind_d68ev3c_c2_elabs,openbind_d68ev3c_c2_elabs_scored_5plus,syndirella_product,openbind_d68ev3c_c2_elabs_scored_top80percent,syndirella_placed

>  <smiles>  (2030) 
C[C@@H]1C(=O)NCCN1CCNC(=O)c1ccc(C(F)F)cc1C(F)(F)F

>  <subsites>  (2030) 
None

>  <rmsd(smina/fragmenstein)>  (2030) 
0.552

>  <alias>  (2030) 
None

>  <energy_score>  (2030) 
-26.974623

>  <HIPPO Pose ID>  (2030) 
139008

>  <distance_score>  (2030) 
0.64816

>  <HIPPO Compound ID>  (2030) 
164723

>  <gnina_score_min>  (2030) 
5.06

>  <name>  (2030) 
P139008

>  <exports>  (2030) 
['/opt/xchem-fragalysis-2/maxwin/BulkDock/OUTPUTS/openbind_d68ev3c_c2_elabs_1LOTQJ3.sdf', '/opt/xchem-fragalysis-2/maxwin/BulkDock/OUTPUTS/openbind_d68ev3c_c2_elabs_1LSYI5W.sdf']

$$$$
P139010
     RDKit          3D

 26 27  0  0  0  0  0  0  0  0999 V2000
  -11.9348    0.9733    3.3023 C   0  0  0  0  0  0  0  0  0  0  0  0
  -11.0444   -0.2553    3.3966 C   0  0  0  0  0  0  0  0  0  0  0  0
  -10.1081   -0.1769    4.6029 C   0  0  0  0  0  0  0  0  0  0  0  0
   -9.2056   -1.4161    4.6869 C   0  0  0  0  0  0  0  0  0  0  0  0
   -8.2337   -1.3660    5.9116 C   0  0  1  0  0  0  0  0  0  0  0  0
   -8.9499   -1.5855    7.2730 C   0  0  0  0  0  0  0  0  0  0  0  0
   -9.4518   -0.6884    7.9393 O   0  0  0  0  0  0  0  0  0  0  0  0
   -9.0567   -2.9006    7.6083 N   0  0  0  0  0  0  0  0  0  0  0  0
   -8.1011   -3.7828    7.0291 C   0  0  0  0  0  0  0  0  0  0  0  0
   -7.4686   -3.1942    5.7634 C   0  0  0  0  0  0  0  0  0  0  0  0
   -6.7555   -1.8512    5.7604 N   0  0  0  0  0  0  0  0  0  0  0  0
   -6.0548   -1.1197    4.6550 C   0  0  0  0  0  0  0  0  0  0  0  0
   -5.9620   -1.3767    3.5129 O   0  0  0  0  0  0  0  0  0  0  0  0
   -5.4760    0.1921    5.0966 C   0  0  0  0  0  0  0  0  0  0  0  0
   -5.6466    1.2250    4.1498 C   0  0  0  0  0  0  0  0  0  0  0  0
   -5.2511    2.5349    4.4161 C   0  0  0  0  0  0  0  0  0  0  0  0
   -4.6671    2.8519    5.6393 C   0  0  0  0  0  0  0  0  0  0  0  0
   -4.2818    4.1524    5.9966 N   0  0  0  0  0  0  0  0  0  0  0  0
   -3.6097    4.7475    5.1314 N   0  0  0  0  0  0  0  0  0  0  0  0
   -3.0143    5.3173    4.3430 N   0  0  0  0  0  0  0  0  0  0  0  0
   -4.5088    1.8326    6.5844 C   0  0  0  0  0  0  0  0  0  0  0  0
   -4.8780    0.4880    6.3290 C   0  0  0  0  0  0  0  0  0  0  0  0
   -4.5728   -0.5294    7.3952 C   0  0  0  0  0  0  0  0  0  0  0  0
   -3.5907   -0.0851    8.2402 F   0  0  0  0  0  0  0  0  0  0  0  0
   -4.0978   -1.7079    6.9117 F   0  0  0  0  0  0  0  0  0  0  0  0
   -5.6311   -0.8146    8.1949 F   0  0  0  0  0  0  0  0  0  0  0  0
  1  2  1  0
  2  3  1  0
  3  4  1  0
  5  4  1  6
  5  6  1  0
  6  7  2  0
  6  8  1  0
  8  9  1  0
  9 10  1  0
 10 11  1  0
 11 12  1  0
 12 13  2  0
 12 14  1  0
 14 15  2  0
 15 16  1  0
 16 17  2  0
 17 18  1  0
 18 19  2  0
 19 20  2  0
 17 21  1  0
 21 22  2  0
 22 23  1  0
 23 24  1  0
 23 25  1  0
 23 26  1  0
 11  5  1  0
 22 14  1  0
M  CHG  2  19   1  20  -1
M  END
>  <ref_mols>  (2031) 
7gpj-a

>  <gnina_score>  (2031) 
5.296

>  <smina_score_min>  (2031) 
-4.864

>  <ref_pdb>  (2031) 
7gpj-a

>  <inspiration_score>  (2031) 
None

>  <inchikey>  (2031) 
HUOKEVMWOFAKKM-ZDUSSCGKSA-N

>  <tags>  (2031) 
BulkDock Fragalysis export,openbind_d68ev3c_c2_elabs_scored,openbind_d68ev3c_c2_elabs_scored_4.5plus,openbind_d68ev3c_c2_elabs,openbind_d68ev3c_c2_elabs_scored_5plus,syndirella_product,openbind_d68ev3c_c2_elabs_scored_top80percent,syndirella_placed

>  <smiles>  (2031) 
CCCC[C@H]1C(=O)NCCN1C(=O)c1ccc(N=[N+]=[N-])cc1C(F)(F)F

>  <subsites>  (2031) 
None

>  <rmsd(smina/fragmenstein)>  (2031) 
0.792

>  <alias>  (2031) 
None

>  <energy_score>  (2031) 
-150.439766

>  <HIPPO Pose ID>  (2031) 
139010

>  <distance_score>  (2031) 
0.70519

>  <HIPPO Compound ID>  (2031) 
164733

>  <gnina_score_min>  (2031) 
5.357

>  <name>  (2031) 
P139010

>  <exports>  (2031) 
['/opt/xchem-fragalysis-2/maxwin/BulkDock/OUTPUTS/openbind_d68ev3c_c2_elabs_1LOTQJ3.sdf', '/opt/xchem-fragalysis-2/maxwin/BulkDock/OUTPUTS/openbind_d68ev3c_c2_elabs_1LSYI5W.sdf']

$$$$
P139012
     RDKit          3D

 26 27  0  0  0  0  0  0  0  0999 V2000
   -3.9309    4.9374    3.5270 N   0  0  0  0  0  0  0  0  0  0  0  0
   -4.5091    4.4778    4.3960 N   0  0  0  0  0  0  0  0  0  0  0  0
   -5.1588    3.9908    5.3430 N   0  0  0  0  0  0  0  0  0  0  0  0
   -5.1555    2.5889    5.3566 C   0  0  0  0  0  0  0  0  0  0  0  0
   -5.6553    1.8293    4.2913 C   0  0  0  0  0  0  0  0  0  0  0  0
   -5.6624    0.4355    4.3573 C   0  0  0  0  0  0  0  0  0  0  0  0
   -5.1844   -0.2012    5.5057 C   0  0  0  0  0  0  0  0  0  0  0  0
   -5.1838   -1.6747    5.5503 C   0  0  0  0  0  0  0  0  0  0  0  0
   -4.2144   -2.2498    5.2896 O   0  0  0  0  0  0  0  0  0  0  0  0
   -6.5567   -2.1870    5.9443 N   0  0  0  0  0  0  0  0  0  0  0  0
   -7.0169   -3.5218    6.1973 C   0  0  0  0  0  0  0  0  0  0  0  0
   -8.5370   -3.5812    6.2810 C   0  0  0  0  0  0  0  0  0  0  0  0
   -9.1411   -2.6074    7.3077 C   0  0  0  0  0  0  0  0  0  0  0  0
   -8.8093   -1.1815    7.0762 N   0  0  0  0  0  0  0  0  0  0  0  0
   -9.1945   -0.3748    8.2509 C   0  0  0  0  0  0  0  0  0  0  0  0
   -8.7224    1.0715    8.0583 C   0  0  0  0  0  0  0  0  0  0  0  0
   -9.1086    1.6317    6.7797 N   0  0  0  0  0  0  0  0  0  0  0  0
   -9.2500    0.8440    5.6640 C   0  0  0  0  0  0  0  0  0  0  0  0
   -9.2282    1.3542    4.5448 O   0  0  0  0  0  0  0  0  0  0  0  0
   -9.5256   -0.6514    5.8866 C   0  0  0  0  0  0  0  0  0  0  0  0
   -4.7100    0.5273    6.5981 C   0  0  0  0  0  0  0  0  0  0  0  0
   -4.2766   -0.1709    7.8565 C   0  0  0  0  0  0  0  0  0  0  0  0
   -3.6267    0.6724    8.7026 F   0  0  0  0  0  0  0  0  0  0  0  0
   -5.3337   -0.6547    8.5604 F   0  0  0  0  0  0  0  0  0  0  0  0
   -3.4235   -1.2067    7.6587 F   0  0  0  0  0  0  0  0  0  0  0  0
   -4.7053    1.9310    6.5083 C   0  0  0  0  0  0  0  0  0  0  0  0
  1  2  2  0
  2  3  2  0
  3  4  1  0
  4  5  2  0
  5  6  1  0
  6  7  2  0
  7  8  1  0
  8  9  2  0
  8 10  1  0
 10 11  1  0
 11 12  1  0
 12 13  1  0
 13 14  1  0
 14 15  1  0
 15 16  1  0
 16 17  1  0
 17 18  1  0
 18 19  2  0
 18 20  1  0
  7 21  1  0
 21 22  1  0
 22 23  1  0
 22 24  1  0
 22 25  1  0
 21 26  2  0
 26  4  1  0
 20 14  1  0
M  CHG  2   1  -1   2   1
M  END
>  <ref_mols>  (2032) 
7gpj-a

>  <gnina_score>  (2032) 
5.063

>  <smina_score_min>  (2032) 
-4.717

>  <ref_pdb>  (2032) 
7gpj-a

>  <inspiration_score>  (2032) 
None

>  <inchikey>  (2032) 
DPPNPDQAGHHUJB-UHFFFAOYSA-N

>  <tags>  (2032) 
BulkDock Fragalysis export,openbind_d68ev3c_c2_elabs_scored,openbind_d68ev3c_c2_elabs_scored_4.5plus,openbind_d68ev3c_c2_elabs,openbind_d68ev3c_c2_elabs_scored_5plus,syndirella_product,openbind_d68ev3c_c2_elabs_scored_top80percent,syndirella_placed

>  <smiles>  (2032) 
[N-]=[N+]=Nc1ccc(C(=O)NCCCN2CCNC(=O)C2)c(C(F)(F)F)c1

>  <subsites>  (2032) 
None

>  <rmsd(smina/fragmenstein)>  (2032) 
1.011

>  <alias>  (2032) 
None

>  <energy_score>  (2032) 
-28.232919

>  <HIPPO Pose ID>  (2032) 
139012

>  <distance_score>  (2032) 
0.616583

>  <HIPPO Compound ID>  (2032) 
164753

>  <gnina_score_min>  (2032) 
5.025

>  <name>  (2032) 
P139012

>  <exports>  (2032) 
['/opt/xchem-fragalysis-2/maxwin/BulkDock/OUTPUTS/openbind_d68ev3c_c2_elabs_1LOTQJ3.sdf', '/opt/xchem-fragalysis-2/maxwin/BulkDock/OUTPUTS/openbind_d68ev3c_c2_elabs_1LSYI5W.sdf']

$$$$
P139014
     RDKit          3D

 26 27  0  0  0  0  0  0  0  0999 V2000
   -9.3907   -0.7525    8.4816 C   0  0  0  0  0  0  0  0  0  0  0  0
   -8.7343   -1.2682    7.2034 C   0  0  2  0  0  0  0  0  0  0  0  0
   -9.0088   -0.2706    6.0666 C   0  0  0  0  0  0  0  0  0  0  0  0
   -8.1629    0.5106    5.6349 O   0  0  0  0  0  0  0  0  0  0  0  0
  -10.2687   -0.3010    5.5199 N   0  0  0  0  0  0  0  0  0  0  0  0
  -11.1628   -1.3959    5.8331 C   0  0  0  0  0  0  0  0  0  0  0  0
  -10.3828   -2.7094    5.9829 C   0  0  0  0  0  0  0  0  0  0  0  0
   -9.2005   -2.6281    6.8577 N   0  0  0  0  0  0  0  0  0  0  0  0
   -8.1360   -3.5782    6.4932 C   0  0  0  0  0  0  0  0  0  0  0  0
   -7.4171   -3.3795    5.1361 C   0  0  0  0  0  0  0  0  0  0  0  0
   -6.7162   -2.1215    5.0345 N   0  0  0  0  0  0  0  0  0  0  0  0
   -5.2784   -1.7527    5.4014 C   0  0  0  0  0  0  0  0  0  0  0  0
   -4.4026   -2.4172    5.7725 O   0  0  0  0  0  0  0  0  0  0  0  0
   -5.0771   -0.2811    5.3002 C   0  0  0  0  0  0  0  0  0  0  0  0
   -5.3730    0.3566    4.0836 C   0  0  0  0  0  0  0  0  0  0  0  0
   -5.2662    1.7440    3.9717 C   0  0  0  0  0  0  0  0  0  0  0  0
   -4.8611    2.4946    5.0807 C   0  0  0  0  0  0  0  0  0  0  0  0
   -4.7726    3.9582    4.9730 N   0  0  0  0  0  0  0  0  0  0  0  0
   -5.0204    4.4697    3.8714 O   0  0  0  0  0  0  0  0  0  0  0  0
   -4.4629    4.5917    5.9911 O   0  0  0  0  0  0  0  0  0  0  0  0
   -4.5438    1.8611    6.2928 C   0  0  0  0  0  0  0  0  0  0  0  0
   -4.6348    0.4572    6.4125 C   0  0  0  0  0  0  0  0  0  0  0  0
   -4.2889   -0.2144    7.7219 C   0  0  0  0  0  0  0  0  0  0  0  0
   -3.2872   -1.1244    7.6212 F   0  0  0  0  0  0  0  0  0  0  0  0
   -3.8450    0.6833    8.6476 F   0  0  0  0  0  0  0  0  0  0  0  0
   -5.3515   -0.8342    8.2956 F   0  0  0  0  0  0  0  0  0  0  0  0
  2  1  1  1
  2  3  1  0
  3  4  2  0
  3  5  1  0
  5  6  1  0
  6  7  1  0
  7  8  1  0
  8  9  1  0
  9 10  1  0
 10 11  1  0
 11 12  1  0
 12 13  2  0
 12 14  1  0
 14 15  2  0
 15 16  1  0
 16 17  2  0
 17 18  1  0
 18 19  2  0
 18 20  1  0
 17 21  1  0
 21 22  2  0
 22 23  1  0
 23 24  1  0
 23 25  1  0
 23 26  1  0
  8  2  1  0
 22 14  1  0
M  CHG  2  18   1  20  -1
M  END
>  <ref_mols>  (2033) 
7gpj-a

>  <gnina_score>  (2033) 
5.094

>  <smina_score_min>  (2033) 
-5.024

>  <ref_pdb>  (2033) 
7gpj-a

>  <inspiration_score>  (2033) 
None

>  <inchikey>  (2033) 
AOLYQLVLZYFBTO-SECBINFHSA-N

>  <tags>  (2033) 
BulkDock Fragalysis export,openbind_d68ev3c_c2_elabs_scored,openbind_d68ev3c_c2_elabs_scored_4.5plus,openbind_d68ev3c_c2_elabs,openbind_d68ev3c_c2_elabs_scored_5plus,syndirella_product,openbind_d68ev3c_c2_elabs_scored_top80percent,syndirella_placed

>  <smiles>  (2033) 
C[C@@H]1C(=O)NCCN1CCNC(=O)c1ccc([N+](=O)[O-])cc1C(F)(F)F

>  <subsites>  (2033) 
None

>  <rmsd(smina/fragmenstein)>  (2033) 
0.699

>  <alias>  (2033) 
None

>  <energy_score>  (2033) 
-39.264621

>  <HIPPO Pose ID>  (2033) 
139014

>  <distance_score>  (2033) 
0.659404

>  <HIPPO Compound ID>  (2033) 
164774

>  <gnina_score_min>  (2033) 
5.229

>  <name>  (2033) 
P139014

>  <exports>  (2033) 
['/opt/xchem-fragalysis-2/maxwin/BulkDock/OUTPUTS/openbind_d68ev3c_c2_elabs_1LOTQJ3.sdf', '/opt/xchem-fragalysis-2/maxwin/BulkDock/OUTPUTS/openbind_d68ev3c_c2_elabs_1LSYI5W.sdf']

$$$$
P139016
     RDKit          3D

 26 28  0  0  0  0  0  0  0  0999 V2000
   -9.7188    0.0377    9.5057 O   0  0  0  0  0  0  0  0  0  0  0  0
   -9.9985   -0.5635    8.4685 C   0  0  0  0  0  0  0  0  0  0  0  0
   -8.9490   -1.3172    7.6399 C   0  0  0  0  0  0  0  0  0  0  0  0
   -9.5255   -2.3964    6.8112 N   0  0  0  0  0  0  0  0  0  0  0  0
   -8.6145   -3.1533    5.9237 C   0  0  0  0  0  0  0  0  0  0  0  0
   -7.2822   -3.5070    6.5199 C   0  0  0  0  0  0  0  0  0  0  0  0
   -6.7217   -2.1393    6.1555 N   0  0  0  0  0  0  0  0  0  0  0  0
   -5.3810   -1.7441    5.6281 C   0  0  0  0  0  0  0  0  0  0  0  0
   -4.4707   -2.4051    5.2970 O   0  0  0  0  0  0  0  0  0  0  0  0
   -5.2707   -0.2726    5.5322 C   0  0  0  0  0  0  0  0  0  0  0  0
   -5.6229    0.3494    4.3259 C   0  0  0  0  0  0  0  0  0  0  0  0
   -5.5107    1.7353    4.1976 C   0  0  0  0  0  0  0  0  0  0  0  0
   -5.0396    2.4926    5.2783 C   0  0  0  0  0  0  0  0  0  0  0  0
   -4.9302    3.9536    5.1478 N   0  0  0  0  0  0  0  0  0  0  0  0
   -5.2735    4.4598    4.0700 O   0  0  0  0  0  0  0  0  0  0  0  0
   -4.5113    4.5874    6.1250 O   0  0  0  0  0  0  0  0  0  0  0  0
   -4.6728    1.8674    6.4812 C   0  0  0  0  0  0  0  0  0  0  0  0
   -4.7721    0.4674    6.6120 C   0  0  0  0  0  0  0  0  0  0  0  0
   -4.3563   -0.2241    7.8840 C   0  0  0  0  0  0  0  0  0  0  0  0
   -3.5345   -1.2850    7.6769 F   0  0  0  0  0  0  0  0  0  0  0  0
   -5.4172   -0.6739    8.5970 F   0  0  0  0  0  0  0  0  0  0  0  0
   -3.6675    0.6080    8.7088 F   0  0  0  0  0  0  0  0  0  0  0  0
   -7.7579   -2.3284    5.0012 C   0  0  0  0  0  0  0  0  0  0  0  0
  -10.6708   -1.8992    6.0358 C   0  0  0  0  0  0  0  0  0  0  0  0
  -11.7641   -1.3829    6.9708 C   0  0  0  0  0  0  0  0  0  0  0  0
  -11.2604   -0.4308    7.9365 N   0  0  0  0  0  0  0  0  0  0  0  0
  1  2  2  0
  2  3  1  0
  3  4  1  0
  4  5  1  0
  5  6  1  0
  6  7  1  0
  7  8  1  0
  8  9  2  0
  8 10  1  0
 10 11  2  0
 11 12  1  0
 12 13  2  0
 13 14  1  0
 14 15  2  0
 14 16  1  0
 13 17  1  0
 17 18  2  0
 18 19  1  0
 19 20  1  0
 19 21  1  0
 19 22  1  0
  7 23  1  0
  4 24  1  0
 24 25  1  0
 25 26  1  0
 26  2  1  0
 23  5  1  0
 18 10  1  0
M  CHG  2  14   1  16  -1
M  END
>  <ref_mols>  (2034) 
7gpj-a

>  <gnina_score>  (2034) 
5.15

>  <smina_score_min>  (2034) 
-5.817

>  <ref_pdb>  (2034) 
7gpj-a

>  <inspiration_score>  (2034) 
None

>  <inchikey>  (2034) 
DMVFZQJMCQGTGQ-UHFFFAOYSA-N

>  <tags>  (2034) 
BulkDock Fragalysis export,openbind_d68ev3c_c2_elabs_scored,openbind_d68ev3c_c2_elabs_scored_4.5plus,openbind_d68ev3c_c2_elabs,openbind_d68ev3c_c2_elabs_scored_5plus,syndirella_product,openbind_d68ev3c_c2_elabs_scored_top80percent,syndirella_placed

>  <smiles>  (2034) 
O=C1CN(C2CN(C(=O)c3ccc([N+](=O)[O-])cc3C(F)(F)F)C2)CCN1

>  <subsites>  (2034) 
None

>  <rmsd(smina/fragmenstein)>  (2034) 
0.74

>  <alias>  (2034) 
None

>  <energy_score>  (2034) 
-30.486207

>  <HIPPO Pose ID>  (2034) 
139016

>  <distance_score>  (2034) 
0.724075

>  <HIPPO Compound ID>  (2034) 
164775

>  <gnina_score_min>  (2034) 
5.236

>  <name>  (2034) 
P139016

>  <exports>  (2034) 
['/opt/xchem-fragalysis-2/maxwin/BulkDock/OUTPUTS/openbind_d68ev3c_c2_elabs_1LOTQJ3.sdf', '/opt/xchem-fragalysis-2/maxwin/BulkDock/OUTPUTS/openbind_d68ev3c_c2_elabs_1LSYI5W.sdf']

$$$$
P139023
     RDKit          3D

 26 28  0  0  0  0  0  0  0  0999 V2000
   -2.2131    5.3736    7.3143 C   0  0  0  0  0  0  0  0  0  0  0  0
   -2.8562    4.1421    6.9839 O   0  0  0  0  0  0  0  0  0  0  0  0
   -3.8408    4.2670    6.0613 C   0  0  0  0  0  0  0  0  0  0  0  0
   -4.1972    5.2945    5.5094 O   0  0  0  0  0  0  0  0  0  0  0  0
   -4.4197    2.9316    5.7688 C   0  0  0  0  0  0  0  0  0  0  0  0
   -5.0446    2.7321    4.5431 C   0  0  0  0  0  0  0  0  0  0  0  0
   -5.5685    1.4792    4.2347 C   0  0  0  0  0  0  0  0  0  0  0  0
   -5.4799    0.3894    5.1321 C   0  0  0  0  0  0  0  0  0  0  0  0
   -6.1883   -0.8391    4.6342 C   0  0  0  0  0  0  0  0  0  0  0  0
   -6.2164   -0.9840    3.4688 O   0  0  0  0  0  0  0  0  0  0  0  0
   -6.8353   -1.6362    5.7271 N   0  0  0  0  0  0  0  0  0  0  0  0
   -7.6427   -2.9389    5.6700 C   0  0  2  0  0  0  0  0  0  0  0  0
   -8.6041   -3.1894    4.4741 C   0  0  0  0  0  0  0  0  0  0  0  0
   -9.2120   -1.9422    3.8866 C   0  0  0  0  0  0  0  0  0  0  0  0
   -9.2529   -0.8515    4.9211 C   0  0  0  0  0  0  0  0  0  0  0  0
   -8.2441   -1.0875    6.0628 C   0  0  1  0  0  0  0  0  0  0  0  0
   -8.9497   -1.4261    7.4137 C   0  0  0  0  0  0  0  0  0  0  0  0
   -9.4961   -0.5887    8.1224 O   0  0  0  0  0  0  0  0  0  0  0  0
   -9.0317   -2.7607    7.6675 N   0  0  0  0  0  0  0  0  0  0  0  0
   -8.1023   -3.5952    6.9879 C   0  0  0  0  0  0  0  0  0  0  0  0
   -4.8405    0.5749    6.3683 C   0  0  0  0  0  0  0  0  0  0  0  0
   -4.6037   -0.5128    7.3840 C   0  0  0  0  0  0  0  0  0  0  0  0
   -5.6833   -0.7783    8.1615 F   0  0  0  0  0  0  0  0  0  0  0  0
   -4.1860   -1.6883    6.8441 F   0  0  0  0  0  0  0  0  0  0  0  0
   -3.6079   -0.1657    8.2577 F   0  0  0  0  0  0  0  0  0  0  0  0
   -4.3445    1.8680    6.6780 C   0  0  0  0  0  0  0  0  0  0  0  0
  1  2  1  0
  2  3  1  0
  3  4  2  0
  3  5  1  0
  5  6  2  0
  6  7  1  0
  7  8  2  0
  8  9  1  0
  9 10  2  0
  9 11  1  0
 11 12  1  0
 12 13  1  6
 13 14  1  0
 14 15  1  0
 16 15  1  6
 16 17  1  0
 17 18  2  0
 17 19  1  0
 19 20  1  0
  8 21  1  0
 21 22  1  0
 22 23  1  0
 22 24  1  0
 22 25  1  0
 21 26  2  0
 26  5  1  0
 16 11  1  0
 20 12  1  0
M  END
>  <ref_mols>  (2035) 
7gpj-a

>  <gnina_score>  (2035) 
5.127

>  <smina_score_min>  (2035) 
-5.353

>  <ref_pdb>  (2035) 
7gpj-a

>  <inspiration_score>  (2035) 
None

>  <inchikey>  (2035) 
QMHLBMHNQHBQJO-MFKMUULPSA-N

>  <tags>  (2035) 
BulkDock Fragalysis export,openbind_d68ev3c_c2_elabs_scored,openbind_d68ev3c_c2_elabs_scored_4.5plus,openbind_d68ev3c_c2_elabs,openbind_d68ev3c_c2_elabs_scored_5plus,syndirella_product,openbind_d68ev3c_c2_elabs_scored_top80percent,syndirella_placed

>  <smiles>  (2035) 
COC(=O)c1ccc(C(=O)N2[C@@H]3CCC[C@H]2C(=O)NC3)c(C(F)(F)F)c1

>  <subsites>  (2035) 
None

>  <rmsd(smina/fragmenstein)>  (2035) 
0.865

>  <alias>  (2035) 
None

>  <energy_score>  (2035) 
-63.802822

>  <HIPPO Pose ID>  (2035) 
139023

>  <distance_score>  (2035) 
0.846828

>  <HIPPO Compound ID>  (2035) 
164851

>  <gnina_score_min>  (2035) 
5.269

>  <name>  (2035) 
P139023

>  <exports>  (2035) 
['/opt/xchem-fragalysis-2/maxwin/BulkDock/OUTPUTS/openbind_d68ev3c_c2_elabs_1LOTQJ3.sdf', '/opt/xchem-fragalysis-2/maxwin/BulkDock/OUTPUTS/openbind_d68ev3c_c2_elabs_1LSYI5W.sdf']

$$$$
P139024
     RDKit          3D

 26 27  0  0  0  0  0  0  0  0999 V2000
   -9.7040    1.4706    4.9085 O   0  0  0  0  0  0  0  0  0  0  0  0
   -9.4908    0.9108    5.9820 C   0  0  0  0  0  0  0  0  0  0  0  0
   -9.6895   -0.5962    6.2011 C   0  0  0  0  0  0  0  0  0  0  0  0
   -8.6816   -1.1640    7.1303 N   0  0  0  0  0  0  0  0  0  0  0  0
   -8.9662   -2.6020    7.3718 C   0  0  0  0  0  0  0  0  0  0  0  0
   -8.4396   -3.5335    6.2688 C   0  0  0  0  0  0  0  0  0  0  0  0
   -6.9281   -3.4583    6.0872 C   0  0  0  0  0  0  0  0  0  0  0  0
   -6.5040   -2.1127    5.8259 N   0  0  0  0  0  0  0  0  0  0  0  0
   -5.1422   -1.5643    5.4420 C   0  0  0  0  0  0  0  0  0  0  0  0
   -4.1536   -2.1132    5.1978 O   0  0  0  0  0  0  0  0  0  0  0  0
   -5.1509   -0.0970    5.4174 C   0  0  0  0  0  0  0  0  0  0  0  0
   -5.4592    0.5993    4.2459 C   0  0  0  0  0  0  0  0  0  0  0  0
   -5.7771   -0.1120    3.0228 N   0  0  0  0  0  0  0  0  0  0  0  0
   -5.0692    0.1352    2.0364 O   0  0  0  0  0  0  0  0  0  0  0  0
   -6.7417   -0.8844    3.0414 O   0  0  0  0  0  0  0  0  0  0  0  0
   -5.3999    1.9956    4.2010 C   0  0  0  0  0  0  0  0  0  0  0  0
   -5.0199    2.6947    5.3450 C   0  0  0  0  0  0  0  0  0  0  0  0
   -4.6916    2.0027    6.5155 C   0  0  0  0  0  0  0  0  0  0  0  0
   -4.7383    0.5959    6.5651 C   0  0  0  0  0  0  0  0  0  0  0  0
   -4.3579   -0.1403    7.8271 C   0  0  0  0  0  0  0  0  0  0  0  0
   -3.7077    0.6711    8.7050 F   0  0  0  0  0  0  0  0  0  0  0  0
   -5.4444   -0.6075    8.4947 F   0  0  0  0  0  0  0  0  0  0  0  0
   -3.5259   -1.1936    7.6344 F   0  0  0  0  0  0  0  0  0  0  0  0
   -8.7487   -0.4207    8.3967 C   0  0  0  0  0  0  0  0  0  0  0  0
   -8.4381    1.0667    8.1942 C   0  0  0  0  0  0  0  0  0  0  0  0
   -9.1399    1.6590    7.0786 N   0  0  0  0  0  0  0  0  0  0  0  0
  1  2  2  0
  2  3  1  0
  3  4  1  0
  4  5  1  0
  5  6  1  0
  6  7  1  0
  7  8  1  0
  8  9  1  0
  9 10  2  0
  9 11  1  0
 11 12  2  0
 12 13  1  0
 13 14  2  0
 13 15  1  0
 12 16  1  0
 16 17  2  0
 17 18  1  0
 18 19  2  0
 19 20  1  0
 20 21  1  0
 20 22  1  0
 20 23  1  0
  4 24  1  0
 24 25  1  0
 25 26  1  0
 26  2  1  0
 19 11  1  0
M  CHG  2  13   1  15  -1
M  END
>  <ref_mols>  (2036) 
7gpj-a

>  <gnina_score>  (2036) 
5.03

>  <smina_score_min>  (2036) 
-4.756

>  <ref_pdb>  (2036) 
7gpj-a

>  <inspiration_score>  (2036) 
None

>  <inchikey>  (2036) 
BSZDMLXBBXKRTR-UHFFFAOYSA-N

>  <tags>  (2036) 
BulkDock Fragalysis export,openbind_d68ev3c_c2_elabs_scored,openbind_d68ev3c_c2_elabs_scored_4.5plus,openbind_d68ev3c_c2_elabs,openbind_d68ev3c_c2_elabs_scored_5plus,syndirella_product,openbind_d68ev3c_c2_elabs_scored_top80percent,syndirella_placed

>  <smiles>  (2036) 
O=C1CN(CCCNC(=O)c2c([N+](=O)[O-])cccc2C(F)(F)F)CCN1

>  <subsites>  (2036) 
None

>  <rmsd(smina/fragmenstein)>  (2036) 
0.991

>  <alias>  (2036) 
None

>  <energy_score>  (2036) 
-51.44604

>  <HIPPO Pose ID>  (2036) 
139024

>  <distance_score>  (2036) 
0.8945

>  <HIPPO Compound ID>  (2036) 
164855

>  <gnina_score_min>  (2036) 
5.017

>  <name>  (2036) 
P139024

>  <exports>  (2036) 
['/opt/xchem-fragalysis-2/maxwin/BulkDock/OUTPUTS/openbind_d68ev3c_c2_elabs_1LOTQJ3.sdf', '/opt/xchem-fragalysis-2/maxwin/BulkDock/OUTPUTS/openbind_d68ev3c_c2_elabs_1LSYI5W.sdf']

$$$$
P139025
     RDKit          3D

 26 29  0  0  0  0  0  0  0  0999 V2000
  -10.6399   -0.6993   10.0629 O   0  0  0  0  0  0  0  0  0  0  0  0
  -10.2837   -0.5655    8.8924 C   0  0  0  0  0  0  0  0  0  0  0  0
   -9.7930   -1.7250    7.9994 C   0  0  0  0  0  0  0  0  0  0  0  0
   -8.9551   -1.2934    6.8659 N   0  0  0  0  0  0  0  0  0  0  0  0
   -8.6084   -2.4685    6.0132 C   0  0  0  0  0  0  0  0  0  0  0  0
   -7.6061   -2.0860    4.9219 C   0  0  0  0  0  0  0  0  0  0  0  0
   -6.5947   -1.8963    6.0790 N   0  0  0  0  0  0  0  0  0  0  0  0
   -5.2104   -1.7332    5.5710 C   0  0  0  0  0  0  0  0  0  0  0  0
   -4.3844   -2.5327    5.3531 O   0  0  0  0  0  0  0  0  0  0  0  0
   -4.9541   -0.2806    5.4407 C   0  0  0  0  0  0  0  0  0  0  0  0
   -5.1789    0.3387    4.2088 C   0  0  0  0  0  0  0  0  0  0  0  0
   -5.0888    1.7288    4.1095 C   0  0  0  0  0  0  0  0  0  0  0  0
   -4.7741    2.5229    5.2242 C   0  0  0  0  0  0  0  0  0  0  0  0
   -4.7117    4.0271    5.1248 C   0  0  0  0  0  0  0  0  0  0  0  0
   -3.4676    4.7626    5.5663 C   0  0  0  0  0  0  0  0  0  0  0  0
   -3.8085    4.6868    4.1094 C   0  0  0  0  0  0  0  0  0  0  0  0
   -4.5513    1.8677    6.4489 C   0  0  0  0  0  0  0  0  0  0  0  0
   -4.6206    0.4672    6.5716 C   0  0  0  0  0  0  0  0  0  0  0  0
   -4.3518   -0.2036    7.8904 C   0  0  0  0  0  0  0  0  0  0  0  0
   -3.6088   -1.3364    7.7828 F   0  0  0  0  0  0  0  0  0  0  0  0
   -3.6423    0.6061    8.7243 F   0  0  0  0  0  0  0  0  0  0  0  0
   -5.4815   -0.5303    8.5661 F   0  0  0  0  0  0  0  0  0  0  0  0
   -7.3294   -3.1237    6.5644 C   0  0  0  0  0  0  0  0  0  0  0  0
   -9.6477   -0.2352    6.1406 C   0  0  0  0  0  0  0  0  0  0  0  0
   -9.7457    0.9724    7.0780 C   0  0  0  0  0  0  0  0  0  0  0  0
  -10.4363    0.6647    8.3015 N   0  0  0  0  0  0  0  0  0  0  0  0
  1  2  2  0
  2  3  1  0
  3  4  1  0
  4  5  1  0
  5  6  1  0
  6  7  1  0
  7  8  1  0
  8  9  2  0
  8 10  1  0
 10 11  2  0
 11 12  1  0
 12 13  2  0
 13 14  1  0
 14 15  1  0
 15 16  1  0
 13 17  1  0
 17 18  2  0
 18 19  1  0
 19 20  1  0
 19 21  1  0
 19 22  1  0
  7 23  1  0
  4 24  1  0
 24 25  1  0
 25 26  1  0
 26  2  1  0
 23  5  1  0
 18 10  1  0
 16 14  1  0
M  END
>  <ref_mols>  (2037) 
7gpj-a

>  <gnina_score>  (2037) 
4.946

>  <smina_score_min>  (2037) 
-5.857

>  <ref_pdb>  (2037) 
7gpj-a

>  <inspiration_score>  (2037) 
None

>  <inchikey>  (2037) 
CKNKLPSBBOQWHK-UHFFFAOYSA-N

>  <tags>  (2037) 
BulkDock Fragalysis export,openbind_d68ev3c_c2_elabs_scored,openbind_d68ev3c_c2_elabs_scored_4.5plus,openbind_d68ev3c_c2_elabs,openbind_d68ev3c_c2_elabs_scored_5plus,syndirella_product,openbind_d68ev3c_c2_elabs_scored_top80percent,syndirella_placed

>  <smiles>  (2037) 
O=C1CN(C2CN(C(=O)c3ccc(C4CC4)cc3C(F)(F)F)C2)CCN1

>  <subsites>  (2037) 
None

>  <rmsd(smina/fragmenstein)>  (2037) 
0.99

>  <alias>  (2037) 
None

>  <energy_score>  (2037) 
-18.329496

>  <HIPPO Pose ID>  (2037) 
139025

>  <distance_score>  (2037) 
1.135327

>  <HIPPO Compound ID>  (2037) 
164886

>  <gnina_score_min>  (2037) 
5.199

>  <name>  (2037) 
P139025

>  <exports>  (2037) 
['/opt/xchem-fragalysis-2/maxwin/BulkDock/OUTPUTS/openbind_d68ev3c_c2_elabs_1LOTQJ3.sdf', '/opt/xchem-fragalysis-2/maxwin/BulkDock/OUTPUTS/openbind_d68ev3c_c2_elabs_1LSYI5W.sdf']

$$$$
P139026
     RDKit          3D

 26 28  0  0  0  0  0  0  0  0999 V2000
   -4.8399   -0.6182    3.8111 O   0  0  0  0  0  0  0  0  0  0  0  0
   -5.3332   -0.1047    4.7719 C   0  0  0  0  0  0  0  0  0  0  0  0
   -4.8018    1.2065    5.2168 C   0  0  0  0  0  0  0  0  0  0  0  0
   -4.6154    2.2264    4.2734 C   0  0  0  0  0  0  0  0  0  0  0  0
   -4.9205    2.0089    2.8740 N   0  0  0  0  0  0  0  0  0  0  0  0
   -3.9696    2.0348    2.0802 O   0  0  0  0  0  0  0  0  0  0  0  0
   -6.1157    1.8737    2.5796 O   0  0  0  0  0  0  0  0  0  0  0  0
   -4.1691    3.4971    4.6432 C   0  0  0  0  0  0  0  0  0  0  0  0
   -3.9050    3.7532    5.9844 C   0  0  0  0  0  0  0  0  0  0  0  0
   -4.0613    2.7414    6.9358 C   0  0  0  0  0  0  0  0  0  0  0  0
   -4.4866    1.4472    6.5693 C   0  0  0  0  0  0  0  0  0  0  0  0
   -4.5196    0.3567    7.6183 C   0  0  0  0  0  0  0  0  0  0  0  0
   -5.7458    0.1606    8.1676 F   0  0  0  0  0  0  0  0  0  0  0  0
   -3.6995    0.6475    8.6684 F   0  0  0  0  0  0  0  0  0  0  0  0
   -4.0815   -0.8514    7.1673 F   0  0  0  0  0  0  0  0  0  0  0  0
   -6.3898   -0.5288    5.5950 N   0  0  0  0  0  0  0  0  0  0  0  0
   -7.7192    0.0173    5.0687 C   0  0  0  0  0  0  0  0  0  0  0  0
   -8.9850    0.0692    5.9420 C   0  0  0  0  0  0  0  0  0  0  0  0
   -9.8890    0.8708    5.7241 O   0  0  0  0  0  0  0  0  0  0  0  0
   -9.0735   -0.9388    6.8728 N   0  0  0  0  0  0  0  0  0  0  0  0
  -10.3880   -1.3598    7.3155 C   0  0  0  0  0  0  0  0  0  0  0  0
  -10.8468   -2.5298    6.4303 C   0  0  0  0  0  0  0  0  0  0  0  0
   -9.8059   -3.4812    6.1122 O   0  0  0  0  0  0  0  0  0  0  0  0
   -8.6618   -3.3768    6.9606 C   0  0  0  0  0  0  0  0  0  0  0  0
   -8.0452   -1.9706    6.8666 C   0  0  1  0  0  0  0  0  0  0  0  0
   -7.1742   -1.8196    5.6076 C   0  0  0  0  0  0  0  0  0  0  0  0
  1  2  2  0
  2  3  1  0
  3  4  2  0
  4  5  1  0
  5  6  2  0
  5  7  1  0
  4  8  1  0
  8  9  2  0
  9 10  1  0
 10 11  2  0
 11 12  1  0
 12 13  1  0
 12 14  1  0
 12 15  1  0
  2 16  1  0
 16 17  1  0
 17 18  1  0
 18 19  2  0
 18 20  1  0
 20 21  1  0
 21 22  1  0
 22 23  1  0
 23 24  1  0
 25 24  1  6
 25 26  1  0
 11  3  1  0
 26 16  1  0
 25 20  1  0
M  CHG  2   5   1   7  -1
M  END
>  <ref_mols>  (2038) 
7gpj-a

>  <gnina_score>  (2038) 
4.97

>  <smina_score_min>  (2038) 
-4.626

>  <ref_pdb>  (2038) 
7gpj-a

>  <inspiration_score>  (2038) 
None

>  <inchikey>  (2038) 
DWULDHFLFBRKNB-SECBINFHSA-N

>  <tags>  (2038) 
BulkDock Fragalysis export,openbind_d68ev3c_c2_elabs_scored,openbind_d68ev3c_c2_elabs_scored_4.5plus,openbind_d68ev3c_c2_elabs,openbind_d68ev3c_c2_elabs_scored_5plus,syndirella_product,openbind_d68ev3c_c2_elabs_scored_top80percent,syndirella_placed

>  <smiles>  (2038) 
O=C(c1c([N+](=O)[O-])cccc1C(F)(F)F)N1CC(=O)N2CCOC[C@H]2C1

>  <subsites>  (2038) 
None

>  <rmsd(smina/fragmenstein)>  (2038) 
0.481

>  <alias>  (2038) 
None

>  <energy_score>  (2038) 
-2.599289

>  <HIPPO Pose ID>  (2038) 
139026

>  <distance_score>  (2038) 
1.787507

>  <HIPPO Compound ID>  (2038) 
164888

>  <gnina_score_min>  (2038) 
5.108

>  <name>  (2038) 
P139026

>  <exports>  (2038) 
['/opt/xchem-fragalysis-2/maxwin/BulkDock/OUTPUTS/openbind_d68ev3c_c2_elabs_1LOTQJ3.sdf', '/opt/xchem-fragalysis-2/maxwin/BulkDock/OUTPUTS/openbind_d68ev3c_c2_elabs_1LSYI5W.sdf']

$$$$
P139027
     RDKit          3D

 26 28  0  0  0  0  0  0  0  0999 V2000
   -8.8507    2.0381    7.4676 O   0  0  0  0  0  0  0  0  0  0  0  0
   -9.1420    0.8526    7.6119 C   0  0  0  0  0  0  0  0  0  0  0  0
   -9.1290   -0.1607    6.4591 C   0  0  0  0  0  0  0  0  0  0  0  0
   -8.6230   -1.4381    6.9600 N   0  0  0  0  0  0  0  0  0  0  0  0
   -8.2686   -2.4543    5.9329 C   0  0  0  0  0  0  0  0  0  0  0  0
   -7.3986   -1.8850    4.8116 C   0  0  0  0  0  0  0  0  0  0  0  0
   -6.3217   -1.7021    5.9105 N   0  0  0  0  0  0  0  0  0  0  0  0
   -5.0066   -1.3467    5.3296 C   0  0  0  0  0  0  0  0  0  0  0  0
   -4.1278   -2.0289    4.9744 O   0  0  0  0  0  0  0  0  0  0  0  0
   -4.8685    0.1166    5.3373 C   0  0  0  0  0  0  0  0  0  0  0  0
   -4.9161    0.8722    4.1632 C   0  0  0  0  0  0  0  0  0  0  0  0
   -4.9486    0.2416    2.8580 N   0  0  0  0  0  0  0  0  0  0  0  0
   -4.0653    0.5744    2.0541 O   0  0  0  0  0  0  0  0  0  0  0  0
   -5.8725   -0.5432    2.6173 O   0  0  0  0  0  0  0  0  0  0  0  0
   -4.8628    2.2691    4.2051 C   0  0  0  0  0  0  0  0  0  0  0  0
   -4.7457    2.9078    5.4368 C   0  0  0  0  0  0  0  0  0  0  0  0
   -4.6474    2.1564    6.6109 C   0  0  0  0  0  0  0  0  0  0  0  0
   -4.6831    0.7502    6.5779 C   0  0  0  0  0  0  0  0  0  0  0  0
   -4.4695   -0.0416    7.8491 C   0  0  0  0  0  0  0  0  0  0  0  0
   -3.7087    0.6574    8.7364 F   0  0  0  0  0  0  0  0  0  0  0  0
   -3.7972   -1.2102    7.6674 F   0  0  0  0  0  0  0  0  0  0  0  0
   -5.6176   -0.3440    8.5033 F   0  0  0  0  0  0  0  0  0  0  0  0
   -6.8925   -3.0410    6.3150 C   0  0  0  0  0  0  0  0  0  0  0  0
   -9.5268   -1.9925    7.9586 C   0  0  0  0  0  0  0  0  0  0  0  0
  -10.1674   -0.9344    8.8976 C   0  0  0  0  0  0  0  0  0  0  0  0
   -9.5433    0.3641    8.8263 N   0  0  0  0  0  0  0  0  0  0  0  0
  1  2  2  0
  2  3  1  0
  3  4  1  0
  4  5  1  0
  5  6  1  0
  6  7  1  0
  7  8  1  0
  8  9  2  0
  8 10  1  0
 10 11  2  0
 11 12  1  0
 12 13  2  0
 12 14  1  0
 11 15  1  0
 15 16  2  0
 16 17  1  0
 17 18  2  0
 18 19  1  0
 19 20  1  0
 19 21  1  0
 19 22  1  0
  7 23  1  0
  4 24  1  0
 24 25  1  0
 25 26  1  0
 26  2  1  0
 23  5  1  0
 18 10  1  0
M  CHG  2  12   1  14  -1
M  END
>  <ref_mols>  (2039) 
7gpj-a

>  <gnina_score>  (2039) 
4.543

>  <smina_score_min>  (2039) 
-4.848

>  <ref_pdb>  (2039) 
7gpj-a

>  <inspiration_score>  (2039) 
None

>  <inchikey>  (2039) 
GKNXHGRBYINWEM-UHFFFAOYSA-N

>  <tags>  (2039) 
BulkDock Fragalysis export,openbind_d68ev3c_c2_elabs_scored,openbind_d68ev3c_c2_elabs_scored_4.5plus,openbind_d68ev3c_c2_elabs,openbind_d68ev3c_c2_elabs_scored_5plus,syndirella_product,openbind_d68ev3c_c2_elabs_scored_top80percent,syndirella_placed

>  <smiles>  (2039) 
O=C1CN(C2CN(C(=O)c3c([N+](=O)[O-])cccc3C(F)(F)F)C2)CCN1

>  <subsites>  (2039) 
None

>  <rmsd(smina/fragmenstein)>  (2039) 
1.097

>  <alias>  (2039) 
None

>  <energy_score>  (2039) 
-33.125077

>  <HIPPO Pose ID>  (2039) 
139027

>  <distance_score>  (2039) 
1.083951

>  <HIPPO Compound ID>  (2039) 
164889

>  <gnina_score_min>  (2039) 
5.004

>  <name>  (2039) 
P139027

>  <exports>  (2039) 
['/opt/xchem-fragalysis-2/maxwin/BulkDock/OUTPUTS/openbind_d68ev3c_c2_elabs_1LOTQJ3.sdf', '/opt/xchem-fragalysis-2/maxwin/BulkDock/OUTPUTS/openbind_d68ev3c_c2_elabs_1LSYI5W.sdf']

$$$$
P139029
     RDKit          3D

 26 27  0  0  0  0  0  0  0  0999 V2000
   -7.9136   -0.7933    7.8457 C   0  0  0  0  0  0  0  0  0  0  0  0
   -9.1970   -1.6068    7.7381 C   0  0  1  0  0  0  0  0  0  0  0  0
  -10.3673   -0.6294    7.9938 C   0  0  0  0  0  0  0  0  0  0  0  0
  -10.3523    0.2186    8.8889 O   0  0  0  0  0  0  0  0  0  0  0  0
  -11.4960   -0.7418    7.2256 N   0  0  0  0  0  0  0  0  0  0  0  0
  -11.4696   -1.4154    5.9510 C   0  0  0  0  0  0  0  0  0  0  0  0
  -10.5628   -2.6423    5.9791 C   0  0  0  0  0  0  0  0  0  0  0  0
   -9.2073   -2.2720    6.4094 N   0  0  0  0  0  0  0  0  0  0  0  0
   -8.3136   -3.4588    6.3689 C   0  0  0  0  0  0  0  0  0  0  0  0
   -7.3980   -3.3581    5.1363 C   0  0  0  0  0  0  0  0  0  0  0  0
   -6.7910   -2.0468    5.0795 N   0  0  0  0  0  0  0  0  0  0  0  0
   -5.3440   -1.6093    5.3190 C   0  0  0  0  0  0  0  0  0  0  0  0
   -4.3915   -2.2399    5.5249 O   0  0  0  0  0  0  0  0  0  0  0  0
   -5.2118   -0.1290    5.3284 C   0  0  0  0  0  0  0  0  0  0  0  0
   -5.6137    0.6413    4.2287 C   0  0  0  0  0  0  0  0  0  0  0  0
   -6.1167    0.0102    3.0319 N   0  0  0  0  0  0  0  0  0  0  0  0
   -5.2814   -0.4073    2.2224 O   0  0  0  0  0  0  0  0  0  0  0  0
   -7.3462   -0.0231    2.9005 O   0  0  0  0  0  0  0  0  0  0  0  0
   -5.5149    2.0367    4.2153 C   0  0  0  0  0  0  0  0  0  0  0  0
   -4.9922    2.6820    5.3286 C   0  0  0  0  0  0  0  0  0  0  0  0
   -4.5640    1.9347    6.4285 C   0  0  0  0  0  0  0  0  0  0  0  0
   -4.6478    0.5227    6.4444 C   0  0  0  0  0  0  0  0  0  0  0  0
   -4.1171   -0.2249    7.6523 C   0  0  0  0  0  0  0  0  0  0  0  0
   -3.6000    0.6306    8.5808 F   0  0  0  0  0  0  0  0  0  0  0  0
   -5.0606   -0.9322    8.3148 F   0  0  0  0  0  0  0  0  0  0  0  0
   -3.1009   -1.0773    7.3676 F   0  0  0  0  0  0  0  0  0  0  0  0
  2  1  1  6
  2  3  1  0
  3  4  2  0
  3  5  1  0
  5  6  1  0
  6  7  1  0
  7  8  1  0
  8  9  1  0
  9 10  1  0
 10 11  1  0
 11 12  1  0
 12 13  2  0
 12 14  1  0
 14 15  2  0
 15 16  1  0
 16 17  2  0
 16 18  1  0
 15 19  1  0
 19 20  2  0
 20 21  1  0
 21 22  2  0
 22 23  1  0
 23 24  1  0
 23 25  1  0
 23 26  1  0
  8  2  1  0
 22 14  1  0
M  CHG  2  16   1  18  -1
M  END
>  <ref_mols>  (2040) 
7gpj-a

>  <gnina_score>  (2040) 
5.222

>  <smina_score_min>  (2040) 
-4.973

>  <ref_pdb>  (2040) 
7gpj-a

>  <inspiration_score>  (2040) 
None

>  <inchikey>  (2040) 
GCSZUGPTVHPVTB-VIFPVBQESA-N

>  <tags>  (2040) 
BulkDock Fragalysis export,openbind_d68ev3c_c2_elabs_scored,openbind_d68ev3c_c2_elabs_scored_4.5plus,openbind_d68ev3c_c2_elabs,openbind_d68ev3c_c2_elabs_scored_5plus,syndirella_product,openbind_d68ev3c_c2_elabs_scored_top80percent,syndirella_placed

>  <smiles>  (2040) 
C[C@H]1C(=O)NCCN1CCNC(=O)c1c([N+](=O)[O-])cccc1C(F)(F)F

>  <subsites>  (2040) 
None

>  <rmsd(smina/fragmenstein)>  (2040) 
0.881

>  <alias>  (2040) 
None

>  <energy_score>  (2040) 
-51.852541

>  <HIPPO Pose ID>  (2040) 
139029

>  <distance_score>  (2040) 
0.778385

>  <HIPPO Compound ID>  (2040) 
164890

>  <gnina_score_min>  (2040) 
5.191

>  <name>  (2040) 
P139029

>  <exports>  (2040) 
['/opt/xchem-fragalysis-2/maxwin/BulkDock/OUTPUTS/openbind_d68ev3c_c2_elabs_1LOTQJ3.sdf', '/opt/xchem-fragalysis-2/maxwin/BulkDock/OUTPUTS/openbind_d68ev3c_c2_elabs_1LSYI5W.sdf']

$$$$
P139030
     RDKit          3D

 26 29  0  0  0  0  0  0  0  0999 V2000
   -5.4074    4.1960    2.5997 C   0  0  0  0  0  0  0  0  0  0  0  0
   -4.9858    3.9065    3.9463 N   0  0  0  0  0  0  0  0  0  0  0  0
   -4.4352    4.8012    4.8188 C   0  0  0  0  0  0  0  0  0  0  0  0
   -4.1545    4.2392    5.9726 N   0  0  0  0  0  0  0  0  0  0  0  0
   -4.5262    2.9293    5.8325 C   0  0  0  0  0  0  0  0  0  0  0  0
   -4.4288    1.8715    6.7434 C   0  0  0  0  0  0  0  0  0  0  0  0
   -4.8562    0.5656    6.3863 C   0  0  0  0  0  0  0  0  0  0  0  0
   -4.6042   -0.5205    7.3973 C   0  0  0  0  0  0  0  0  0  0  0  0
   -4.1750   -1.6908    6.8524 F   0  0  0  0  0  0  0  0  0  0  0  0
   -3.6097   -0.1684    8.2704 F   0  0  0  0  0  0  0  0  0  0  0  0
   -5.6794   -0.8040    8.1756 F   0  0  0  0  0  0  0  0  0  0  0  0
   -5.4460    0.3653    5.1249 C   0  0  0  0  0  0  0  0  0  0  0  0
   -6.1425   -0.8730    4.6300 C   0  0  0  0  0  0  0  0  0  0  0  0
   -6.1486   -1.0359    3.4661 O   0  0  0  0  0  0  0  0  0  0  0  0
   -6.8087   -1.6554    5.7236 N   0  0  0  0  0  0  0  0  0  0  0  0
   -7.6118   -2.9598    5.6715 C   0  0  2  0  0  0  0  0  0  0  0  0
   -8.5476   -3.2277    4.4591 C   0  0  0  0  0  0  0  0  0  0  0  0
   -9.1458   -1.9906    3.8414 C   0  0  0  0  0  0  0  0  0  0  0  0
   -9.2107   -0.8865    4.8600 C   0  0  0  0  0  0  0  0  0  0  0  0
   -8.2244   -1.1049    6.0246 C   0  0  1  0  0  0  0  0  0  0  0  0
   -8.9562   -1.4254    7.3671 C   0  0  0  0  0  0  0  0  0  0  0  0
   -9.5149   -0.5794    8.0558 O   0  0  0  0  0  0  0  0  0  0  0  0
   -9.0473   -2.7569    7.6347 N   0  0  0  0  0  0  0  0  0  0  0  0
   -8.0994   -3.5972    6.9887 C   0  0  0  0  0  0  0  0  0  0  0  0
   -5.5319    1.4347    4.1953 C   0  0  0  0  0  0  0  0  0  0  0  0
   -5.0578    2.6893    4.5758 C   0  0  0  0  0  0  0  0  0  0  0  0
  1  2  1  0
  2  3  1  0
  3  4  2  0
  4  5  1  0
  5  6  2  0
  6  7  1  0
  7  8  1  0
  8  9  1  0
  8 10  1  0
  8 11  1  0
  7 12  2  0
 12 13  1  0
 13 14  2  0
 13 15  1  0
 15 16  1  0
 16 17  1  6
 17 18  1  0
 18 19  1  0
 20 19  1  6
 20 21  1  0
 21 22  2  0
 21 23  1  0
 23 24  1  0
 12 25  1  0
 25 26  2  0
 26  2  1  0
 26  5  1  0
 20 15  1  0
 24 16  1  0
M  END
>  <ref_mols>  (2041) 
7gpj-a

>  <gnina_score>  (2041) 
5.177

>  <smina_score_min>  (2041) 
-5.634

>  <ref_pdb>  (2041) 
7gpj-a

>  <inspiration_score>  (2041) 
None

>  <inchikey>  (2041) 
QMHYVVHXNDIBMM-RNCFNFMXSA-N

>  <tags>  (2041) 
BulkDock Fragalysis export,openbind_d68ev3c_c2_elabs_scored,openbind_d68ev3c_c2_elabs_scored_4.5plus,openbind_d68ev3c_c2_elabs,openbind_d68ev3c_c2_elabs_scored_5plus,syndirella_product,openbind_d68ev3c_c2_elabs_scored_top80percent,syndirella_placed

>  <smiles>  (2041) 
Cn1cnc2cc(C(F)(F)F)c(C(=O)N3[C@@H]4CCC[C@H]3C(=O)NC4)cc21

>  <subsites>  (2041) 
None

>  <rmsd(smina/fragmenstein)>  (2041) 
0.769

>  <alias>  (2041) 
None

>  <energy_score>  (2041) 
-54.685078

>  <HIPPO Pose ID>  (2041) 
139030

>  <distance_score>  (2041) 
0.834344

>  <HIPPO Compound ID>  (2041) 
164899

>  <gnina_score_min>  (2041) 
5.292

>  <name>  (2041) 
P139030

>  <exports>  (2041) 
['/opt/xchem-fragalysis-2/maxwin/BulkDock/OUTPUTS/openbind_d68ev3c_c2_elabs_1LOTQJ3.sdf', '/opt/xchem-fragalysis-2/maxwin/BulkDock/OUTPUTS/openbind_d68ev3c_c2_elabs_1LSYI5W.sdf']

$$$$
P139032
     RDKit          3D

 27 29  0  0  0  0  0  0  0  0999 V2000
   -9.4347   -0.4968    8.2013 O   0  0  0  0  0  0  0  0  0  0  0  0
   -8.9090   -1.3276    7.4698 C   0  0  0  0  0  0  0  0  0  0  0  0
   -9.0172   -2.6657    7.6928 N   0  0  0  0  0  0  0  0  0  0  0  0
   -8.1550   -3.5192    6.9501 C   0  0  0  0  0  0  0  0  0  0  0  0
   -7.6564   -2.8338    5.6603 C   0  0  1  0  0  0  0  0  0  0  0  0
   -8.5909   -2.9831    4.4271 C   0  0  0  0  0  0  0  0  0  0  0  0
   -9.7696   -2.0480    4.5012 C   0  0  0  0  0  0  0  0  0  0  0  0
   -9.2402   -0.7281    4.9896 C   0  0  0  0  0  0  0  0  0  0  0  0
   -8.2176   -0.9743    6.1184 C   0  0  2  0  0  0  0  0  0  0  0  0
   -6.8165   -1.5464    5.7531 N   0  0  0  0  0  0  0  0  0  0  0  0
   -6.1585   -0.7281    4.6794 C   0  0  0  0  0  0  0  0  0  0  0  0
   -6.1979   -0.8353    3.5100 O   0  0  0  0  0  0  0  0  0  0  0  0
   -5.4210    0.4663    5.2154 C   0  0  0  0  0  0  0  0  0  0  0  0
   -5.4909    1.5922    4.3602 C   0  0  0  0  0  0  0  0  0  0  0  0
   -5.0242    2.8433    4.7540 C   0  0  0  0  0  0  0  0  0  0  0  0
   -4.4762    2.9870    6.0162 C   0  0  0  0  0  0  0  0  0  0  0  0
   -4.1196    4.2190    6.4821 O   0  0  0  0  0  0  0  0  0  0  0  0
   -2.7589    4.5195    6.1832 C   0  0  0  0  0  0  0  0  0  0  0  0
   -2.4330    5.6819    6.7908 F   0  0  0  0  0  0  0  0  0  0  0  0
   -1.9305    3.5550    6.6463 F   0  0  0  0  0  0  0  0  0  0  0  0
   -2.5953    4.6806    4.8551 F   0  0  0  0  0  0  0  0  0  0  0  0
   -4.3894    1.8914    6.8716 C   0  0  0  0  0  0  0  0  0  0  0  0
   -4.8214    0.6039    6.4761 C   0  0  0  0  0  0  0  0  0  0  0  0
   -4.5836   -0.5235    7.4427 C   0  0  0  0  0  0  0  0  0  0  0  0
   -3.5766   -0.2143    8.3173 F   0  0  0  0  0  0  0  0  0  0  0  0
   -4.1780   -1.6804    6.8550 F   0  0  0  0  0  0  0  0  0  0  0  0
   -5.6571   -0.8118    8.2201 F   0  0  0  0  0  0  0  0  0  0  0  0
  1  2  2  0
  2  3  1  0
  3  4  1  0
  5  4  1  1
  5  6  1  0
  6  7  1  0
  7  8  1  0
  9  8  1  6
  9 10  1  0
 10 11  1  0
 11 12  2  0
 11 13  1  0
 13 14  2  0
 14 15  1  0
 15 16  2  0
 16 17  1  0
 17 18  1  0
 18 19  1  0
 18 20  1  0
 18 21  1  0
 16 22  1  0
 22 23  2  0
 23 24  1  0
 24 25  1  0
 24 26  1  0
 24 27  1  0
  9  2  1  0
 23 13  1  0
 10  5  1  0
M  END
>  <ref_mols>  (2042) 
7gpj-a

>  <gnina_score>  (2042) 
5.303

>  <smina_score_min>  (2042) 
-5.62

>  <ref_pdb>  (2042) 
7gpj-a

>  <inspiration_score>  (2042) 
None

>  <inchikey>  (2042) 
FXRFKTQPOHHMTJ-PELKAZGASA-N

>  <tags>  (2042) 
BulkDock Fragalysis export,openbind_d68ev3c_c2_elabs_scored,openbind_d68ev3c_c2_elabs_scored_4.5plus,openbind_d68ev3c_c2_elabs,openbind_d68ev3c_c2_elabs_scored_5plus,syndirella_product,openbind_d68ev3c_c2_elabs_scored_top80percent,syndirella_placed

>  <smiles>  (2042) 
O=C1NC[C@H]2CCC[C@@H]1N2C(=O)c1ccc(OC(F)(F)F)cc1C(F)(F)F

>  <subsites>  (2042) 
None

>  <rmsd(smina/fragmenstein)>  (2042) 
0.648

>  <alias>  (2042) 
None

>  <energy_score>  (2042) 
-71.642018

>  <HIPPO Pose ID>  (2042) 
139032

>  <distance_score>  (2042) 
0.900243

>  <HIPPO Compound ID>  (2042) 
164924

>  <gnina_score_min>  (2042) 
5.343

>  <name>  (2042) 
P139032

>  <exports>  (2042) 
['/opt/xchem-fragalysis-2/maxwin/BulkDock/OUTPUTS/openbind_d68ev3c_c2_elabs_1LOTQJ3.sdf', '/opt/xchem-fragalysis-2/maxwin/BulkDock/OUTPUTS/openbind_d68ev3c_c2_elabs_1LSYI5W.sdf']

$$$$
P139036
     RDKit          3D

 27 29  0  0  0  0  0  0  0  0999 V2000
  -10.1337   -0.2762    4.5852 C   0  0  0  0  0  0  0  0  0  0  0  0
   -9.1881   -1.4710    4.6654 C   0  0  0  0  0  0  0  0  0  0  0  0
   -8.2272   -1.3951    5.8955 C   0  0  1  0  0  0  0  0  0  0  0  0
   -8.9474   -1.6034    7.2554 C   0  0  0  0  0  0  0  0  0  0  0  0
   -9.4373   -0.6999    7.9217 O   0  0  0  0  0  0  0  0  0  0  0  0
   -9.0651   -2.9172    7.5937 N   0  0  0  0  0  0  0  0  0  0  0  0
   -8.1020   -3.8016    7.0301 C   0  0  0  0  0  0  0  0  0  0  0  0
   -7.4489   -3.2192    5.7709 C   0  0  0  0  0  0  0  0  0  0  0  0
   -6.7439   -1.8727    5.7694 N   0  0  0  0  0  0  0  0  0  0  0  0
   -6.0312   -1.1443    4.6694 C   0  0  0  0  0  0  0  0  0  0  0  0
   -5.9200   -1.4083    3.5305 O   0  0  0  0  0  0  0  0  0  0  0  0
   -5.4680    0.1726    5.1153 C   0  0  0  0  0  0  0  0  0  0  0  0
   -5.6226    1.2011    4.1633 C   0  0  0  0  0  0  0  0  0  0  0  0
   -5.2462    2.5142    4.4402 C   0  0  0  0  0  0  0  0  0  0  0  0
   -4.7194    2.8490    5.6877 C   0  0  0  0  0  0  0  0  0  0  0  0
   -4.3385    4.2289    6.0026 C   0  0  0  0  0  0  0  0  0  0  0  0
   -3.3544    4.9045    5.2713 C   0  0  0  0  0  0  0  0  0  0  0  0
   -3.0128    6.2150    5.5989 C   0  0  0  0  0  0  0  0  0  0  0  0
   -3.6732    6.8214    6.6537 C   0  0  0  0  0  0  0  0  0  0  0  0
   -4.6320    6.2159    7.3842 N   0  0  0  0  0  0  0  0  0  0  0  0
   -4.9357    4.9392    7.0457 C   0  0  0  0  0  0  0  0  0  0  0  0
   -4.5559    1.8220    6.6308 C   0  0  0  0  0  0  0  0  0  0  0  0
   -4.8953    0.4727    6.3586 C   0  0  0  0  0  0  0  0  0  0  0  0
   -4.5801   -0.5493    7.4178 C   0  0  0  0  0  0  0  0  0  0  0  0
   -3.6000   -0.1023    8.2633 F   0  0  0  0  0  0  0  0  0  0  0  0
   -5.6348   -0.8472    8.2173 F   0  0  0  0  0  0  0  0  0  0  0  0
   -4.0962   -1.7214    6.9269 F   0  0  0  0  0  0  0  0  0  0  0  0
  1  2  1  0
  3  2  1  6
  3  4  1  0
  4  5  2  0
  4  6  1  0
  6  7  1  0
  7  8  1  0
  8  9  1  0
  9 10  1  0
 10 11  2  0
 10 12  1  0
 12 13  2  0
 13 14  1  0
 14 15  2  0
 15 16  1  0
 16 17  2  0
 17 18  1  0
 18 19  2  0
 19 20  1  0
 20 21  2  0
 15 22  1  0
 22 23  2  0
 23 24  1  0
 24 25  1  0
 24 26  1  0
 24 27  1  0
  9  3  1  0
 23 12  1  0
 21 16  1  0
M  END
>  <ref_mols>  (2043) 
7gpj-a

>  <gnina_score>  (2043) 
5.36

>  <smina_score_min>  (2043) 
-5.703

>  <ref_pdb>  (2043) 
7gpj-a

>  <inspiration_score>  (2043) 
None

>  <inchikey>  (2043) 
CCCTYBGOCWMFKU-INIZCTEOSA-N

>  <tags>  (2043) 
BulkDock Fragalysis export,openbind_d68ev3c_c2_elabs_scored,openbind_d68ev3c_c2_elabs_scored_4.5plus,openbind_d68ev3c_c2_elabs,openbind_d68ev3c_c2_elabs_scored_5plus,syndirella_product,openbind_d68ev3c_c2_elabs_scored_top80percent,syndirella_placed

>  <smiles>  (2043) 
CC[C@H]1C(=O)NCCN1C(=O)c1ccc(-c2cccnc2)cc1C(F)(F)F

>  <subsites>  (2043) 
None

>  <rmsd(smina/fragmenstein)>  (2043) 
0.972

>  <alias>  (2043) 
None

>  <energy_score>  (2043) 
-35.846714

>  <HIPPO Pose ID>  (2043) 
139036

>  <distance_score>  (2043) 
0.697251

>  <HIPPO Compound ID>  (2043) 
164966

>  <gnina_score_min>  (2043) 
5.468

>  <name>  (2043) 
P139036

>  <exports>  (2043) 
['/opt/xchem-fragalysis-2/maxwin/BulkDock/OUTPUTS/openbind_d68ev3c_c2_elabs_1LOTQJ3.sdf', '/opt/xchem-fragalysis-2/maxwin/BulkDock/OUTPUTS/openbind_d68ev3c_c2_elabs_1LSYI5W.sdf']

$$$$
P139037
     RDKit          3D

 27 31  0  0  0  0  0  0  0  0999 V2000
   -5.1194    0.0283    3.1552 O   0  0  0  0  0  0  0  0  0  0  0  0
   -5.5682    0.2314    4.2490 C   0  0  0  0  0  0  0  0  0  0  0  0
   -5.1264    1.4724    4.9599 C   0  0  0  0  0  0  0  0  0  0  0  0
   -4.6061    1.3984    6.2686 C   0  0  0  0  0  0  0  0  0  0  0  0
   -4.4178    0.1111    7.0292 C   0  0  0  0  0  0  0  0  0  0  0  0
   -5.5000   -0.2232    7.7753 F   0  0  0  0  0  0  0  0  0  0  0  0
   -4.0998   -0.9721    6.2692 F   0  0  0  0  0  0  0  0  0  0  0  0
   -3.3891    0.2009    7.9287 F   0  0  0  0  0  0  0  0  0  0  0  0
   -4.2359    2.5931    6.9046 C   0  0  0  0  0  0  0  0  0  0  0  0
   -4.3543    3.8193    6.2572 C   0  0  0  0  0  0  0  0  0  0  0  0
   -4.8593    3.9017    4.9569 C   0  0  0  0  0  0  0  0  0  0  0  0
   -4.9711    5.1588    4.3389 C   0  0  0  0  0  0  0  0  0  0  0  0
   -5.4858    5.2852    3.0515 C   0  0  0  0  0  0  0  0  0  0  0  0
   -5.8974    4.1533    2.3663 C   0  0  0  0  0  0  0  0  0  0  0  0
   -5.7882    2.8977    2.9697 C   0  0  0  0  0  0  0  0  0  0  0  0
   -5.2606    2.7271    4.2782 C   0  0  0  0  0  0  0  0  0  0  0  0
   -6.5283   -0.4876    4.9973 N   0  0  0  0  0  0  0  0  0  0  0  0
   -7.9600    0.0690    4.7097 C   0  0  0  0  0  0  0  0  0  0  0  0
   -9.0476   -0.1117    5.8040 C   0  0  0  0  0  0  0  0  0  0  0  0
   -9.8248    0.7631    6.1597 O   0  0  0  0  0  0  0  0  0  0  0  0
   -9.0638   -1.3967    6.2445 N   0  0  0  0  0  0  0  0  0  0  0  0
   -9.7061   -1.9559    7.4182 C   0  0  0  0  0  0  0  0  0  0  0  0
   -8.7646   -3.1751    7.5307 C   0  0  1  0  0  0  0  0  0  0  0  0
   -8.5866   -3.7321    6.0749 C   0  0  0  0  0  0  0  0  0  0  0  0
   -7.9732   -2.2976    5.9087 C   0  0  1  0  0  0  0  0  0  0  0  0
   -7.2174   -1.8050    4.7131 C   0  0  0  0  0  0  0  0  0  0  0  0
   -7.3145   -2.6214    7.2877 C   0  0  0  0  0  0  0  0  0  0  0  0
  1  2  2  0
  2  3  1  0
  3  4  2  0
  4  5  1  0
  5  6  1  0
  5  7  1  0
  5  8  1  0
  4  9  1  0
  9 10  2  0
 10 11  1  0
 11 12  2  0
 12 13  1  0
 13 14  2  0
 14 15  1  0
 15 16  2  0
  2 17  1  0
 17 18  1  0
 18 19  1  0
 19 20  2  0
 19 21  1  0
 21 22  1  0
 23 22  1  6
 23 24  1  0
 24 25  1  0
 25 26  1  6
 25 27  1  0
 16  3  1  0
 26 17  1  0
 16 11  1  0
 25 21  1  0
 27 23  1  0
M  END
>  <ref_mols>  (2044) 
7gpj-a

>  <gnina_score>  (2044) 
5.232

>  <smina_score_min>  (2044) 
-5.38

>  <ref_pdb>  (2044) 
7gpj-a

>  <inspiration_score>  (2044) 
None

>  <inchikey>  (2044) 
QGPUQRXWZSCJNO-HHCCDPJTSA-N

>  <tags>  (2044) 
BulkDock Fragalysis export,openbind_d68ev3c_c2_elabs_scored,openbind_d68ev3c_c2_elabs_scored_4.5plus,openbind_d68ev3c_c2_elabs,openbind_d68ev3c_c2_elabs_scored_5plus,syndirella_product,openbind_d68ev3c_c2_elabs_scored_top80percent,syndirella_placed

>  <smiles>  (2044) 
O=C(c1c(C(F)(F)F)ccc2ccccc12)N1CC(=O)N2C[C@H]3C[C@]2(C1)C3

>  <subsites>  (2044) 
None

>  <rmsd(smina/fragmenstein)>  (2044) 
1.389

>  <alias>  (2044) 
None

>  <energy_score>  (2044) 
-15.364897

>  <HIPPO Pose ID>  (2044) 
139037

>  <distance_score>  (2044) 
1.902842

>  <HIPPO Compound ID>  (2044) 
164975

>  <gnina_score_min>  (2044) 
5.206

>  <name>  (2044) 
P139037

>  <exports>  (2044) 
['/opt/xchem-fragalysis-2/maxwin/BulkDock/OUTPUTS/openbind_d68ev3c_c2_elabs_1LOTQJ3.sdf', '/opt/xchem-fragalysis-2/maxwin/BulkDock/OUTPUTS/openbind_d68ev3c_c2_elabs_1LSYI5W.sdf']

$$$$
P139038
     RDKit          3D

 27 29  0  0  0  0  0  0  0  0999 V2000
  -10.5432   -2.0280    4.3855 C   0  0  0  0  0  0  0  0  0  0  0  0
   -9.3379   -1.0681    4.2470 C   0  0  0  0  0  0  0  0  0  0  0  0
   -8.6776   -1.3549    2.8864 C   0  0  0  0  0  0  0  0  0  0  0  0
   -9.9495    0.3589    4.1256 C   0  0  0  0  0  0  0  0  0  0  0  0
   -8.3839   -1.0872    5.5523 C   0  0  1  0  0  0  0  0  0  0  0  0
   -9.2040   -1.2539    6.8829 C   0  0  0  0  0  0  0  0  0  0  0  0
   -9.8728   -0.3592    7.3892 O   0  0  0  0  0  0  0  0  0  0  0  0
   -9.2328   -2.5344    7.3607 N   0  0  0  0  0  0  0  0  0  0  0  0
   -8.2371   -3.4430    6.8900 C   0  0  0  0  0  0  0  0  0  0  0  0
   -7.6034   -2.9527    5.5840 C   0  0  0  0  0  0  0  0  0  0  0  0
   -6.8956   -1.6285    5.6332 N   0  0  0  0  0  0  0  0  0  0  0  0
   -6.0813   -0.9741    4.6675 C   0  0  0  0  0  0  0  0  0  0  0  0
   -5.8253   -1.2705    3.5334 O   0  0  0  0  0  0  0  0  0  0  0  0
   -5.4699    0.2934    5.2225 C   0  0  0  0  0  0  0  0  0  0  0  0
   -4.8684    0.2820    6.5000 C   0  0  0  0  0  0  0  0  0  0  0  0
   -4.6152   -0.9754    7.2907 C   0  0  0  0  0  0  0  0  0  0  0  0
   -3.5368   -0.8324    8.1210 F   0  0  0  0  0  0  0  0  0  0  0  0
   -5.6499   -1.3183    8.1007 F   0  0  0  0  0  0  0  0  0  0  0  0
   -4.3120   -2.0662    6.5353 F   0  0  0  0  0  0  0  0  0  0  0  0
   -4.4505    1.4973    7.0648 C   0  0  0  0  0  0  0  0  0  0  0  0
   -4.5602    2.6905    6.3618 C   0  0  0  0  0  0  0  0  0  0  0  0
   -5.0785    2.7106    5.0663 C   0  0  0  0  0  0  0  0  0  0  0  0
   -5.1370    3.9353    4.3801 C   0  0  0  0  0  0  0  0  0  0  0  0
   -5.6391    4.0117    3.0853 C   0  0  0  0  0  0  0  0  0  0  0  0
   -6.0824    2.8591    2.4600 C   0  0  0  0  0  0  0  0  0  0  0  0
   -6.0283    1.6360    3.1357 C   0  0  0  0  0  0  0  0  0  0  0  0
   -5.5367    1.5119    4.4612 C   0  0  0  0  0  0  0  0  0  0  0  0
  1  2  1  0
  2  3  1  0
  2  4  1  0
  5  2  1  6
  5  6  1  0
  6  7  2  0
  6  8  1  0
  8  9  1  0
  9 10  1  0
 10 11  1  0
 11 12  1  0
 12 13  2  0
 12 14  1  0
 14 15  2  0
 15 16  1  0
 16 17  1  0
 16 18  1  0
 16 19  1  0
 15 20  1  0
 20 21  2  0
 21 22  1  0
 22 23  2  0
 23 24  1  0
 24 25  2  0
 25 26  1  0
 26 27  2  0
 11  5  1  0
 27 14  1  0
 27 22  1  0
M  END
>  <ref_mols>  (2045) 
7gpj-a

>  <gnina_score>  (2045) 
5.383

>  <smina_score_min>  (2045) 
-5.418

>  <ref_pdb>  (2045) 
7gpj-a

>  <inspiration_score>  (2045) 
None

>  <inchikey>  (2045) 
QYGBKAFZIRYOGU-MRXNPFEDSA-N

>  <tags>  (2045) 
BulkDock Fragalysis export,openbind_d68ev3c_c2_elabs_scored,openbind_d68ev3c_c2_elabs_scored_4.5plus,openbind_d68ev3c_c2_elabs,openbind_d68ev3c_c2_elabs_scored_5plus,syndirella_product,openbind_d68ev3c_c2_elabs_scored_top80percent,syndirella_placed

>  <smiles>  (2045) 
CC(C)(C)[C@H]1C(=O)NCCN1C(=O)c1c(C(F)(F)F)ccc2ccccc12

>  <subsites>  (2045) 
None

>  <rmsd(smina/fragmenstein)>  (2045) 
0.918

>  <alias>  (2045) 
None

>  <energy_score>  (2045) 
-18.823794

>  <HIPPO Pose ID>  (2045) 
139038

>  <distance_score>  (2045) 
1.045948

>  <HIPPO Compound ID>  (2045) 
164984

>  <gnina_score_min>  (2045) 
5.569

>  <name>  (2045) 
P139038

>  <exports>  (2045) 
['/opt/xchem-fragalysis-2/maxwin/BulkDock/OUTPUTS/openbind_d68ev3c_c2_elabs_1LOTQJ3.sdf', '/opt/xchem-fragalysis-2/maxwin/BulkDock/OUTPUTS/openbind_d68ev3c_c2_elabs_1LSYI5W.sdf']

$$$$
P139039
     RDKit          3D

 27 30  0  0  0  0  0  0  0  0999 V2000
   -8.4309    1.4794    7.8958 C   0  0  0  0  0  0  0  0  0  0  0  0
   -8.5307   -0.0345    7.6031 C   0  0  1  0  0  0  0  0  0  0  0  0
   -9.6713   -0.2713    6.5842 C   0  0  0  0  0  0  0  0  0  0  0  0
  -10.3919    0.6144    6.1408 O   0  0  0  0  0  0  0  0  0  0  0  0
   -9.7900   -1.5951    6.2569 N   0  0  0  0  0  0  0  0  0  0  0  0
  -10.3550   -2.0397    5.0004 C   0  0  0  0  0  0  0  0  0  0  0  0
   -9.7717   -3.4375    4.8104 C   0  0  0  0  0  0  0  0  0  0  0  0
   -8.4537   -3.3738    5.5830 C   0  0  0  0  0  0  0  0  0  0  0  0
   -8.8492   -2.5365    6.7911 C   0  0  1  0  0  0  0  0  0  0  0  0
   -7.7063   -1.8842    7.5821 C   0  0  0  0  0  0  0  0  0  0  0  0
   -7.1035   -0.5767    7.1558 N   0  0  0  0  0  0  0  0  0  0  0  0
   -6.7741   -0.0849    5.8645 C   0  0  0  0  0  0  0  0  0  0  0  0
   -6.9761   -0.5506    4.7769 O   0  0  0  0  0  0  0  0  0  0  0  0
   -5.9600    1.1697    5.9263 C   0  0  0  0  0  0  0  0  0  0  0  0
   -4.8703    1.2443    6.8222 C   0  0  0  0  0  0  0  0  0  0  0  0
   -4.4292    0.0840    7.6852 C   0  0  0  0  0  0  0  0  0  0  0  0
   -3.1392    0.2374    8.1082 F   0  0  0  0  0  0  0  0  0  0  0  0
   -4.4255   -1.1223    7.0529 F   0  0  0  0  0  0  0  0  0  0  0  0
   -5.1505   -0.0552    8.8295 F   0  0  0  0  0  0  0  0  0  0  0  0
   -4.1545    2.4478    6.8981 C   0  0  0  0  0  0  0  0  0  0  0  0
   -4.4568    3.5173    6.0594 C   0  0  0  0  0  0  0  0  0  0  0  0
   -5.5054    3.4381    5.1382 C   0  0  0  0  0  0  0  0  0  0  0  0
   -5.7822    4.5398    4.3108 C   0  0  0  0  0  0  0  0  0  0  0  0
   -6.8418    4.5132    3.4078 C   0  0  0  0  0  0  0  0  0  0  0  0
   -7.6420    3.3846    3.3265 C   0  0  0  0  0  0  0  0  0  0  0  0
   -7.3729    2.2809    4.1399 C   0  0  0  0  0  0  0  0  0  0  0  0
   -6.2911    2.2633    5.0600 C   0  0  0  0  0  0  0  0  0  0  0  0
  2  1  1  6
  2  3  1  0
  3  4  2  0
  3  5  1  0
  5  6  1  0
  6  7  1  0
  7  8  1  0
  9  8  1  6
  9 10  1  0
 10 11  1  0
 11 12  1  0
 12 13  2  0
 12 14  1  0
 14 15  2  0
 15 16  1  0
 16 17  1  0
 16 18  1  0
 16 19  1  0
 15 20  1  0
 20 21  2  0
 21 22  1  0
 22 23  2  0
 23 24  1  0
 24 25  2  0
 25 26  1  0
 26 27  2  0
 11  2  1  0
 27 14  1  0
  9  5  1  0
 27 22  1  0
M  END
>  <ref_mols>  (2046) 
7gpj-a

>  <gnina_score>  (2046) 
5.313

>  <smina_score_min>  (2046) 
-4.785

>  <ref_pdb>  (2046) 
7gpj-a

>  <inspiration_score>  (2046) 
None

>  <inchikey>  (2046) 
VDWYIGJSZYGQRP-JSGCOSHPSA-N

>  <tags>  (2046) 
BulkDock Fragalysis export,openbind_d68ev3c_c2_elabs_scored,openbind_d68ev3c_c2_elabs_scored_4.5plus,openbind_d68ev3c_c2_elabs,openbind_d68ev3c_c2_elabs_scored_5plus,syndirella_product,openbind_d68ev3c_c2_elabs_scored_top80percent,syndirella_placed

>  <smiles>  (2046) 
C[C@H]1C(=O)N2CCC[C@H]2CN1C(=O)c1c(C(F)(F)F)ccc2ccccc12

>  <subsites>  (2046) 
None

>  <rmsd(smina/fragmenstein)>  (2046) 
0.642

>  <alias>  (2046) 
None

>  <energy_score>  (2046) 
-0.896095

>  <HIPPO Pose ID>  (2046) 
139039

>  <distance_score>  (2046) 
1.763775

>  <HIPPO Compound ID>  (2046) 
164987

>  <gnina_score_min>  (2046) 
5.294

>  <name>  (2046) 
P139039

>  <exports>  (2046) 
['/opt/xchem-fragalysis-2/maxwin/BulkDock/OUTPUTS/openbind_d68ev3c_c2_elabs_1LOTQJ3.sdf', '/opt/xchem-fragalysis-2/maxwin/BulkDock/OUTPUTS/openbind_d68ev3c_c2_elabs_1LSYI5W.sdf']

$$$$
P139040
     RDKit          3D

 27 29  0  0  0  0  0  0  0  0999 V2000
  -10.1359   -0.3149    7.5982 O   0  0  0  0  0  0  0  0  0  0  0  0
   -9.3860   -1.1034    7.0350 C   0  0  0  0  0  0  0  0  0  0  0  0
   -8.4813   -0.7096    5.8382 C   0  0  0  0  0  0  0  0  0  0  0  0
   -7.0749   -1.3054    5.6655 N   0  0  0  0  0  0  0  0  0  0  0  0
   -6.3034   -0.4917    4.7965 C   0  0  0  0  0  0  0  0  0  0  0  0
   -6.1604   -0.5382    3.6071 O   0  0  0  0  0  0  0  0  0  0  0  0
   -5.6568    0.6575    5.5101 C   0  0  0  0  0  0  0  0  0  0  0  0
   -4.8414    0.4261    6.6341 C   0  0  0  0  0  0  0  0  0  0  0  0
   -4.5214   -0.9493    7.1520 C   0  0  0  0  0  0  0  0  0  0  0  0
   -3.3626   -0.9656    7.8773 F   0  0  0  0  0  0  0  0  0  0  0  0
   -4.3272   -1.8834    6.1807 F   0  0  0  0  0  0  0  0  0  0  0  0
   -5.4787   -1.4370    7.9833 F   0  0  0  0  0  0  0  0  0  0  0  0
   -4.3018    1.5316    7.3060 C   0  0  0  0  0  0  0  0  0  0  0  0
   -4.5201    2.8287    6.8513 C   0  0  0  0  0  0  0  0  0  0  0  0
   -5.3085    3.0703    5.7236 C   0  0  0  0  0  0  0  0  0  0  0  0
   -5.5141    4.3936    5.2988 C   0  0  0  0  0  0  0  0  0  0  0  0
   -6.3142    4.6789    4.1961 C   0  0  0  0  0  0  0  0  0  0  0  0
   -6.9220    3.6419    3.5065 C   0  0  0  0  0  0  0  0  0  0  0  0
   -6.7221    2.3215    3.9181 C   0  0  0  0  0  0  0  0  0  0  0  0
   -5.9034    1.9883    5.0306 C   0  0  0  0  0  0  0  0  0  0  0  0
   -7.8971   -2.5960    5.3832 C   0  0  2  0  0  0  0  0  0  0  0  0
   -8.7622   -2.7812    4.0897 C   0  0  0  0  0  0  0  0  0  0  0  0
  -10.0523   -2.4465    4.2953 F   0  0  0  0  0  0  0  0  0  0  0  0
   -8.3115   -2.0278    3.0646 F   0  0  0  0  0  0  0  0  0  0  0  0
   -8.7365   -4.0634    3.6565 F   0  0  0  0  0  0  0  0  0  0  0  0
   -8.4786   -3.2961    6.6241 C   0  0  0  0  0  0  0  0  0  0  0  0
   -9.3741   -2.4347    7.3337 N   0  0  0  0  0  0  0  0  0  0  0  0
  1  2  2  0
  2  3  1  0
  3  4  1  0
  4  5  1  0
  5  6  2  0
  5  7  1  0
  7  8  2  0
  8  9  1  0
  9 10  1  0
  9 11  1  0
  9 12  1  0
  8 13  1  0
 13 14  2  0
 14 15  1  0
 15 16  2  0
 16 17  1  0
 17 18  2  0
 18 19  1  0
 19 20  2  0
  4 21  1  0
 21 22  1  6
 22 23  1  0
 22 24  1  0
 22 25  1  0
 21 26  1  0
 26 27  1  0
 27  2  1  0
 20  7  1  0
 20 15  1  0
M  END
>  <ref_mols>  (2047) 
7gpj-a

>  <gnina_score>  (2047) 
5.261

>  <smina_score_min>  (2047) 
-5.465

>  <ref_pdb>  (2047) 
7gpj-a

>  <inspiration_score>  (2047) 
None

>  <inchikey>  (2047) 
JYXDHWWEQFIKOU-LBPRGKRZSA-N

>  <tags>  (2047) 
BulkDock Fragalysis export,openbind_d68ev3c_c2_elabs_scored,openbind_d68ev3c_c2_elabs_scored_4.5plus,openbind_d68ev3c_c2_elabs,openbind_d68ev3c_c2_elabs_scored_5plus,syndirella_product,openbind_d68ev3c_c2_elabs_scored_top80percent,syndirella_placed

>  <smiles>  (2047) 
O=C1CN(C(=O)c2c(C(F)(F)F)ccc3ccccc23)[C@H](C(F)(F)F)CN1

>  <subsites>  (2047) 
None

>  <rmsd(smina/fragmenstein)>  (2047) 
0.779

>  <alias>  (2047) 
None

>  <energy_score>  (2047) 
-6.406012

>  <HIPPO Pose ID>  (2047) 
139040

>  <distance_score>  (2047) 
1.332448

>  <HIPPO Compound ID>  (2047) 
164990

>  <gnina_score_min>  (2047) 
5.432

>  <name>  (2047) 
P139040

>  <exports>  (2047) 
['/opt/xchem-fragalysis-2/maxwin/BulkDock/OUTPUTS/openbind_d68ev3c_c2_elabs_1LOTQJ3.sdf', '/opt/xchem-fragalysis-2/maxwin/BulkDock/OUTPUTS/openbind_d68ev3c_c2_elabs_1LSYI5W.sdf']

$$$$
P139043
     RDKit          3D

 27 30  0  0  0  0  0  0  0  0999 V2000
  -11.3531    0.0049    5.0825 O   0  0  0  0  0  0  0  0  0  0  0  0
  -10.6721   -0.4634    5.9945 C   0  0  0  0  0  0  0  0  0  0  0  0
  -10.6844   -1.9515    6.3620 C   0  0  0  0  0  0  0  0  0  0  0  0
   -9.4187   -2.4394    6.9428 N   0  0  0  0  0  0  0  0  0  0  0  0
   -8.5429   -3.0538    5.9359 C   0  0  0  0  0  0  0  0  0  0  0  0
   -7.1745   -3.4241    6.4259 C   0  0  0  0  0  0  0  0  0  0  0  0
   -6.6442   -2.0264    6.1343 N   0  0  0  0  0  0  0  0  0  0  0  0
   -5.3423   -1.5784    5.5406 C   0  0  0  0  0  0  0  0  0  0  0  0
   -4.4582   -2.2044    5.0893 O   0  0  0  0  0  0  0  0  0  0  0  0
   -5.2316   -0.1032    5.5047 C   0  0  0  0  0  0  0  0  0  0  0  0
   -4.7930    0.5523    6.6644 C   0  0  0  0  0  0  0  0  0  0  0  0
   -4.4358   -0.2145    7.9083 C   0  0  0  0  0  0  0  0  0  0  0  0
   -5.5341   -0.5936    8.6113 F   0  0  0  0  0  0  0  0  0  0  0  0
   -3.7021   -1.3345    7.6814 F   0  0  0  0  0  0  0  0  0  0  0  0
   -3.6868    0.5343    8.7634 F   0  0  0  0  0  0  0  0  0  0  0  0
   -4.6840    1.9487    6.6408 C   0  0  0  0  0  0  0  0  0  0  0  0
   -4.9699    2.6647    5.4786 C   0  0  0  0  0  0  0  0  0  0  0  0
   -5.3591    2.0091    4.3034 C   0  0  0  0  0  0  0  0  0  0  0  0
   -5.6113    2.7484    3.1363 C   0  0  0  0  0  0  0  0  0  0  0  0
   -5.9728    2.1147    1.9492 C   0  0  0  0  0  0  0  0  0  0  0  0
   -6.0772    0.7315    1.9116 C   0  0  0  0  0  0  0  0  0  0  0  0
   -5.8311   -0.0152    3.0652 C   0  0  0  0  0  0  0  0  0  0  0  0
   -5.4827    0.5998    4.2923 C   0  0  0  0  0  0  0  0  0  0  0  0
   -7.7655   -2.1279    5.0468 C   0  0  0  0  0  0  0  0  0  0  0  0
   -8.9021   -1.5412    7.9720 C   0  0  0  0  0  0  0  0  0  0  0  0
   -8.8036   -0.0746    7.5574 C   0  0  0  0  0  0  0  0  0  0  0  0
   -9.9342    0.3857    6.7804 N   0  0  0  0  0  0  0  0  0  0  0  0
  1  2  2  0
  2  3  1  0
  3  4  1  0
  4  5  1  0
  5  6  1  0
  6  7  1  0
  7  8  1  0
  8  9  2  0
  8 10  1  0
 10 11  2  0
 11 12  1  0
 12 13  1  0
 12 14  1  0
 12 15  1  0
 11 16  1  0
 16 17  2  0
 17 18  1  0
 18 19  2  0
 19 20  1  0
 20 21  2  0
 21 22  1  0
 22 23  2  0
  7 24  1  0
  4 25  1  0
 25 26  1  0
 26 27  1  0
 27  2  1  0
 24  5  1  0
 23 10  1  0
 23 18  1  0
M  END
>  <ref_mols>  (2048) 
7gpj-a

>  <gnina_score>  (2048) 
5.326

>  <smina_score_min>  (2048) 
-5.369

>  <ref_pdb>  (2048) 
7gpj-a

>  <inspiration_score>  (2048) 
None

>  <inchikey>  (2048) 
ZUQQVVHVQNXWKO-UHFFFAOYSA-N

>  <tags>  (2048) 
BulkDock Fragalysis export,openbind_d68ev3c_c2_elabs_scored,openbind_d68ev3c_c2_elabs_scored_4.5plus,openbind_d68ev3c_c2_elabs,openbind_d68ev3c_c2_elabs_scored_5plus,syndirella_product,openbind_d68ev3c_c2_elabs_scored_top80percent,syndirella_placed

>  <smiles>  (2048) 
O=C1CN(C2CN(C(=O)c3c(C(F)(F)F)ccc4ccccc34)C2)CCN1

>  <subsites>  (2048) 
None

>  <rmsd(smina/fragmenstein)>  (2048) 
0.609

>  <alias>  (2048) 
None

>  <energy_score>  (2048) 
-17.460167

>  <HIPPO Pose ID>  (2048) 
139043

>  <distance_score>  (2048) 
0.697899

>  <HIPPO Compound ID>  (2048) 
165018

>  <gnina_score_min>  (2048) 
5.138

>  <name>  (2048) 
P139043

>  <exports>  (2048) 
['/opt/xchem-fragalysis-2/maxwin/BulkDock/OUTPUTS/openbind_d68ev3c_c2_elabs_1LOTQJ3.sdf', '/opt/xchem-fragalysis-2/maxwin/BulkDock/OUTPUTS/openbind_d68ev3c_c2_elabs_1LSYI5W.sdf']

$$$$
P139044
     RDKit          3D

 27 29  0  0  0  0  0  0  0  0999 V2000
   -8.0099   -1.4915    3.1387 C   0  0  0  0  0  0  0  0  0  0  0  0
   -8.2313   -2.2766    4.3387 N   0  0  0  0  0  0  0  0  0  0  0  0
   -9.6173   -2.4015    4.7983 C   0  0  0  0  0  0  0  0  0  0  0  0
   -9.8166   -3.2300    6.0740 C   0  0  0  0  0  0  0  0  0  0  0  0
   -8.7215   -3.1424    7.0322 N   0  0  0  0  0  0  0  0  0  0  0  0
   -8.7178   -2.0259    7.9822 C   0  0  0  0  0  0  0  0  0  0  0  0
   -9.2182   -0.6306    7.5990 C   0  0  0  0  0  0  0  0  0  0  0  0
   -8.2166    0.0631    6.8469 N   0  0  0  0  0  0  0  0  0  0  0  0
   -7.1509    1.0671    7.2976 C   0  0  0  0  0  0  0  0  0  0  0  0
   -6.9635    1.5505    8.3361 O   0  0  0  0  0  0  0  0  0  0  0  0
   -6.2315    1.3044    6.1752 C   0  0  0  0  0  0  0  0  0  0  0  0
   -5.0460    0.5594    6.1553 C   0  0  0  0  0  0  0  0  0  0  0  0
   -4.5418   -0.2306    7.3439 C   0  0  0  0  0  0  0  0  0  0  0  0
   -5.4941   -0.8575    8.0797 F   0  0  0  0  0  0  0  0  0  0  0  0
   -3.8342    0.5516    8.2095 F   0  0  0  0  0  0  0  0  0  0  0  0
   -3.6653   -1.2183    6.9825 F   0  0  0  0  0  0  0  0  0  0  0  0
   -4.3111    0.5926    4.9718 C   0  0  0  0  0  0  0  0  0  0  0  0
   -4.6816    1.4025    3.8959 C   0  0  0  0  0  0  0  0  0  0  0  0
   -5.8447    2.1723    3.9410 C   0  0  0  0  0  0  0  0  0  0  0  0
   -6.2209    2.9694    2.8466 C   0  0  0  0  0  0  0  0  0  0  0  0
   -7.3971    3.7166    2.8766 C   0  0  0  0  0  0  0  0  0  0  0  0
   -8.2101    3.6767    4.0015 C   0  0  0  0  0  0  0  0  0  0  0  0
   -7.8446    2.8897    5.0952 C   0  0  0  0  0  0  0  0  0  0  0  0
   -6.6567    2.1190    5.0902 C   0  0  0  0  0  0  0  0  0  0  0  0
   -7.4383   -3.4330    6.3993 C   0  0  0  0  0  0  0  0  0  0  0  0
   -7.1538   -2.5874    5.1630 C   0  0  0  0  0  0  0  0  0  0  0  0
   -5.9991   -2.2559    4.8806 O   0  0  0  0  0  0  0  0  0  0  0  0
  1  2  1  0
  2  3  1  0
  3  4  1  0
  4  5  1  0
  5  6  1  0
  6  7  1  0
  7  8  1  0
  8  9  1  0
  9 10  2  0
  9 11  1  0
 11 12  2  0
 12 13  1  0
 13 14  1  0
 13 15  1  0
 13 16  1  0
 12 17  1  0
 17 18  2  0
 18 19  1  0
 19 20  2  0
 20 21  1  0
 21 22  2  0
 22 23  1  0
 23 24  2  0
  5 25  1  0
 25 26  1  0
 26 27  2  0
 26  2  1  0
 24 11  1  0
 24 19  1  0
M  END
>  <ref_mols>  (2049) 
7gpj-a

>  <gnina_score>  (2049) 
4.933

>  <smina_score_min>  (2049) 
-4.752

>  <ref_pdb>  (2049) 
7gpj-a

>  <inspiration_score>  (2049) 
None

>  <inchikey>  (2049) 
YPWRYFLUWSRJFZ-UHFFFAOYSA-N

>  <tags>  (2049) 
BulkDock Fragalysis export,openbind_d68ev3c_c2_elabs_scored,openbind_d68ev3c_c2_elabs_scored_4.5plus,openbind_d68ev3c_c2_elabs,openbind_d68ev3c_c2_elabs_scored_5plus,syndirella_product,openbind_d68ev3c_c2_elabs_scored_top80percent,syndirella_placed

>  <smiles>  (2049) 
CN1CCN(CCNC(=O)c2c(C(F)(F)F)ccc3ccccc23)CC1=O

>  <subsites>  (2049) 
None

>  <rmsd(smina/fragmenstein)>  (2049) 
0.803

>  <alias>  (2049) 
None

>  <energy_score>  (2049) 
-30.500656

>  <HIPPO Pose ID>  (2049) 
139044

>  <distance_score>  (2049) 
1.990966

>  <HIPPO Compound ID>  (2049) 
165021

>  <gnina_score_min>  (2049) 
5.041

>  <name>  (2049) 
P139044

>  <exports>  (2049) 
['/opt/xchem-fragalysis-2/maxwin/BulkDock/OUTPUTS/openbind_d68ev3c_c2_elabs_1LOTQJ3.sdf', '/opt/xchem-fragalysis-2/maxwin/BulkDock/OUTPUTS/openbind_d68ev3c_c2_elabs_1LSYI5W.sdf']

$$$$
P139048
     RDKit          3D

 27 29  0  0  0  0  0  0  0  0999 V2000
   -6.9888    4.7553    7.6806 N   0  0  0  0  0  0  0  0  0  0  0  0
   -5.4653    4.9057    6.9808 S   0  0  0  0  0  0  0  0  0  0  0  0
   -5.5437    5.9249    5.9618 O   0  0  0  0  0  0  0  0  0  0  0  0
   -4.5291    4.9654    8.0780 O   0  0  0  0  0  0  0  0  0  0  0  0
   -5.2898    3.3256    6.1846 C   0  0  0  0  0  0  0  0  0  0  0  0
   -5.6255    3.1906    4.8413 C   0  0  0  0  0  0  0  0  0  0  0  0
   -5.5755    1.9309    4.2646 C   0  0  0  0  0  0  0  0  0  0  0  0
   -5.2007    0.8128    5.0315 C   0  0  0  0  0  0  0  0  0  0  0  0
   -5.3655   -0.4643    4.3171 C   0  0  0  0  0  0  0  0  0  0  0  0
   -4.8283   -0.6239    3.2873 O   0  0  0  0  0  0  0  0  0  0  0  0
   -6.3255   -1.3364    5.0490 N   0  0  0  0  0  0  0  0  0  0  0  0
   -7.7981   -1.0207    4.6533 C   0  0  0  0  0  0  0  0  0  0  0  0
   -8.2186   -2.3603    5.1730 C   0  0  0  0  0  0  0  0  0  0  0  0
   -8.3324   -2.5435    6.6291 N   0  0  0  0  0  0  0  0  0  0  0  0
   -9.5775   -3.2631    6.8928 C   0  0  0  0  0  0  0  0  0  0  0  0
  -10.8270   -2.3954    6.6554 C   0  0  0  0  0  0  0  0  0  0  0  0
  -10.7268   -1.0700    7.2322 N   0  0  0  0  0  0  0  0  0  0  0  0
   -9.5226   -0.4618    7.4595 C   0  0  0  0  0  0  0  0  0  0  0  0
   -9.4682    0.7507    7.6691 O   0  0  0  0  0  0  0  0  0  0  0  0
   -8.2778   -1.3448    7.4894 C   0  0  0  0  0  0  0  0  0  0  0  0
   -6.8242   -2.7332    4.7423 C   0  0  0  0  0  0  0  0  0  0  0  0
   -4.8065    0.9375    6.3721 C   0  0  0  0  0  0  0  0  0  0  0  0
   -4.3531   -0.2025    7.2541 C   0  0  0  0  0  0  0  0  0  0  0  0
   -5.3274   -0.6447    8.0922 F   0  0  0  0  0  0  0  0  0  0  0  0
   -3.8679   -1.2878    6.5991 F   0  0  0  0  0  0  0  0  0  0  0  0
   -3.3361    0.1925    8.0771 F   0  0  0  0  0  0  0  0  0  0  0  0
   -4.8465    2.2270    6.9318 C   0  0  0  0  0  0  0  0  0  0  0  0
  1  2  1  0
  2  3  2  0
  2  4  2  0
  2  5  1  0
  5  6  2  0
  6  7  1  0
  7  8  2  0
  8  9  1  0
  9 10  2  0
  9 11  1  0
 11 12  1  0
 12 13  1  0
 13 14  1  0
 14 15  1  0
 15 16  1  0
 16 17  1  0
 17 18  1  0
 18 19  2  0
 18 20  1  0
 13 21  1  0
  8 22  1  0
 22 23  1  0
 23 24  1  0
 23 25  1  0
 23 26  1  0
 22 27  2  0
 27  5  1  0
 21 11  1  0
 20 14  1  0
M  END
>  <ref_mols>  (2050) 
7gpj-a

>  <gnina_score>  (2050) 
5.346

>  <smina_score_min>  (2050) 
-5.385

>  <ref_pdb>  (2050) 
7gpj-a

>  <inspiration_score>  (2050) 
None

>  <inchikey>  (2050) 
WGTZHEVMGCOHHP-UHFFFAOYSA-N

>  <tags>  (2050) 
BulkDock Fragalysis export,openbind_d68ev3c_c2_elabs_scored,openbind_d68ev3c_c2_elabs_scored_4.5plus,openbind_d68ev3c_c2_elabs,openbind_d68ev3c_c2_elabs_scored_5plus,syndirella_product,openbind_d68ev3c_c2_elabs_scored_top80percent,syndirella_placed

>  <smiles>  (2050) 
NS(=O)(=O)c1ccc(C(=O)N2CC(N3CCNC(=O)C3)C2)c(C(F)(F)F)c1

>  <subsites>  (2050) 
None

>  <rmsd(smina/fragmenstein)>  (2050) 
1.362

>  <alias>  (2050) 
None

>  <energy_score>  (2050) 
-28.450378

>  <HIPPO Pose ID>  (2050) 
139048

>  <distance_score>  (2050) 
1.288632

>  <HIPPO Compound ID>  (2050) 
165099

>  <gnina_score_min>  (2050) 
5.227

>  <name>  (2050) 
P139048

>  <exports>  (2050) 
['/opt/xchem-fragalysis-2/maxwin/BulkDock/OUTPUTS/openbind_d68ev3c_c2_elabs_1LOTQJ3.sdf', '/opt/xchem-fragalysis-2/maxwin/BulkDock/OUTPUTS/openbind_d68ev3c_c2_elabs_1LSYI5W.sdf']

$$$$
P139051
     RDKit          3D

 27 29  0  0  0  0  0  0  0  0999 V2000
   -9.9301   -0.7594    8.5077 C   0  0  0  0  0  0  0  0  0  0  0  0
   -8.9142   -1.2932    7.5040 C   0  0  2  0  0  0  0  0  0  0  0  0
   -8.8430   -0.2820    6.3460 C   0  0  0  0  0  0  0  0  0  0  0  0
   -8.1427    0.7292    6.4077 O   0  0  0  0  0  0  0  0  0  0  0  0
   -9.6570   -0.4747    5.2592 N   0  0  0  0  0  0  0  0  0  0  0  0
  -10.0687   -1.8064    4.8683 C   0  0  0  0  0  0  0  0  0  0  0  0
  -10.2712   -2.7497    6.0550 C   0  0  0  0  0  0  0  0  0  0  0  0
   -9.2134   -2.6698    7.0644 N   0  0  0  0  0  0  0  0  0  0  0  0
   -8.0621   -3.5435    6.8347 C   0  0  0  0  0  0  0  0  0  0  0  0
   -7.0439   -3.2438    5.7222 C   0  0  0  0  0  0  0  0  0  0  0  0
   -6.4913   -1.9115    5.7273 N   0  0  0  0  0  0  0  0  0  0  0  0
   -5.7989   -1.1169    4.6163 C   0  0  0  0  0  0  0  0  0  0  0  0
   -5.6298   -1.3781    3.4949 O   0  0  0  0  0  0  0  0  0  0  0  0
   -5.3675    0.2567    5.0579 C   0  0  0  0  0  0  0  0  0  0  0  0
   -5.6318    1.2524    4.0865 C   0  0  0  0  0  0  0  0  0  0  0  0
   -5.3191    2.5771    4.3945 C   0  0  0  0  0  0  0  0  0  0  0  0
   -4.7701    2.9482    5.6130 C   0  0  0  0  0  0  0  0  0  0  0  0
   -4.5009    1.9621    6.5695 C   0  0  0  0  0  0  0  0  0  0  0  0
   -4.7745    0.5989    6.2909 C   0  0  0  0  0  0  0  0  0  0  0  0
   -4.3999   -0.4000    7.3499 C   0  0  0  0  0  0  0  0  0  0  0  0
   -3.7817   -1.5060    6.8556 F   0  0  0  0  0  0  0  0  0  0  0  0
   -5.4781   -0.8434    8.0515 F   0  0  0  0  0  0  0  0  0  0  0  0
   -3.5363    0.1045    8.2770 F   0  0  0  0  0  0  0  0  0  0  0  0
   -4.5656    4.3017    5.6735 N   0  0  0  0  0  0  0  0  0  0  0  0
   -4.9776    4.7632    4.5147 C   0  0  0  0  0  0  0  0  0  0  0  0
   -5.4434    3.7612    3.7125 N   0  0  0  0  0  0  0  0  0  0  0  0
   -5.9721    3.9259    2.3831 C   0  0  0  0  0  0  0  0  0  0  0  0
  2  1  1  1
  2  3  1  0
  3  4  2  0
  3  5  1  0
  5  6  1  0
  6  7  1  0
  7  8  1  0
  8  9  1  0
  9 10  1  0
 10 11  1  0
 11 12  1  0
 12 13  2  0
 12 14  1  0
 14 15  2  0
 15 16  1  0
 16 17  2  0
 17 18  1  0
 18 19  2  0
 19 20  1  0
 20 21  1  0
 20 22  1  0
 20 23  1  0
 17 24  1  0
 24 25  2  0
 25 26  1  0
 26 27  1  0
  8  2  1  0
 19 14  1  0
 26 16  1  0
M  END
>  <ref_mols>  (2051) 
7gpj-a

>  <gnina_score>  (2051) 
5.218

>  <smina_score_min>  (2051) 
-5.041

>  <ref_pdb>  (2051) 
7gpj-a

>  <inspiration_score>  (2051) 
None

>  <inchikey>  (2051) 
WAXBUPALJGBTID-SNVBAGLBSA-N

>  <tags>  (2051) 
BulkDock Fragalysis export,openbind_d68ev3c_c2_elabs_scored,openbind_d68ev3c_c2_elabs_scored_4.5plus,openbind_d68ev3c_c2_elabs,openbind_d68ev3c_c2_elabs_scored_5plus,syndirella_product,openbind_d68ev3c_c2_elabs_scored_top80percent,syndirella_placed

>  <smiles>  (2051) 
C[C@@H]1C(=O)NCCN1CCNC(=O)c1cc2c(cc1C(F)(F)F)ncn2C

>  <subsites>  (2051) 
None

>  <rmsd(smina/fragmenstein)>  (2051) 
1.778

>  <alias>  (2051) 
None

>  <energy_score>  (2051) 
-29.064551

>  <HIPPO Pose ID>  (2051) 
139051

>  <distance_score>  (2051) 
0.762871

>  <HIPPO Compound ID>  (2051) 
165105

>  <gnina_score_min>  (2051) 
5.076

>  <name>  (2051) 
P139051

>  <exports>  (2051) 
['/opt/xchem-fragalysis-2/maxwin/BulkDock/OUTPUTS/openbind_d68ev3c_c2_elabs_1LOTQJ3.sdf', '/opt/xchem-fragalysis-2/maxwin/BulkDock/OUTPUTS/openbind_d68ev3c_c2_elabs_1LSYI5W.sdf']

$$$$
P139053
     RDKit          3D

 27 30  0  0  0  0  0  0  0  0999 V2000
   -6.1990    2.5751    1.9279 C   0  0  0  0  0  0  0  0  0  0  0  0
   -5.7151    2.8166    3.2631 N   0  0  0  0  0  0  0  0  0  0  0  0
   -5.4465    4.0423    3.8013 C   0  0  0  0  0  0  0  0  0  0  0  0
   -5.0323    3.9442    5.0438 N   0  0  0  0  0  0  0  0  0  0  0  0
   -5.0265    2.6019    5.3177 C   0  0  0  0  0  0  0  0  0  0  0  0
   -4.6667    1.9382    6.5001 C   0  0  0  0  0  0  0  0  0  0  0  0
   -4.7453    0.5319    6.5588 C   0  0  0  0  0  0  0  0  0  0  0  0
   -4.3647   -0.1911    7.8225 C   0  0  0  0  0  0  0  0  0  0  0  0
   -3.5597   -1.2673    7.6216 F   0  0  0  0  0  0  0  0  0  0  0  0
   -5.4446   -0.6336    8.5193 F   0  0  0  0  0  0  0  0  0  0  0  0
   -3.6747    0.6092    8.6814 F   0  0  0  0  0  0  0  0  0  0  0  0
   -5.2007   -0.1698    5.4330 C   0  0  0  0  0  0  0  0  0  0  0  0
   -5.3142   -1.6417    5.4912 C   0  0  0  0  0  0  0  0  0  0  0  0
   -4.3859   -2.3073    5.2301 O   0  0  0  0  0  0  0  0  0  0  0  0
   -6.6615   -2.0227    5.9958 N   0  0  0  0  0  0  0  0  0  0  0  0
   -7.2103   -3.3575    6.4183 C   0  0  0  0  0  0  0  0  0  0  0  0
   -8.5646   -2.9600    5.8568 C   0  0  0  0  0  0  0  0  0  0  0  0
   -9.2935   -1.8605    6.5492 N   0  0  0  0  0  0  0  0  0  0  0  0
   -8.9700   -1.7124    7.9720 C   0  0  0  0  0  0  0  0  0  0  0  0
   -9.7154   -0.5124    8.5638 C   0  0  0  0  0  0  0  0  0  0  0  0
  -11.1224   -0.4744    8.2372 N   0  0  0  0  0  0  0  0  0  0  0  0
  -11.6062   -1.0118    7.0727 C   0  0  0  0  0  0  0  0  0  0  0  0
  -12.7284   -0.6914    6.6795 O   0  0  0  0  0  0  0  0  0  0  0  0
  -10.7515   -2.0707    6.3670 C   0  0  0  0  0  0  0  0  0  0  0  0
   -7.6590   -2.2966    4.8203 C   0  0  0  0  0  0  0  0  0  0  0  0
   -5.5514    0.4692    4.2315 C   0  0  0  0  0  0  0  0  0  0  0  0
   -5.4539    1.8638    4.2168 C   0  0  0  0  0  0  0  0  0  0  0  0
  1  2  1  0
  2  3  1  0
  3  4  2  0
  4  5  1  0
  5  6  2  0
  6  7  1  0
  7  8  1  0
  8  9  1  0
  8 10  1  0
  8 11  1  0
  7 12  2  0
 12 13  1  0
 13 14  2  0
 13 15  1  0
 15 16  1  0
 16 17  1  0
 17 18  1  0
 18 19  1  0
 19 20  1  0
 20 21  1  0
 21 22  1  0
 22 23  2  0
 22 24  1  0
 17 25  1  0
 12 26  1  0
 26 27  2  0
 27  2  1  0
 27  5  1  0
 25 15  1  0
 24 18  1  0
M  END
>  <ref_mols>  (2052) 
7gpj-a

>  <gnina_score>  (2052) 
5.228

>  <smina_score_min>  (2052) 
-5.971

>  <ref_pdb>  (2052) 
7gpj-a

>  <inspiration_score>  (2052) 
None

>  <inchikey>  (2052) 
WRANKDGGNCXVEO-UHFFFAOYSA-N

>  <tags>  (2052) 
BulkDock Fragalysis export,openbind_d68ev3c_c2_elabs_scored,openbind_d68ev3c_c2_elabs_scored_4.5plus,openbind_d68ev3c_c2_elabs,openbind_d68ev3c_c2_elabs_scored_5plus,syndirella_product,openbind_d68ev3c_c2_elabs_scored_top80percent,syndirella_placed

>  <smiles>  (2052) 
Cn1cnc2cc(C(F)(F)F)c(C(=O)N3CC(N4CCNC(=O)C4)C3)cc21

>  <subsites>  (2052) 
None

>  <rmsd(smina/fragmenstein)>  (2052) 
0.853

>  <alias>  (2052) 
None

>  <energy_score>  (2052) 
-21.672746

>  <HIPPO Pose ID>  (2052) 
139053

>  <distance_score>  (2052) 
0.767386

>  <HIPPO Compound ID>  (2052) 
165106

>  <gnina_score_min>  (2052) 
5.371

>  <name>  (2052) 
P139053

>  <exports>  (2052) 
['/opt/xchem-fragalysis-2/maxwin/BulkDock/OUTPUTS/openbind_d68ev3c_c2_elabs_1LOTQJ3.sdf', '/opt/xchem-fragalysis-2/maxwin/BulkDock/OUTPUTS/openbind_d68ev3c_c2_elabs_1LSYI5W.sdf']

$$$$
P139054
     RDKit          3D

 27 29  0  0  0  0  0  0  0  0999 V2000
   -9.5875    0.4044    4.2409 C   0  0  0  0  0  0  0  0  0  0  0  0
   -9.7012   -0.6432    5.2341 N   0  0  0  0  0  0  0  0  0  0  0  0
   -9.9930   -1.9850    4.7341 C   0  0  0  0  0  0  0  0  0  0  0  0
  -10.2421   -3.0239    5.8283 C   0  0  0  0  0  0  0  0  0  0  0  0
   -9.3028   -2.9463    6.9379 N   0  0  0  0  0  0  0  0  0  0  0  0
   -8.0642   -3.6973    6.8167 C   0  0  0  0  0  0  0  0  0  0  0  0
   -7.0115   -3.3095    5.7745 C   0  0  0  0  0  0  0  0  0  0  0  0
   -6.5556   -1.9425    5.8079 N   0  0  0  0  0  0  0  0  0  0  0  0
   -5.8183   -1.1124    4.7513 C   0  0  0  0  0  0  0  0  0  0  0  0
   -5.5275   -1.3732    3.6549 O   0  0  0  0  0  0  0  0  0  0  0  0
   -5.5043    0.2826    5.1951 C   0  0  0  0  0  0  0  0  0  0  0  0
   -5.8223    1.2635    4.2275 C   0  0  0  0  0  0  0  0  0  0  0  0
   -5.5269    2.5947    4.5215 C   0  0  0  0  0  0  0  0  0  0  0  0
   -4.9396    2.9801    5.7183 C   0  0  0  0  0  0  0  0  0  0  0  0
   -4.6161    2.0032    6.6688 C   0  0  0  0  0  0  0  0  0  0  0  0
   -4.8779    0.6367    6.4052 C   0  0  0  0  0  0  0  0  0  0  0  0
   -4.4480   -0.3660    7.4376 C   0  0  0  0  0  0  0  0  0  0  0  0
   -3.7831   -1.4305    6.9120 F   0  0  0  0  0  0  0  0  0  0  0  0
   -3.6020    0.1564    8.3702 F   0  0  0  0  0  0  0  0  0  0  0  0
   -5.4998   -0.8782    8.1325 F   0  0  0  0  0  0  0  0  0  0  0  0
   -4.7575    4.3376    5.7655 N   0  0  0  0  0  0  0  0  0  0  0  0
   -5.2177    4.7865    4.6200 C   0  0  0  0  0  0  0  0  0  0  0  0
   -5.6927    3.7729    3.8382 N   0  0  0  0  0  0  0  0  0  0  0  0
   -6.2663    3.9216    2.5256 C   0  0  0  0  0  0  0  0  0  0  0  0
   -9.2070   -1.5956    7.4894 C   0  0  0  0  0  0  0  0  0  0  0  0
   -9.0229   -0.4917    6.4427 C   0  0  0  0  0  0  0  0  0  0  0  0
   -8.3670    0.5177    6.7136 O   0  0  0  0  0  0  0  0  0  0  0  0
  1  2  1  0
  2  3  1  0
  3  4  1  0
  4  5  1  0
  5  6  1  0
  6  7  1  0
  7  8  1  0
  8  9  1  0
  9 10  2  0
  9 11  1  0
 11 12  2  0
 12 13  1  0
 13 14  2  0
 14 15  1  0
 15 16  2  0
 16 17  1  0
 17 18  1  0
 17 19  1  0
 17 20  1  0
 14 21  1  0
 21 22  2  0
 22 23  1  0
 23 24  1  0
  5 25  1  0
 25 26  1  0
 26 27  2  0
 26  2  1  0
 16 11  1  0
 23 13  1  0
M  END
>  <ref_mols>  (2053) 
7gpj-a

>  <gnina_score>  (2053) 
5.131

>  <smina_score_min>  (2053) 
-5.126

>  <ref_pdb>  (2053) 
7gpj-a

>  <inspiration_score>  (2053) 
None

>  <inchikey>  (2053) 
PGAVSUAQXNEPNW-UHFFFAOYSA-N

>  <tags>  (2053) 
BulkDock Fragalysis export,openbind_d68ev3c_c2_elabs_scored,openbind_d68ev3c_c2_elabs_scored_4.5plus,openbind_d68ev3c_c2_elabs,openbind_d68ev3c_c2_elabs_scored_5plus,syndirella_product,openbind_d68ev3c_c2_elabs_scored_top80percent,syndirella_placed

>  <smiles>  (2053) 
CN1CCN(CCNC(=O)c2cc3c(cc2C(F)(F)F)ncn3C)CC1=O

>  <subsites>  (2053) 
None

>  <rmsd(smina/fragmenstein)>  (2053) 
1.68

>  <alias>  (2053) 
None

>  <energy_score>  (2053) 
-30.91069

>  <HIPPO Pose ID>  (2053) 
139054

>  <distance_score>  (2053) 
0.722553

>  <HIPPO Compound ID>  (2053) 
165109

>  <gnina_score_min>  (2053) 
5.024

>  <name>  (2053) 
P139054

>  <exports>  (2053) 
['/opt/xchem-fragalysis-2/maxwin/BulkDock/OUTPUTS/openbind_d68ev3c_c2_elabs_1LOTQJ3.sdf', '/opt/xchem-fragalysis-2/maxwin/BulkDock/OUTPUTS/openbind_d68ev3c_c2_elabs_1LSYI5W.sdf']

$$$$
P139061
     RDKit          3D

 27 28  0  0  0  0  0  0  0  0999 V2000
   -3.7887    6.1950    7.4845 C   0  0  0  0  0  0  0  0  0  0  0  0
   -4.0296    4.8149    7.2092 O   0  0  0  0  0  0  0  0  0  0  0  0
   -4.5546    4.5774    5.9827 C   0  0  0  0  0  0  0  0  0  0  0  0
   -4.8368    5.4196    5.1462 O   0  0  0  0  0  0  0  0  0  0  0  0
   -4.7459    3.1138    5.7801 C   0  0  0  0  0  0  0  0  0  0  0  0
   -5.2300    2.6726    4.5480 C   0  0  0  0  0  0  0  0  0  0  0  0
   -5.4196    1.3105    4.3226 C   0  0  0  0  0  0  0  0  0  0  0  0
   -5.1399    0.3618    5.3253 C   0  0  0  0  0  0  0  0  0  0  0  0
   -5.4137   -1.0573    4.9441 C   0  0  0  0  0  0  0  0  0  0  0  0
   -5.1497   -1.3657    3.8566 O   0  0  0  0  0  0  0  0  0  0  0  0
   -6.0856   -1.8503    6.0626 N   0  0  0  0  0  0  0  0  0  0  0  0
   -6.6677   -3.1709    6.0574 C   0  0  0  0  0  0  0  0  0  0  0  0
   -8.2035   -3.0626    6.0922 C   0  0  0  0  0  0  0  0  0  0  0  0
   -8.5830   -1.8210    6.8212 N   0  0  0  0  0  0  0  0  0  0  0  0
   -9.3231   -2.1716    8.0279 C   0  0  0  0  0  0  0  0  0  0  0  0
   -9.5743   -0.9263    8.8821 C   0  0  0  0  0  0  0  0  0  0  0  0
  -10.2615    0.1048    8.1527 N   0  0  0  0  0  0  0  0  0  0  0  0
   -9.9555    0.3043    6.8341 C   0  0  0  0  0  0  0  0  0  0  0  0
  -10.1916    1.4076    6.3393 O   0  0  0  0  0  0  0  0  0  0  0  0
   -9.4416   -0.9150    6.0116 C   0  0  1  0  0  0  0  0  0  0  0  0
   -8.6930   -0.3543    4.8114 C   0  0  0  0  0  0  0  0  0  0  0  0
   -4.6262    0.7830    6.5604 C   0  0  0  0  0  0  0  0  0  0  0  0
   -4.2351   -0.1739    7.6545 C   0  0  0  0  0  0  0  0  0  0  0  0
   -3.4607    0.4138    8.6040 F   0  0  0  0  0  0  0  0  0  0  0  0
   -5.3177   -0.6636    8.3169 F   0  0  0  0  0  0  0  0  0  0  0  0
   -3.5214   -1.2435    7.2159 F   0  0  0  0  0  0  0  0  0  0  0  0
   -4.4492    2.1692    6.7751 C   0  0  0  0  0  0  0  0  0  0  0  0
  1  2  1  0
  2  3  1  0
  3  4  2  0
  3  5  1  0
  5  6  2  0
  6  7  1  0
  7  8  2  0
  8  9  1  0
  9 10  2  0
  9 11  1  0
 11 12  1  0
 12 13  1  0
 13 14  1  0
 14 15  1  0
 15 16  1  0
 16 17  1  0
 17 18  1  0
 18 19  2  0
 18 20  1  0
 20 21  1  6
  8 22  1  0
 22 23  1  0
 23 24  1  0
 23 25  1  0
 23 26  1  0
 22 27  2  0
 27  5  1  0
 20 14  1  0
M  END
>  <ref_mols>  (2054) 
7gpj-a

>  <gnina_score>  (2054) 
4.804

>  <smina_score_min>  (2054) 
-4.405

>  <ref_pdb>  (2054) 
7gpj-a

>  <inspiration_score>  (2054) 
None

>  <inchikey>  (2054) 
LPHQCRBTVYIQJG-SNVBAGLBSA-N

>  <tags>  (2054) 
BulkDock Fragalysis export,openbind_d68ev3c_c2_elabs_scored,openbind_d68ev3c_c2_elabs_scored_4.5plus,openbind_d68ev3c_c2_elabs,openbind_d68ev3c_c2_elabs_scored_5plus,syndirella_product,openbind_d68ev3c_c2_elabs_scored_top80percent,syndirella_placed

>  <smiles>  (2054) 
COC(=O)c1ccc(C(=O)NCCN2CCNC(=O)[C@H]2C)c(C(F)(F)F)c1

>  <subsites>  (2054) 
None

>  <rmsd(smina/fragmenstein)>  (2054) 
1.517

>  <alias>  (2054) 
None

>  <energy_score>  (2054) 
-28.815781

>  <HIPPO Pose ID>  (2054) 
139061

>  <distance_score>  (2054) 
1.111133

>  <HIPPO Compound ID>  (2054) 
165141

>  <gnina_score_min>  (2054) 
5.029

>  <name>  (2054) 
P139061

>  <exports>  (2054) 
['/opt/xchem-fragalysis-2/maxwin/BulkDock/OUTPUTS/openbind_d68ev3c_c2_elabs_1LOTQJ3.sdf', '/opt/xchem-fragalysis-2/maxwin/BulkDock/OUTPUTS/openbind_d68ev3c_c2_elabs_1LSYI5W.sdf']

$$$$
P139062
     RDKit          3D

 27 29  0  0  0  0  0  0  0  0999 V2000
   -4.0834    6.0368    9.0956 C   0  0  0  0  0  0  0  0  0  0  0  0
   -4.2740    4.8098    8.3917 O   0  0  0  0  0  0  0  0  0  0  0  0
   -4.3385    4.9451    7.0455 C   0  0  0  0  0  0  0  0  0  0  0  0
   -4.3045    5.9947    6.4248 O   0  0  0  0  0  0  0  0  0  0  0  0
   -4.4931    3.6102    6.4029 C   0  0  0  0  0  0  0  0  0  0  0  0
   -4.7976    3.5599    5.0437 C   0  0  0  0  0  0  0  0  0  0  0  0
   -4.9534    2.3303    4.4181 C   0  0  0  0  0  0  0  0  0  0  0  0
   -4.8168    1.1313    5.1408 C   0  0  0  0  0  0  0  0  0  0  0  0
   -5.1433   -0.0625    4.3356 C   0  0  0  0  0  0  0  0  0  0  0  0
   -4.7522   -0.1282    3.2307 O   0  0  0  0  0  0  0  0  0  0  0  0
   -6.0413   -0.9734    5.0952 N   0  0  0  0  0  0  0  0  0  0  0  0
   -6.6437   -2.3092    4.7162 C   0  0  0  0  0  0  0  0  0  0  0  0
   -7.9995   -1.9436    5.2241 C   0  0  0  0  0  0  0  0  0  0  0  0
   -8.1211   -2.3310    6.6472 N   0  0  0  0  0  0  0  0  0  0  0  0
   -8.4627   -3.7753    6.6827 C   0  0  0  0  0  0  0  0  0  0  0  0
   -9.7260   -4.0702    5.8628 C   0  0  0  0  0  0  0  0  0  0  0  0
  -10.8125   -3.1592    6.1651 N   0  0  0  0  0  0  0  0  0  0  0  0
  -10.6066   -1.8984    6.6809 C   0  0  0  0  0  0  0  0  0  0  0  0
  -11.5077   -1.0601    6.6477 O   0  0  0  0  0  0  0  0  0  0  0  0
   -9.2382   -1.6025    7.3027 C   0  0  0  0  0  0  0  0  0  0  0  0
   -7.5294   -0.5653    4.9363 C   0  0  0  0  0  0  0  0  0  0  0  0
   -4.5143    1.1452    6.5072 C   0  0  0  0  0  0  0  0  0  0  0  0
   -4.3372   -0.0850    7.3665 C   0  0  0  0  0  0  0  0  0  0  0  0
   -5.4809   -0.4857    7.9789 F   0  0  0  0  0  0  0  0  0  0  0  0
   -3.4569    0.1587    8.3834 F   0  0  0  0  0  0  0  0  0  0  0  0
   -3.8172   -1.1641    6.7227 F   0  0  0  0  0  0  0  0  0  0  0  0
   -4.3408    2.4084    7.1130 C   0  0  0  0  0  0  0  0  0  0  0  0
  1  2  1  0
  2  3  1  0
  3  4  2  0
  3  5  1  0
  5  6  2  0
  6  7  1  0
  7  8  2  0
  8  9  1  0
  9 10  2  0
  9 11  1  0
 11 12  1  0
 12 13  1  0
 13 14  1  0
 14 15  1  0
 15 16  1  0
 16 17  1  0
 17 18  1  0
 18 19  2  0
 18 20  1  0
 13 21  1  0
  8 22  1  0
 22 23  1  0
 23 24  1  0
 23 25  1  0
 23 26  1  0
 22 27  2  0
 27  5  1  0
 21 11  1  0
 20 14  1  0
M  END
>  <ref_mols>  (2055) 
7gpj-a

>  <gnina_score>  (2055) 
5.109

>  <smina_score_min>  (2055) 
-5.301

>  <ref_pdb>  (2055) 
7gpj-a

>  <inspiration_score>  (2055) 
None

>  <inchikey>  (2055) 
CMLLSXKJCLYALC-UHFFFAOYSA-N

>  <tags>  (2055) 
BulkDock Fragalysis export,openbind_d68ev3c_c2_elabs_scored,openbind_d68ev3c_c2_elabs_scored_4.5plus,openbind_d68ev3c_c2_elabs,openbind_d68ev3c_c2_elabs_scored_5plus,syndirella_product,openbind_d68ev3c_c2_elabs_scored_top80percent,syndirella_placed

>  <smiles>  (2055) 
COC(=O)c1ccc(C(=O)N2CC(N3CCNC(=O)C3)C2)c(C(F)(F)F)c1

>  <subsites>  (2055) 
None

>  <rmsd(smina/fragmenstein)>  (2055) 
0.58

>  <alias>  (2055) 
None

>  <energy_score>  (2055) 
-22.51796

>  <HIPPO Pose ID>  (2055) 
139062

>  <distance_score>  (2055) 
1.636344

>  <HIPPO Compound ID>  (2055) 
165142

>  <gnina_score_min>  (2055) 
5.071

>  <name>  (2055) 
P139062

>  <exports>  (2055) 
['/opt/xchem-fragalysis-2/maxwin/BulkDock/OUTPUTS/openbind_d68ev3c_c2_elabs_1LOTQJ3.sdf', '/opt/xchem-fragalysis-2/maxwin/BulkDock/OUTPUTS/openbind_d68ev3c_c2_elabs_1LSYI5W.sdf']

$$$$
P139063
     RDKit          3D

 27 29  0  0  0  0  0  0  0  0999 V2000
   -6.4356    2.4953    2.0210 C   0  0  0  0  0  0  0  0  0  0  0  0
   -5.9302    2.7652    3.3429 N   0  0  0  0  0  0  0  0  0  0  0  0
   -5.7160    4.0042    3.8751 C   0  0  0  0  0  0  0  0  0  0  0  0
   -5.2584    3.9300    5.1041 N   0  0  0  0  0  0  0  0  0  0  0  0
   -5.1638    2.5903    5.3745 C   0  0  0  0  0  0  0  0  0  0  0  0
   -4.7312    1.9481    6.5453 C   0  0  0  0  0  0  0  0  0  0  0  0
   -4.7285    0.5404    6.6040 C   0  0  0  0  0  0  0  0  0  0  0  0
   -4.3035   -0.1686    7.8603 C   0  0  0  0  0  0  0  0  0  0  0  0
   -5.3621   -0.6543    8.5604 F   0  0  0  0  0  0  0  0  0  0  0  0
   -3.6464    0.6608    8.7147 F   0  0  0  0  0  0  0  0  0  0  0  0
   -3.4563   -1.2096    7.6547 F   0  0  0  0  0  0  0  0  0  0  0  0
   -5.1655   -0.1822    5.4879 C   0  0  0  0  0  0  0  0  0  0  0  0
   -5.1723   -1.6564    5.5368 C   0  0  0  0  0  0  0  0  0  0  0  0
   -4.2135   -2.2402    5.2569 O   0  0  0  0  0  0  0  0  0  0  0  0
   -6.5490   -2.1566    5.9351 N   0  0  0  0  0  0  0  0  0  0  0  0
   -7.0255   -3.4890    6.1689 C   0  0  0  0  0  0  0  0  0  0  0  0
   -8.5440   -3.5169    6.3090 C   0  0  0  0  0  0  0  0  0  0  0  0
   -9.0879   -2.5311    7.3603 C   0  0  0  0  0  0  0  0  0  0  0  0
   -8.7473   -1.1185    7.0677 N   0  0  0  0  0  0  0  0  0  0  0  0
   -8.7292   -0.2859    8.2849 C   0  0  0  0  0  0  0  0  0  0  0  0
  -10.1098   -0.1083    8.9210 C   0  0  0  0  0  0  0  0  0  0  0  0
  -11.1206    0.2653    7.9549 N   0  0  0  0  0  0  0  0  0  0  0  0
  -11.0495   -0.1143    6.6385 C   0  0  0  0  0  0  0  0  0  0  0  0
  -12.0466   -0.0166    5.9234 O   0  0  0  0  0  0  0  0  0  0  0  0
   -9.6760   -0.5189    6.0786 C   0  0  0  0  0  0  0  0  0  0  0  0
   -5.6023    0.4321    4.3023 C   0  0  0  0  0  0  0  0  0  0  0  0
   -5.5860    1.8293    4.2871 C   0  0  0  0  0  0  0  0  0  0  0  0
  1  2  1  0
  2  3  1  0
  3  4  2  0
  4  5  1  0
  5  6  2  0
  6  7  1  0
  7  8  1  0
  8  9  1  0
  8 10  1  0
  8 11  1  0
  7 12  2  0
 12 13  1  0
 13 14  2  0
 13 15  1  0
 15 16  1  0
 16 17  1  0
 17 18  1  0
 18 19  1  0
 19 20  1  0
 20 21  1  0
 21 22  1  0
 22 23  1  0
 23 24  2  0
 23 25  1  0
 12 26  1  0
 26 27  2  0
 27  2  1  0
 27  5  1  0
 25 19  1  0
M  END
>  <ref_mols>  (2056) 
7gpj-a

>  <gnina_score>  (2056) 
5.123

>  <smina_score_min>  (2056) 
-5.564

>  <ref_pdb>  (2056) 
7gpj-a

>  <inspiration_score>  (2056) 
None

>  <inchikey>  (2056) 
JXXHWLNQYDVZRE-UHFFFAOYSA-N

>  <tags>  (2056) 
BulkDock Fragalysis export,openbind_d68ev3c_c2_elabs_scored,openbind_d68ev3c_c2_elabs_scored_4.5plus,openbind_d68ev3c_c2_elabs,openbind_d68ev3c_c2_elabs_scored_5plus,syndirella_product,openbind_d68ev3c_c2_elabs_scored_top80percent,syndirella_placed

>  <smiles>  (2056) 
Cn1cnc2cc(C(F)(F)F)c(C(=O)NCCCN3CCNC(=O)C3)cc21

>  <subsites>  (2056) 
None

>  <rmsd(smina/fragmenstein)>  (2056) 
1.056

>  <alias>  (2056) 
None

>  <energy_score>  (2056) 
-36.216141

>  <HIPPO Pose ID>  (2056) 
139063

>  <distance_score>  (2056) 
0.639282

>  <HIPPO Compound ID>  (2056) 
165165

>  <gnina_score_min>  (2056) 
5.222

>  <name>  (2056) 
P139063

>  <exports>  (2056) 
['/opt/xchem-fragalysis-2/maxwin/BulkDock/OUTPUTS/openbind_d68ev3c_c2_elabs_1LOTQJ3.sdf', '/opt/xchem-fragalysis-2/maxwin/BulkDock/OUTPUTS/openbind_d68ev3c_c2_elabs_1LSYI5W.sdf']

$$$$
P139065
     RDKit          3D

 27 29  0  0  0  0  0  0  0  0999 V2000
  -11.8783   -2.6938    6.7643 O   0  0  0  0  0  0  0  0  0  0  0  0
  -10.7509   -2.2846    7.0232 C   0  0  0  0  0  0  0  0  0  0  0  0
   -9.4940   -3.1810    7.1187 C   0  0  0  0  0  0  0  0  0  0  0  0
   -8.2609   -2.4454    6.7885 N   0  0  0  0  0  0  0  0  0  0  0  0
   -8.2648   -2.2473    5.3260 C   0  0  0  0  0  0  0  0  0  0  0  0
   -6.9170   -2.6780    4.7964 C   0  0  0  0  0  0  0  0  0  0  0  0
   -6.3439   -1.3028    5.0827 N   0  0  0  0  0  0  0  0  0  0  0  0
   -5.3957   -0.4638    4.3017 C   0  0  0  0  0  0  0  0  0  0  0  0
   -4.9271   -0.6353    3.2399 O   0  0  0  0  0  0  0  0  0  0  0  0
   -5.1263    0.8087    5.0023 C   0  0  0  0  0  0  0  0  0  0  0  0
   -5.3703    1.9421    4.2094 C   0  0  0  0  0  0  0  0  0  0  0  0
   -5.1969    3.2183    4.7280 C   0  0  0  0  0  0  0  0  0  0  0  0
   -4.7807    3.3840    6.0510 C   0  0  0  0  0  0  0  0  0  0  0  0
   -4.5705    4.7668    6.6306 C   0  0  0  0  0  0  0  0  0  0  0  0
   -5.2504    5.7382    5.9601 F   0  0  0  0  0  0  0  0  0  0  0  0
   -4.9791    4.8552    7.9268 F   0  0  0  0  0  0  0  0  0  0  0  0
   -3.2640    5.1411    6.6192 F   0  0  0  0  0  0  0  0  0  0  0  0
   -4.5256    2.2429    6.8333 C   0  0  0  0  0  0  0  0  0  0  0  0
   -4.6882    0.9344    6.3289 C   0  0  0  0  0  0  0  0  0  0  0  0
   -4.3409   -0.2187    7.2435 C   0  0  0  0  0  0  0  0  0  0  0  0
   -3.3065    0.1177    8.0738 F   0  0  0  0  0  0  0  0  0  0  0  0
   -5.3535   -0.5623    8.0802 F   0  0  0  0  0  0  0  0  0  0  0  0
   -3.9275   -1.3511    6.6210 F   0  0  0  0  0  0  0  0  0  0  0  0
   -7.8246   -0.9248    4.7779 C   0  0  0  0  0  0  0  0  0  0  0  0
   -8.1343   -1.2616    7.6526 C   0  0  0  0  0  0  0  0  0  0  0  0
   -9.4360   -0.5848    8.1091 C   0  0  0  0  0  0  0  0  0  0  0  0
  -10.5611   -0.9449    7.2879 N   0  0  0  0  0  0  0  0  0  0  0  0
  1  2  2  0
  2  3  1  0
  3  4  1  0
  4  5  1  0
  5  6  1  0
  6  7  1  0
  7  8  1  0
  8  9  2  0
  8 10  1  0
 10 11  2  0
 11 12  1  0
 12 13  2  0
 13 14  1  0
 14 15  1  0
 14 16  1  0
 14 17  1  0
 13 18  1  0
 18 19  2  0
 19 20  1  0
 20 21  1  0
 20 22  1  0
 20 23  1  0
  7 24  1  0
  4 25  1  0
 25 26  1  0
 26 27  1  0
 27  2  1  0
 24  5  1  0
 19 10  1  0
M  END
>  <ref_mols>  (2057) 
7gpj-a

>  <gnina_score>  (2057) 
5.424

>  <smina_score_min>  (2057) 
-4.589

>  <ref_pdb>  (2057) 
7gpj-a

>  <inspiration_score>  (2057) 
None

>  <inchikey>  (2057) 
QDMYOAYXMYFZNO-UHFFFAOYSA-N

>  <tags>  (2057) 
BulkDock Fragalysis export,openbind_d68ev3c_c2_elabs_scored,openbind_d68ev3c_c2_elabs_scored_4.5plus,openbind_d68ev3c_c2_elabs,openbind_d68ev3c_c2_elabs_scored_5plus,syndirella_product,openbind_d68ev3c_c2_elabs_scored_top80percent,syndirella_placed

>  <smiles>  (2057) 
O=C1CN(C2CN(C(=O)c3ccc(C(F)(F)F)cc3C(F)(F)F)C2)CCN1

>  <subsites>  (2057) 
None

>  <rmsd(smina/fragmenstein)>  (2057) 
0.619

>  <alias>  (2057) 
None

>  <energy_score>  (2057) 
-5.774829

>  <HIPPO Pose ID>  (2057) 
139065

>  <distance_score>  (2057) 
1.248438

>  <HIPPO Compound ID>  (2057) 
165179

>  <gnina_score_min>  (2057) 
5.36

>  <name>  (2057) 
P139065

>  <exports>  (2057) 
['/opt/xchem-fragalysis-2/maxwin/BulkDock/OUTPUTS/openbind_d68ev3c_c2_elabs_1LOTQJ3.sdf', '/opt/xchem-fragalysis-2/maxwin/BulkDock/OUTPUTS/openbind_d68ev3c_c2_elabs_1LSYI5W.sdf']

$$$$
P139066
     RDKit          3D

 27 28  0  0  0  0  0  0  0  0999 V2000
   -9.9054   -0.7407    8.5600 C   0  0  0  0  0  0  0  0  0  0  0  0
   -8.8962   -1.2818    7.5529 C   0  0  2  0  0  0  0  0  0  0  0  0
   -8.8072   -0.2575    6.4083 C   0  0  0  0  0  0  0  0  0  0  0  0
   -8.0750    0.7311    6.4790 O   0  0  0  0  0  0  0  0  0  0  0  0
   -9.6353   -0.4164    5.3273 N   0  0  0  0  0  0  0  0  0  0  0  0
  -10.0947   -1.7310    4.9269 C   0  0  0  0  0  0  0  0  0  0  0  0
  -10.2929   -2.6923    6.1009 C   0  0  0  0  0  0  0  0  0  0  0  0
   -9.2179   -2.6468    7.0958 N   0  0  0  0  0  0  0  0  0  0  0  0
   -8.0841   -3.5349    6.8362 C   0  0  0  0  0  0  0  0  0  0  0  0
   -7.0828   -3.2410    5.7076 C   0  0  0  0  0  0  0  0  0  0  0  0
   -6.5109   -1.9167    5.7132 N   0  0  0  0  0  0  0  0  0  0  0  0
   -5.8080   -1.1318    4.6025 C   0  0  0  0  0  0  0  0  0  0  0  0
   -5.6435   -1.3947    3.4810 O   0  0  0  0  0  0  0  0  0  0  0  0
   -5.3565    0.2339    5.0421 C   0  0  0  0  0  0  0  0  0  0  0  0
   -5.5959    1.2405    4.0838 C   0  0  0  0  0  0  0  0  0  0  0  0
   -5.2753    2.5743    4.3287 C   0  0  0  0  0  0  0  0  0  0  0  0
   -4.7062    2.9439    5.5469 C   0  0  0  0  0  0  0  0  0  0  0  0
   -4.3678    4.3868    5.8471 C   0  0  0  0  0  0  0  0  0  0  0  0
   -3.1390    4.5241    6.4171 F   0  0  0  0  0  0  0  0  0  0  0  0
   -4.3614    5.1842    4.7431 F   0  0  0  0  0  0  0  0  0  0  0  0
   -5.2491    4.9548    6.7146 F   0  0  0  0  0  0  0  0  0  0  0  0
   -4.4691    1.9470    6.5078 C   0  0  0  0  0  0  0  0  0  0  0  0
   -4.7610    0.5817    6.2675 C   0  0  0  0  0  0  0  0  0  0  0  0
   -4.4042   -0.4105    7.3416 C   0  0  0  0  0  0  0  0  0  0  0  0
   -3.7859   -1.5237    6.8661 F   0  0  0  0  0  0  0  0  0  0  0  0
   -5.4893   -0.8384    8.0404 F   0  0  0  0  0  0  0  0  0  0  0  0
   -3.5462    0.1050    8.2686 F   0  0  0  0  0  0  0  0  0  0  0  0
  2  1  1  1
  2  3  1  0
  3  4  2  0
  3  5  1  0
  5  6  1  0
  6  7  1  0
  7  8  1  0
  8  9  1  0
  9 10  1  0
 10 11  1  0
 11 12  1  0
 12 13  2  0
 12 14  1  0
 14 15  2  0
 15 16  1  0
 16 17  2  0
 17 18  1  0
 18 19  1  0
 18 20  1  0
 18 21  1  0
 17 22  1  0
 22 23  2  0
 23 24  1  0
 24 25  1  0
 24 26  1  0
 24 27  1  0
  8  2  1  0
 23 14  1  0
M  END
>  <ref_mols>  (2058) 
7gpj-a

>  <gnina_score>  (2058) 
5.34

>  <smina_score_min>  (2058) 
-4.673

>  <ref_pdb>  (2058) 
7gpj-a

>  <inspiration_score>  (2058) 
None

>  <inchikey>  (2058) 
HBVRRVXJQYADDP-SECBINFHSA-N

>  <tags>  (2058) 
BulkDock Fragalysis export,openbind_d68ev3c_c2_elabs_scored,openbind_d68ev3c_c2_elabs_scored_4.5plus,openbind_d68ev3c_c2_elabs,openbind_d68ev3c_c2_elabs_scored_5plus,syndirella_product,openbind_d68ev3c_c2_elabs_scored_top80percent,syndirella_placed

>  <smiles>  (2058) 
C[C@@H]1C(=O)NCCN1CCNC(=O)c1ccc(C(F)(F)F)cc1C(F)(F)F

>  <subsites>  (2058) 
None

>  <rmsd(smina/fragmenstein)>  (2058) 
1.092

>  <alias>  (2058) 
None

>  <energy_score>  (2058) 
-37.309559

>  <HIPPO Pose ID>  (2058) 
139066

>  <distance_score>  (2058) 
0.757306

>  <HIPPO Compound ID>  (2058) 
165180

>  <gnina_score_min>  (2058) 
5.267

>  <name>  (2058) 
P139066

>  <exports>  (2058) 
['/opt/xchem-fragalysis-2/maxwin/BulkDock/OUTPUTS/openbind_d68ev3c_c2_elabs_1LOTQJ3.sdf', '/opt/xchem-fragalysis-2/maxwin/BulkDock/OUTPUTS/openbind_d68ev3c_c2_elabs_1LSYI5W.sdf']

$$$$
P139070
     RDKit          3D

 27 28  0  0  0  0  0  0  0  0999 V2000
   -7.1529    1.5149    8.3419 O   0  0  0  0  0  0  0  0  0  0  0  0
   -8.1126    0.9190    7.8599 C   0  0  0  0  0  0  0  0  0  0  0  0
   -8.4978   -0.5150    8.2405 C   0  0  0  0  0  0  0  0  0  0  0  0
   -8.7759   -1.2919    7.0133 N   0  0  0  0  0  0  0  0  0  0  0  0
   -9.0397   -2.7091    7.3278 C   0  0  0  0  0  0  0  0  0  0  0  0
   -8.5273   -3.6425    6.2202 C   0  0  0  0  0  0  0  0  0  0  0  0
   -7.0179   -3.5686    6.0035 C   0  0  0  0  0  0  0  0  0  0  0  0
   -6.5826   -2.2140    5.8197 N   0  0  0  0  0  0  0  0  0  0  0  0
   -5.2055   -1.6522    5.5051 C   0  0  0  0  0  0  0  0  0  0  0  0
   -4.1796   -2.1829    5.4173 O   0  0  0  0  0  0  0  0  0  0  0  0
   -5.2521   -0.1829    5.4010 C   0  0  0  0  0  0  0  0  0  0  0  0
   -5.7682    0.3678    4.2250 C   0  0  0  0  0  0  0  0  0  0  0  0
   -6.2554   -0.4195    3.2562 F   0  0  0  0  0  0  0  0  0  0  0  0
   -5.7805    1.7437    4.0341 C   0  0  0  0  0  0  0  0  0  0  0  0
   -5.2570    2.5725    5.0215 C   0  0  0  0  0  0  0  0  0  0  0  0
   -4.7398    2.0093    6.2038 C   0  0  0  0  0  0  0  0  0  0  0  0
   -4.1267    2.9500    7.1273 N   0  0  0  0  0  0  0  0  0  0  0  0
   -4.8557    3.8244    7.6077 O   0  0  0  0  0  0  0  0  0  0  0  0
   -2.9028    2.8522    7.2671 O   0  0  0  0  0  0  0  0  0  0  0  0
   -4.7332    0.6223    6.4323 C   0  0  0  0  0  0  0  0  0  0  0  0
   -4.2526   -0.0339    7.6995 C   0  0  0  0  0  0  0  0  0  0  0  0
   -5.2205   -0.7852    8.2897 F   0  0  0  0  0  0  0  0  0  0  0  0
   -3.2005   -0.8700    7.4902 F   0  0  0  0  0  0  0  0  0  0  0  0
   -3.8340    0.8276    8.6555 F   0  0  0  0  0  0  0  0  0  0  0  0
   -9.9092   -0.6744    6.3072 C   0  0  0  0  0  0  0  0  0  0  0  0
   -9.5597    0.7621    5.8880 C   0  0  0  0  0  0  0  0  0  0  0  0
   -8.9177    1.5406    6.9315 N   0  0  0  0  0  0  0  0  0  0  0  0
  1  2  2  0
  2  3  1  0
  3  4  1  0
  4  5  1  0
  5  6  1  0
  6  7  1  0
  7  8  1  0
  8  9  1  0
  9 10  2  0
  9 11  1  0
 11 12  2  0
 12 13  1  0
 12 14  1  0
 14 15  2  0
 15 16  1  0
 16 17  1  0
 17 18  2  0
 17 19  1  0
 16 20  2  0
 20 21  1  0
 21 22  1  0
 21 23  1  0
 21 24  1  0
  4 25  1  0
 25 26  1  0
 26 27  1  0
 27  2  1  0
 20 11  1  0
M  CHG  2  17   1  19  -1
M  END
>  <ref_mols>  (2059) 
7gpj-a

>  <gnina_score>  (2059) 
5.157

>  <smina_score_min>  (2059) 
-5.129

>  <ref_pdb>  (2059) 
7gpj-a

>  <inspiration_score>  (2059) 
None

>  <inchikey>  (2059) 
DCUQKDAOOVZECI-UHFFFAOYSA-N

>  <tags>  (2059) 
BulkDock Fragalysis export,openbind_d68ev3c_c2_elabs_scored,openbind_d68ev3c_c2_elabs_scored_4.5plus,openbind_d68ev3c_c2_elabs,openbind_d68ev3c_c2_elabs_scored_5plus,syndirella_product,openbind_d68ev3c_c2_elabs_scored_top80percent,syndirella_placed

>  <smiles>  (2059) 
O=C1CN(CCCNC(=O)c2c(F)ccc([N+](=O)[O-])c2C(F)(F)F)CCN1

>  <subsites>  (2059) 
None

>  <rmsd(smina/fragmenstein)>  (2059) 
0.593

>  <alias>  (2059) 
None

>  <energy_score>  (2059) 
-57.51569

>  <HIPPO Pose ID>  (2059) 
139070

>  <distance_score>  (2059) 
0.683865

>  <HIPPO Compound ID>  (2059) 
165213

>  <gnina_score_min>  (2059) 
5.178

>  <name>  (2059) 
P139070

>  <exports>  (2059) 
['/opt/xchem-fragalysis-2/maxwin/BulkDock/OUTPUTS/openbind_d68ev3c_c2_elabs_1LOTQJ3.sdf', '/opt/xchem-fragalysis-2/maxwin/BulkDock/OUTPUTS/openbind_d68ev3c_c2_elabs_1LSYI5W.sdf']

$$$$
P139072
     RDKit          3D

 27 28  0  0  0  0  0  0  0  0999 V2000
   -6.3881    3.3556    2.7835 C   0  0  0  0  0  0  0  0  0  0  0  0
   -5.5304    2.2162    2.7549 O   0  0  0  0  0  0  0  0  0  0  0  0
   -5.2323    1.7179    3.9982 C   0  0  0  0  0  0  0  0  0  0  0  0
   -5.3564    0.3317    4.1099 C   0  0  0  0  0  0  0  0  0  0  0  0
   -5.0746   -0.3066    5.3229 C   0  0  0  0  0  0  0  0  0  0  0  0
   -5.2848   -1.7738    5.4260 C   0  0  0  0  0  0  0  0  0  0  0  0
   -4.3977   -2.4491    5.7480 O   0  0  0  0  0  0  0  0  0  0  0  0
   -6.7334   -2.1318    5.0939 N   0  0  0  0  0  0  0  0  0  0  0  0
   -7.4303   -3.3914    5.1783 C   0  0  0  0  0  0  0  0  0  0  0  0
   -8.1703   -3.5915    6.5225 C   0  0  0  0  0  0  0  0  0  0  0  0
   -9.2345   -2.6353    6.8733 N   0  0  0  0  0  0  0  0  0  0  0  0
  -10.4046   -2.7184    5.9824 C   0  0  0  0  0  0  0  0  0  0  0  0
  -11.1791   -1.4049    5.8135 C   0  0  0  0  0  0  0  0  0  0  0  0
  -10.2793   -0.3163    5.5007 N   0  0  0  0  0  0  0  0  0  0  0  0
   -9.0252   -0.2817    6.0607 C   0  0  0  0  0  0  0  0  0  0  0  0
   -8.1843    0.5104    5.6416 O   0  0  0  0  0  0  0  0  0  0  0  0
   -8.7605   -1.2734    7.2054 C   0  0  1  0  0  0  0  0  0  0  0  0
   -9.4196   -0.7435    8.4767 C   0  0  0  0  0  0  0  0  0  0  0  0
   -4.6268    0.4276    6.4287 C   0  0  0  0  0  0  0  0  0  0  0  0
   -4.3006   -0.2395    7.7418 C   0  0  0  0  0  0  0  0  0  0  0  0
   -5.3768   -0.8324    8.3197 F   0  0  0  0  0  0  0  0  0  0  0  0
   -3.8397    0.6560    8.6640 F   0  0  0  0  0  0  0  0  0  0  0  0
   -3.3183   -1.1725    7.6550 F   0  0  0  0  0  0  0  0  0  0  0  0
   -4.4946    1.8264    6.2956 C   0  0  0  0  0  0  0  0  0  0  0  0
   -4.7657    2.4751    5.0834 C   0  0  0  0  0  0  0  0  0  0  0  0
   -4.5988    3.8205    4.8939 O   0  0  0  0  0  0  0  0  0  0  0  0
   -3.7033    4.4902    5.7747 C   0  0  0  0  0  0  0  0  0  0  0  0
  1  2  1  0
  2  3  1  0
  3  4  2  0
  4  5  1  0
  5  6  1  0
  6  7  2  0
  6  8  1  0
  8  9  1  0
  9 10  1  0
 10 11  1  0
 11 12  1  0
 12 13  1  0
 13 14  1  0
 14 15  1  0
 15 16  2  0
 15 17  1  0
 17 18  1  1
  5 19  2  0
 19 20  1  0
 20 21  1  0
 20 22  1  0
 20 23  1  0
 19 24  1  0
 24 25  2  0
 25 26  1  0
 26 27  1  0
 25  3  1  0
 17 11  1  0
M  END
>  <ref_mols>  (2060) 
7gpj-a

>  <gnina_score>  (2060) 
5.201

>  <smina_score_min>  (2060) 
-4.856

>  <ref_pdb>  (2060) 
7gpj-a

>  <inspiration_score>  (2060) 
None

>  <inchikey>  (2060) 
HGQICEKPQMHNLD-SNVBAGLBSA-N

>  <tags>  (2060) 
BulkDock Fragalysis export,openbind_d68ev3c_c2_elabs_scored,openbind_d68ev3c_c2_elabs_scored_4.5plus,openbind_d68ev3c_c2_elabs,openbind_d68ev3c_c2_elabs_scored_5plus,syndirella_product,openbind_d68ev3c_c2_elabs_scored_top80percent,syndirella_placed

>  <smiles>  (2060) 
COc1cc(C(=O)NCCN2CCNC(=O)[C@H]2C)c(C(F)(F)F)cc1OC

>  <subsites>  (2060) 
None

>  <rmsd(smina/fragmenstein)>  (2060) 
0.946

>  <alias>  (2060) 
None

>  <energy_score>  (2060) 
-37.836506

>  <HIPPO Pose ID>  (2060) 
139072

>  <distance_score>  (2060) 
0.652817

>  <HIPPO Compound ID>  (2060) 
165230

>  <gnina_score_min>  (2060) 
5.273

>  <name>  (2060) 
P139072

>  <exports>  (2060) 
['/opt/xchem-fragalysis-2/maxwin/BulkDock/OUTPUTS/openbind_d68ev3c_c2_elabs_1LOTQJ3.sdf', '/opt/xchem-fragalysis-2/maxwin/BulkDock/OUTPUTS/openbind_d68ev3c_c2_elabs_1LSYI5W.sdf']

$$$$
P139073
     RDKit          3D

 27 29  0  0  0  0  0  0  0  0999 V2000
   -6.4268    1.5632    1.9561 C   0  0  0  0  0  0  0  0  0  0  0  0
   -5.8020    2.2928    3.0021 O   0  0  0  0  0  0  0  0  0  0  0  0
   -5.4908    1.6182    4.1553 C   0  0  0  0  0  0  0  0  0  0  0  0
   -5.6215    0.2375    4.3204 C   0  0  0  0  0  0  0  0  0  0  0  0
   -5.2719   -0.3590    5.5393 C   0  0  0  0  0  0  0  0  0  0  0  0
   -5.3996   -1.8269    5.6679 C   0  0  0  0  0  0  0  0  0  0  0  0
   -4.4986   -2.5065    5.3482 O   0  0  0  0  0  0  0  0  0  0  0  0
   -6.7502   -2.1943    6.1908 N   0  0  0  0  0  0  0  0  0  0  0  0
   -7.7825   -2.3761    5.0322 C   0  0  0  0  0  0  0  0  0  0  0  0
   -8.6589   -3.1749    5.9586 C   0  0  0  0  0  0  0  0  0  0  0  0
   -9.5561   -2.3921    6.8376 N   0  0  0  0  0  0  0  0  0  0  0  0
  -10.6921   -1.8805    6.0587 C   0  0  0  0  0  0  0  0  0  0  0  0
  -11.7766   -1.3431    6.9924 C   0  0  0  0  0  0  0  0  0  0  0  0
  -11.2587   -0.3954    7.9546 N   0  0  0  0  0  0  0  0  0  0  0  0
   -9.9979   -0.5447    8.4853 C   0  0  0  0  0  0  0  0  0  0  0  0
   -9.7110    0.0504    9.5242 O   0  0  0  0  0  0  0  0  0  0  0  0
   -8.9606   -1.3141    7.6555 C   0  0  0  0  0  0  0  0  0  0  0  0
   -7.3362   -3.5487    6.5640 C   0  0  0  0  0  0  0  0  0  0  0  0
   -4.7647    0.3973    6.5974 C   0  0  0  0  0  0  0  0  0  0  0  0
   -4.3585   -0.2607    7.8863 C   0  0  0  0  0  0  0  0  0  0  0  0
   -3.6664    0.5877    8.6948 F   0  0  0  0  0  0  0  0  0  0  0  0
   -3.5420   -1.3320    7.7115 F   0  0  0  0  0  0  0  0  0  0  0  0
   -5.4232   -0.6861    8.6096 F   0  0  0  0  0  0  0  0  0  0  0  0
   -4.6450    1.7882    6.4287 C   0  0  0  0  0  0  0  0  0  0  0  0
   -4.9857    2.3975    5.2144 C   0  0  0  0  0  0  0  0  0  0  0  0
   -4.8842    3.7464    4.9842 O   0  0  0  0  0  0  0  0  0  0  0  0
   -3.9834    4.4732    5.8111 C   0  0  0  0  0  0  0  0  0  0  0  0
  1  2  1  0
  2  3  1  0
  3  4  2  0
  4  5  1  0
  5  6  1  0
  6  7  2  0
  6  8  1  0
  8  9  1  0
  9 10  1  0
 10 11  1  0
 11 12  1  0
 12 13  1  0
 13 14  1  0
 14 15  1  0
 15 16  2  0
 15 17  1  0
 10 18  1  0
  5 19  2  0
 19 20  1  0
 20 21  1  0
 20 22  1  0
 20 23  1  0
 19 24  1  0
 24 25  2  0
 25 26  1  0
 26 27  1  0
 25  3  1  0
 18  8  1  0
 17 11  1  0
M  END
>  <ref_mols>  (2061) 
7gpj-a

>  <gnina_score>  (2061) 
5.224

>  <smina_score_min>  (2061) 
-5.589

>  <ref_pdb>  (2061) 
7gpj-a

>  <inspiration_score>  (2061) 
None

>  <inchikey>  (2061) 
RMCDIUSGFINDED-UHFFFAOYSA-N

>  <tags>  (2061) 
BulkDock Fragalysis export,openbind_d68ev3c_c2_elabs_scored,openbind_d68ev3c_c2_elabs_scored_4.5plus,openbind_d68ev3c_c2_elabs,openbind_d68ev3c_c2_elabs_scored_5plus,syndirella_product,openbind_d68ev3c_c2_elabs_scored_top80percent,syndirella_placed

>  <smiles>  (2061) 
COc1cc(C(=O)N2CC(N3CCNC(=O)C3)C2)c(C(F)(F)F)cc1OC

>  <subsites>  (2061) 
None

>  <rmsd(smina/fragmenstein)>  (2061) 
0.789

>  <alias>  (2061) 
None

>  <energy_score>  (2061) 
-21.667169

>  <HIPPO Pose ID>  (2061) 
139073

>  <distance_score>  (2061) 
0.735222

>  <HIPPO Compound ID>  (2061) 
165232

>  <gnina_score_min>  (2061) 
5.358

>  <name>  (2061) 
P139073

>  <exports>  (2061) 
['/opt/xchem-fragalysis-2/maxwin/BulkDock/OUTPUTS/openbind_d68ev3c_c2_elabs_1LOTQJ3.sdf', '/opt/xchem-fragalysis-2/maxwin/BulkDock/OUTPUTS/openbind_d68ev3c_c2_elabs_1LSYI5W.sdf']

$$$$
P139074
     RDKit          3D

 27 29  0  0  0  0  0  0  0  0999 V2000
  -12.8921   -1.3844    7.1617 O   0  0  0  0  0  0  0  0  0  0  0  0
  -11.6684   -1.3113    7.2766 C   0  0  0  0  0  0  0  0  0  0  0  0
  -10.7044   -2.1334    6.4121 C   0  0  0  0  0  0  0  0  0  0  0  0
   -9.3644   -2.3529    7.0150 N   0  0  0  0  0  0  0  0  0  0  0  0
   -8.5169   -3.0607    6.0234 C   0  0  0  0  0  0  0  0  0  0  0  0
   -7.1172   -3.3491    6.4922 C   0  0  0  0  0  0  0  0  0  0  0  0
   -6.6524   -1.9631    6.0810 N   0  0  0  0  0  0  0  0  0  0  0  0
   -5.3822   -1.5122    5.4304 C   0  0  0  0  0  0  0  0  0  0  0  0
   -4.4800   -2.1351    5.0145 O   0  0  0  0  0  0  0  0  0  0  0  0
   -5.2641   -0.0409    5.4267 C   0  0  0  0  0  0  0  0  0  0  0  0
   -5.4557    0.6908    4.2391 C   0  0  0  0  0  0  0  0  0  0  0  0
   -5.7117    0.0571    2.8946 C   0  0  0  0  0  0  0  0  0  0  0  0
   -6.2170   -1.2010    2.9223 F   0  0  0  0  0  0  0  0  0  0  0  0
   -4.5810   -0.0053    2.1370 F   0  0  0  0  0  0  0  0  0  0  0  0
   -6.6024    0.7796    2.1539 F   0  0  0  0  0  0  0  0  0  0  0  0
   -5.3080    2.0900    4.2847 C   0  0  0  0  0  0  0  0  0  0  0  0
   -4.9559    2.7364    5.4661 C   0  0  0  0  0  0  0  0  0  0  0  0
   -4.7166    1.9935    6.6184 C   0  0  0  0  0  0  0  0  0  0  0  0
   -4.8420    0.5934    6.6108 C   0  0  0  0  0  0  0  0  0  0  0  0
   -4.4860   -0.1905    7.8517 C   0  0  0  0  0  0  0  0  0  0  0  0
   -5.5776   -0.5375    8.5793 F   0  0  0  0  0  0  0  0  0  0  0  0
   -3.7884   -1.3306    7.6112 F   0  0  0  0  0  0  0  0  0  0  0  0
   -3.6957    0.5344    8.6928 F   0  0  0  0  0  0  0  0  0  0  0  0
   -7.7876   -2.1988    5.0241 C   0  0  0  0  0  0  0  0  0  0  0  0
   -8.8318   -1.1246    7.6136 C   0  0  0  0  0  0  0  0  0  0  0  0
   -9.8035   -0.5540    8.6481 C   0  0  0  0  0  0  0  0  0  0  0  0
  -11.1303   -0.3625    8.1125 N   0  0  0  0  0  0  0  0  0  0  0  0
  1  2  2  0
  2  3  1  0
  3  4  1  0
  4  5  1  0
  5  6  1  0
  6  7  1  0
  7  8  1  0
  8  9  2  0
  8 10  1  0
 10 11  2  0
 11 12  1  0
 12 13  1  0
 12 14  1  0
 12 15  1  0
 11 16  1  0
 16 17  2  0
 17 18  1  0
 18 19  2  0
 19 20  1  0
 20 21  1  0
 20 22  1  0
 20 23  1  0
  7 24  1  0
  4 25  1  0
 25 26  1  0
 26 27  1  0
 27  2  1  0
 24  5  1  0
 19 10  1  0
M  END
>  <ref_mols>  (2062) 
7gpj-a

>  <gnina_score>  (2062) 
5.303

>  <smina_score_min>  (2062) 
-5.174

>  <ref_pdb>  (2062) 
7gpj-a

>  <inspiration_score>  (2062) 
None

>  <inchikey>  (2062) 
UNNCCZGBWQUWIF-UHFFFAOYSA-N

>  <tags>  (2062) 
BulkDock Fragalysis export,openbind_d68ev3c_c2_elabs_scored,openbind_d68ev3c_c2_elabs_scored_4.5plus,openbind_d68ev3c_c2_elabs,openbind_d68ev3c_c2_elabs_scored_5plus,syndirella_product,openbind_d68ev3c_c2_elabs_scored_top80percent,syndirella_placed

>  <smiles>  (2062) 
O=C1CN(C2CN(C(=O)c3c(C(F)(F)F)cccc3C(F)(F)F)C2)CCN1

>  <subsites>  (2062) 
None

>  <rmsd(smina/fragmenstein)>  (2062) 
0.685

>  <alias>  (2062) 
None

>  <energy_score>  (2062) 
-39.96036

>  <HIPPO Pose ID>  (2062) 
139074

>  <distance_score>  (2062) 
0.677991

>  <HIPPO Compound ID>  (2062) 
165248

>  <gnina_score_min>  (2062) 
5.323

>  <name>  (2062) 
P139074

>  <exports>  (2062) 
['/opt/xchem-fragalysis-2/maxwin/BulkDock/OUTPUTS/openbind_d68ev3c_c2_elabs_1LOTQJ3.sdf', '/opt/xchem-fragalysis-2/maxwin/BulkDock/OUTPUTS/openbind_d68ev3c_c2_elabs_1LSYI5W.sdf']

$$$$
P139077
     RDKit          3D

 30 32  0  0  0  0  0  0  0  0999 V2000
   -2.2275    3.8470   25.3621 C   0  0  0  0  0  0  0  0  0  0  0  0
   -1.5513    3.0204   26.3142 O   0  0  0  0  0  0  0  0  0  0  0  0
   -2.2483    1.9210   26.6858 C   0  0  0  0  0  0  0  0  0  0  0  0
   -3.3453    1.5774   26.2797 O   0  0  0  0  0  0  0  0  0  0  0  0
   -1.4432    1.0921   27.6084 C   0  0  0  0  0  0  0  0  0  0  0  0
   -0.4684    1.6235   28.4506 C   0  0  0  0  0  0  0  0  0  0  0  0
    0.2486    0.7788   29.3095 C   0  0  0  0  0  0  0  0  0  0  0  0
    0.0049   -0.6097   29.3505 C   0  0  0  0  0  0  0  0  0  0  0  0
    0.7584   -1.5657   30.3011 C   0  0  1  0  0  0  0  0  0  0  0  0
    1.6246   -2.4085   29.5292 O   0  0  0  0  0  0  0  0  0  0  0  0
    2.7185   -1.7941   28.8679 C   0  0  0  0  0  0  0  0  0  0  0  0
    1.4858   -0.8263   31.4310 C   0  0  0  0  0  0  0  0  0  0  0  0
    1.7415   -1.7830   32.5698 C   0  0  0  0  0  0  0  0  0  0  0  0
    0.4465   -2.5622   32.8602 C   0  0  0  0  0  0  0  0  0  0  0  0
    0.0938   -3.7006   31.9170 N   0  0  0  0  0  0  0  0  0  0  0  0
    1.1783   -4.6361   31.8394 C   0  0  0  0  0  0  0  0  0  0  0  0
    2.1222   -4.6834   31.0861 O   0  0  0  0  0  0  0  0  0  0  0  0
    1.0367   -5.8474   32.8365 C   0  0  2  0  0  0  0  0  0  0  0  0
   -0.0195   -6.7080   32.2869 N   0  0  0  0  0  0  0  0  0  0  0  0
   -1.0958   -7.2887   32.8720 C   0  0  0  0  0  0  0  0  0  0  0  0
   -1.7618   -7.9923   31.9827 N   0  0  0  0  0  0  0  0  0  0  0  0
   -1.1290   -7.8661   30.7776 N   0  0  0  0  0  0  0  0  0  0  0  0
   -0.0838   -7.1008   30.9719 C   0  0  0  0  0  0  0  0  0  0  0  0
    1.1661   -5.6866   34.3940 C   0  0  0  0  0  0  0  0  0  0  0  0
    2.4447   -4.8747   34.7224 C   0  0  0  0  0  0  0  0  0  0  0  0
   -0.0707   -5.0687   35.0751 C   0  0  0  0  0  0  0  0  0  0  0  0
    1.4173   -7.0657   35.0661 C   0  0  0  0  0  0  0  0  0  0  0  0
   -0.2849   -2.5309   31.0065 C   0  0  0  0  0  0  0  0  0  0  0  0
   -0.9474   -1.1218   28.4541 C   0  0  0  0  0  0  0  0  0  0  0  0
   -1.6729   -0.2818   27.6117 C   0  0  0  0  0  0  0  0  0  0  0  0
  1  2  1  0
  2  3  1  0
  3  4  2  0
  3  5  1  0
  5  6  2  0
  6  7  1  0
  7  8  2  0
  8  9  1  0
  9 10  1  6
 10 11  1  0
  9 12  1  0
 12 13  1  0
 13 14  1  0
 14 15  1  0
 15 16  1  0
 16 17  2  0
 16 18  1  0
 18 19  1  0
 19 20  1  0
 20 21  2  0
 21 22  1  0
 22 23  2  0
 18 24  1  1
 24 25  1  0
 24 26  1  0
 24 27  1  0
 15 28  1  0
  8 29  1  0
 29 30  2  0
 30  5  1  0
 28  9  1  0
 23 19  1  0
M  END
>  <ref_mols>  (2063) 
B0525a

>  <gnina_score>  (2063) 
5.501

>  <smina_score_min>  (2063) 
-7.064

>  <ref_pdb>  (2063) 
B0525a

>  <inspiration_score>  (2063) 
None

>  <inchikey>  (2063) 
HHAARNSNICVVIT-PGRDOPGGSA-N

>  <tags>  (2063) 
BulkDock Fragalysis export,openbind_d68ev3c_c2_elabs_scored,openbind_d68ev3c_c2_elabs_scored_4.5plus,openbind_d68ev3c_c2_elabs,openbind_d68ev3c_c2_elabs_scored_5plus,syndirella_product,openbind_d68ev3c_c2_elabs_scored_top80percent,syndirella_placed

>  <smiles>  (2063) 
COC(=O)c1ccc([C@@]2(OC)CCCN(C(=O)[C@H](n3cnnc3)C(C)(C)C)C2)cc1

>  <subsites>  (2063) 
None

>  <rmsd(smina/fragmenstein)>  (2063) 
0.417

>  <alias>  (2063) 
None

>  <energy_score>  (2063) 
-2.437337

>  <HIPPO Pose ID>  (2063) 
139077

>  <distance_score>  (2063) 
1.271985

>  <HIPPO Compound ID>  (2063) 
165268

>  <gnina_score_min>  (2063) 
5.522

>  <name>  (2063) 
P139077

>  <exports>  (2063) 
['/opt/xchem-fragalysis-2/maxwin/BulkDock/OUTPUTS/openbind_d68ev3c_c2_elabs_1LOTQJ3.sdf', '/opt/xchem-fragalysis-2/maxwin/BulkDock/OUTPUTS/openbind_d68ev3c_c2_elabs_1LSYI5W.sdf']

$$$$
P139078
     RDKit          3D

 31 33  0  0  0  0  0  0  0  0999 V2000
   -2.6100    3.6293   25.1071 C   0  0  0  0  0  0  0  0  0  0  0  0
   -1.7220    2.9359   25.9904 O   0  0  0  0  0  0  0  0  0  0  0  0
   -2.2672    1.8893   26.6578 C   0  0  0  0  0  0  0  0  0  0  0  0
   -3.4041    1.4676   26.5340 O   0  0  0  0  0  0  0  0  0  0  0  0
   -1.2457    1.2467   27.5279 C   0  0  0  0  0  0  0  0  0  0  0  0
   -0.0037    1.8317   27.7755 C   0  0  0  0  0  0  0  0  0  0  0  0
    0.9669    1.1392   28.5086 C   0  0  0  0  0  0  0  0  0  0  0  0
    0.7093   -0.1268   29.0647 C   0  0  0  0  0  0  0  0  0  0  0  0
    1.8092   -0.9657   29.7431 C   0  0  2  0  0  0  0  0  0  0  0  0
    3.0966   -0.2842   29.6888 O   0  0  0  0  0  0  0  0  0  0  0  0
    3.3407    0.7439   30.6419 C   0  0  0  0  0  0  0  0  0  0  0  0
    2.0252   -2.1983   28.8487 C   0  0  0  0  0  0  0  0  0  0  0  0
    2.8969   -3.1824   29.5811 C   0  0  0  0  0  0  0  0  0  0  0  0
    2.8163   -2.9218   31.0811 C   0  0  0  0  0  0  0  0  0  0  0  0
    1.4541   -2.8743   31.7533 N   0  0  0  0  0  0  0  0  0  0  0  0
    0.6589   -3.9864   31.3397 C   0  0  0  0  0  0  0  0  0  0  0  0
   -0.1150   -4.0960   30.4238 O   0  0  0  0  0  0  0  0  0  0  0  0
    0.9940   -5.2574   32.2267 C   0  0  2  0  0  0  0  0  0  0  0  0
    0.1663   -6.3669   31.7130 N   0  0  0  0  0  0  0  0  0  0  0  0
   -0.9869   -6.9234   32.1187 C   0  0  0  0  0  0  0  0  0  0  0  0
   -1.4470   -7.8765   31.3660 N   0  0  0  0  0  0  0  0  0  0  0  0
   -0.5594   -7.9222   30.3372 N   0  0  0  0  0  0  0  0  0  0  0  0
    0.4033   -6.9426   30.4918 C   0  0  0  0  0  0  0  0  0  0  0  0
    1.2794   -6.6695   29.6865 O   0  0  0  0  0  0  0  0  0  0  0  0
    1.0495   -5.0900   33.7928 C   0  0  0  0  0  0  0  0  0  0  0  0
    1.0857   -6.4641   34.5076 C   0  0  0  0  0  0  0  0  0  0  0  0
    2.3546   -4.3816   34.2393 C   0  0  0  0  0  0  0  0  0  0  0  0
   -0.1322   -4.2706   34.3232 C   0  0  0  0  0  0  0  0  0  0  0  0
    1.4977   -1.4303   31.2416 C   0  0  0  0  0  0  0  0  0  0  0  0
   -0.5683   -0.6764   28.8512 C   0  0  0  0  0  0  0  0  0  0  0  0
   -1.5162   -0.0139   28.0656 C   0  0  0  0  0  0  0  0  0  0  0  0
  1  2  1  0
  2  3  1  0
  3  4  2  0
  3  5  1  0
  5  6  2  0
  6  7  1  0
  7  8  2  0
  8  9  1  0
  9 10  1  1
 10 11  1  0
  9 12  1  0
 12 13  1  0
 13 14  1  0
 14 15  1  0
 15 16  1  0
 16 17  2  0
 16 18  1  0
 18 19  1  0
 19 20  1  0
 20 21  2  0
 21 22  1  0
 22 23  1  0
 23 24  2  0
 18 25  1  1
 25 26  1  0
 25 27  1  0
 25 28  1  0
 15 29  1  0
  8 30  1  0
 30 31  2  0
 31  5  1  0
 29  9  1  0
 23 19  1  0
M  END
>  <ref_mols>  (2064) 
B0525a

>  <gnina_score>  (2064) 
5.714

>  <smina_score_min>  (2064) 
-6.323

>  <ref_pdb>  (2064) 
B0525a

>  <inspiration_score>  (2064) 
None

>  <inchikey>  (2064) 
AYZUZNXARJTPJE-JTSKRJEESA-N

>  <tags>  (2064) 
BulkDock Fragalysis export,openbind_d68ev3c_c2_elabs_scored,openbind_d68ev3c_c2_elabs_scored_4.5plus,openbind_d68ev3c_c2_elabs,openbind_d68ev3c_c2_elabs_scored_5plus,syndirella_product,openbind_d68ev3c_c2_elabs_scored_top80percent,syndirella_placed

>  <smiles>  (2064) 
COC(=O)c1ccc([C@]2(OC)CCCN(C(=O)[C@H](n3cn[nH]c3=O)C(C)(C)C)C2)cc1

>  <subsites>  (2064) 
None

>  <rmsd(smina/fragmenstein)>  (2064) 
1.136

>  <alias>  (2064) 
None

>  <energy_score>  (2064) 
-2.514937

>  <HIPPO Pose ID>  (2064) 
139078

>  <distance_score>  (2064) 
1.099991

>  <HIPPO Compound ID>  (2064) 
165270

>  <gnina_score_min>  (2064) 
5.798

>  <name>  (2064) 
P139078

>  <exports>  (2064) 
['/opt/xchem-fragalysis-2/maxwin/BulkDock/OUTPUTS/openbind_d68ev3c_c2_elabs_1LOTQJ3.sdf', '/opt/xchem-fragalysis-2/maxwin/BulkDock/OUTPUTS/openbind_d68ev3c_c2_elabs_1LSYI5W.sdf']

$$$$
P139080
     RDKit          3D

 32 35  0  0  0  0  0  0  0  0999 V2000
   -1.9091    3.9737   25.8612 C   0  0  0  0  0  0  0  0  0  0  0  0
   -1.2845    3.0480   26.7556 O   0  0  0  0  0  0  0  0  0  0  0  0
   -2.0212    1.9432   27.0242 C   0  0  0  0  0  0  0  0  0  0  0  0
   -3.1334    1.6856   26.5964 O   0  0  0  0  0  0  0  0  0  0  0  0
   -1.2349    0.9984   27.8543 C   0  0  0  0  0  0  0  0  0  0  0  0
   -0.1091    1.3745   28.5914 C   0  0  0  0  0  0  0  0  0  0  0  0
    0.6621    0.3982   29.2372 C   0  0  0  0  0  0  0  0  0  0  0  0
    0.3265   -0.9683   29.1550 C   0  0  0  0  0  0  0  0  0  0  0  0
    1.3070   -2.0314   29.6438 C   0  0  2  0  0  0  0  0  0  0  0  0
    2.5747   -1.7024   29.0122 O   0  0  0  0  0  0  0  0  0  0  0  0
    1.0013   -3.4447   29.1537 C   0  0  0  0  0  0  0  0  0  0  0  0
    2.0105   -4.3868   29.7602 C   0  0  0  0  0  0  0  0  0  0  0  0
    2.5389   -3.7886   31.0621 C   0  0  0  0  0  0  0  0  0  0  0  0
    1.5241   -3.3083   32.0824 N   0  0  0  0  0  0  0  0  0  0  0  0
    0.4886   -4.2867   32.2510 C   0  0  0  0  0  0  0  0  0  0  0  0
   -0.5673   -4.4137   31.6842 O   0  0  0  0  0  0  0  0  0  0  0  0
    0.9288   -5.3694   33.2755 C   0  0  1  0  0  0  0  0  0  0  0  0
    1.9633   -4.9428   34.3241 C   0  0  0  0  0  0  0  0  0  0  0  0
   -0.2197   -6.1186   33.7868 N   0  0  0  0  0  0  0  0  0  0  0  0
   -0.8698   -7.1408   33.1329 C   0  0  0  0  0  0  0  0  0  0  0  0
   -0.6463   -7.6173   31.4912 S   0  0  0  0  0  0  0  0  0  0  0  0
   -1.6958   -7.7477   33.9441 N   0  0  0  0  0  0  0  0  0  0  0  0
   -1.6305   -7.1111   35.1486 N   0  0  0  0  0  0  0  0  0  0  0  0
   -0.8026   -6.0877   35.0361 C   0  0  0  0  0  0  0  0  0  0  0  0
   -0.5959   -5.1645   36.1117 C   0  0  0  0  0  0  0  0  0  0  0  0
   -0.3107   -5.4997   37.4215 C   0  0  0  0  0  0  0  0  0  0  0  0
   -0.2268   -4.3597   38.2722 C   0  0  0  0  0  0  0  0  0  0  0  0
   -0.4676   -3.1901   37.5879 C   0  0  0  0  0  0  0  0  0  0  0  0
   -0.8068   -3.4727   35.9361 S   0  0  0  0  0  0  0  0  0  0  0  0
    1.5761   -2.0385   31.2077 C   0  0  0  0  0  0  0  0  0  0  0  0
   -0.8580   -1.3094   28.4877 C   0  0  0  0  0  0  0  0  0  0  0  0
   -1.6164   -0.3415   27.8327 C   0  0  0  0  0  0  0  0  0  0  0  0
  1  2  1  0
  2  3  1  0
  3  4  2  0
  3  5  1  0
  5  6  2  0
  6  7  1  0
  7  8  2  0
  8  9  1  0
  9 10  1  6
  9 11  1  0
 11 12  1  0
 12 13  1  0
 13 14  1  0
 14 15  1  0
 15 16  2  0
 15 17  1  0
 17 18  1  1
 17 19  1  0
 19 20  1  0
 20 21  1  0
 20 22  2  0
 22 23  1  0
 23 24  2  0
 24 25  1  0
 25 26  2  0
 26 27  1  0
 27 28  2  0
 28 29  1  0
 14 30  1  0
  8 31  1  0
 31 32  2  0
 32  5  1  0
 30  9  1  0
 24 19  1  0
 29 25  1  0
M  END
>  <ref_mols>  (2065) 
B0525a

>  <gnina_score>  (2065) 
5.997

>  <smina_score_min>  (2065) 
-6.332

>  <ref_pdb>  (2065) 
B0525a

>  <inspiration_score>  (2065) 
None

>  <inchikey>  (2065) 
VXAPUMLVGUWXAX-PEBXRYMYSA-N

>  <tags>  (2065) 
BulkDock Fragalysis export,openbind_d68ev3c_c2_elabs_scored,openbind_d68ev3c_c2_elabs_scored_4.5plus,openbind_d68ev3c_c2_elabs,openbind_d68ev3c_c2_elabs_scored_5plus,syndirella_product,openbind_d68ev3c_c2_elabs_scored_top80percent,syndirella_placed

>  <smiles>  (2065) 
COC(=O)c1ccc([C@]2(O)CCCN(C(=O)[C@@H](C)n3c(S)nnc3-c3cccs3)C2)cc1

>  <subsites>  (2065) 
None

>  <rmsd(smina/fragmenstein)>  (2065) 
0.917

>  <alias>  (2065) 
None

>  <energy_score>  (2065) 
-9.477742

>  <HIPPO Pose ID>  (2065) 
139080

>  <distance_score>  (2065) 
1.512267

>  <HIPPO Compound ID>  (2065) 
165273

>  <gnina_score_min>  (2065) 
5.595

>  <name>  (2065) 
P139080

>  <exports>  (2065) 
['/opt/xchem-fragalysis-2/maxwin/BulkDock/OUTPUTS/openbind_d68ev3c_c2_elabs_1LOTQJ3.sdf', '/opt/xchem-fragalysis-2/maxwin/BulkDock/OUTPUTS/openbind_d68ev3c_c2_elabs_1LSYI5W.sdf']

$$$$
P142809
     RDKit          3D

 22 24  0  0  0  0  0  0  0  0999 V2000
    1.6075   -7.1765   35.8016 C   0  0  0  0  0  0  0  0  0  0  0  0
    0.1197   -7.1427   36.1127 C   0  0  0  0  0  0  0  0  0  0  0  0
   -0.6917   -6.2763   35.1513 C   0  0  0  0  0  0  0  0  0  0  0  0
   -0.8426   -6.8854   33.7961 C   0  0  0  0  0  0  0  0  0  0  0  0
   -1.7064   -7.8275   33.4767 N   0  0  0  0  0  0  0  0  0  0  0  0
   -1.5564   -8.1294   32.1504 N   0  0  0  0  0  0  0  0  0  0  0  0
   -0.6040   -7.3679   31.6843 C   0  0  0  0  0  0  0  0  0  0  0  0
   -0.0110   -7.4629   30.0835 S   0  0  0  0  0  0  0  0  0  0  0  0
   -0.1254   -6.5502   32.6701 N   0  0  0  0  0  0  0  0  0  0  0  0
    0.9710   -5.6118   32.5910 C   0  0  0  0  0  0  0  0  0  0  0  0
    0.6242   -4.4060   31.7473 C   0  0  0  0  0  0  0  0  0  0  0  0
    0.6773   -4.4283   30.5680 O   0  0  0  0  0  0  0  0  0  0  0  0
    0.1858   -3.3068   32.6844 N   0  0  0  0  0  0  0  0  0  0  0  0
   -0.1948   -1.9681   32.4250 C   0  0  2  0  0  0  0  0  0  0  0  0
   -0.1735   -1.3992   31.0300 C   0  0  0  0  0  0  0  0  0  0  0  0
   -1.0106   -1.9094   30.0223 C   0  0  0  0  0  0  0  0  0  0  0  0
   -1.0217   -1.3700   28.7348 C   0  0  0  0  0  0  0  0  0  0  0  0
   -0.1969   -0.2953   28.4257 C   0  0  0  0  0  0  0  0  0  0  0  0
    0.6285    0.2464   29.4036 C   0  0  0  0  0  0  0  0  0  0  0  0
    0.6261   -0.2919   30.6933 C   0  0  0  0  0  0  0  0  0  0  0  0
    1.0818   -2.3442   33.1988 C   0  0  2  0  0  0  0  0  0  0  0  0
    2.4638   -2.2102   32.6577 C   0  0  0  0  0  0  0  0  0  0  0  0
  1  2  1  0
  2  3  1  0
  3  4  1  0
  4  5  2  0
  5  6  1  0
  6  7  2  0
  7  8  1  0
  7  9  1  0
  9 10  1  0
 10 11  1  0
 11 12  2  0
 11 13  1  0
 13 14  1  0
 14 15  1  6
 15 16  2  0
 16 17  1  0
 17 18  2  0
 18 19  1  0
 19 20  2  0
 14 21  1  0
 21 22  1  6
  9  4  1  0
 21 13  1  0
 20 15  1  0
M  END
>  <ref_mols>  (2066) 
B0454b

>  <gnina_score>  (2066) 
5.217

>  <smina_score_min>  (2066) 
-5.563

>  <ref_pdb>  (2066) 
B0454b

>  <inspiration_score>  (2066) 
None

>  <inchikey>  (2066) 
WULCQJUWVVHCDW-UYHHGJEOSA-N

>  <tags>  (2066) 
BulkDock Fragalysis export,openbind_d68ev3c_c2_elabs_scored,openbind_d68ev3c_c2_elabs_scored_4.5plus,openbind_d68ev3c_c2_elabs,openbind_d68ev3c_c2_elabs_scored_5plus,syndirella_product,openbind_d68ev3c_c2_elabs_scored_top80percent,syndirella_placed

>  <smiles>  (2066) 
CCCc1nnc(S)n1CC(=O)N1[C@H](c2ccccc2)[C@@H]1C

>  <subsites>  (2066) 
None

>  <rmsd(smina/fragmenstein)>  (2066) 
1.174

>  <alias>  (2066) 
None

>  <energy_score>  (2066) 
-47.790914

>  <HIPPO Pose ID>  (2066) 
142809

>  <distance_score>  (2066) 
0.948339

>  <HIPPO Compound ID>  (2066) 
150871

>  <gnina_score_min>  (2066) 
5.454

>  <name>  (2066) 
P142809

>  <exports>  (2066) 
['/opt/xchem-fragalysis-2/maxwin/BulkDock/OUTPUTS/openbind_d68ev3c_c2_elabs_1LOTQJ3.sdf', '/opt/xchem-fragalysis-2/maxwin/BulkDock/OUTPUTS/openbind_d68ev3c_c2_elabs_1LSYI5W.sdf']

$$$$
P142821
     RDKit          3D

 22 24  0  0  0  0  0  0  0  0999 V2000
    1.9686   -3.8244   30.2517 C   0  0  0  0  0  0  0  0  0  0  0  0
    1.9584   -3.1234   31.5689 C   0  0  1  0  0  0  0  0  0  0  0  0
    1.0003   -2.0019   31.9433 C   0  0  1  0  0  0  0  0  0  0  0  0
    0.3534   -1.3606   30.7356 C   0  0  0  0  0  0  0  0  0  0  0  0
    1.0545   -0.2980   30.1214 C   0  0  0  0  0  0  0  0  0  0  0  0
    0.6362    0.2799   28.9223 C   0  0  0  0  0  0  0  0  0  0  0  0
   -0.5062   -0.1949   28.2973 C   0  0  0  0  0  0  0  0  0  0  0  0
   -1.2363   -1.2190   28.8871 C   0  0  0  0  0  0  0  0  0  0  0  0
   -0.8280   -1.7714   30.1063 C   0  0  0  0  0  0  0  0  0  0  0  0
    0.9121   -3.3143   32.5022 N   0  0  0  0  0  0  0  0  0  0  0  0
   -0.1669   -4.3639   32.3871 C   0  0  0  0  0  0  0  0  0  0  0  0
   -1.2278   -4.3155   31.8704 O   0  0  0  0  0  0  0  0  0  0  0  0
    0.4056   -5.6733   33.0113 C   0  0  2  0  0  0  0  0  0  0  0  0
   -0.2737   -6.7910   32.3526 N   0  0  0  0  0  0  0  0  0  0  0  0
   -0.1278   -7.0893   31.0206 C   0  0  0  0  0  0  0  0  0  0  0  0
   -0.9299   -8.0690   30.6863 N   0  0  0  0  0  0  0  0  0  0  0  0
   -1.6251   -8.4185   31.8099 N   0  0  0  0  0  0  0  0  0  0  0  0
   -1.2337   -7.6395   32.7945 C   0  0  0  0  0  0  0  0  0  0  0  0
    0.6102   -5.6933   34.5780 C   0  0  0  0  0  0  0  0  0  0  0  0
    1.7084   -4.6847   35.0037 C   0  0  0  0  0  0  0  0  0  0  0  0
    1.1092   -7.0723   35.0612 C   0  0  0  0  0  0  0  0  0  0  0  0
   -0.6570   -5.3281   35.3591 C   0  0  0  0  0  0  0  0  0  0  0  0
  2  1  1  6
  2  3  1  0
  3  4  1  6
  4  5  2  0
  5  6  1  0
  6  7  2  0
  7  8  1  0
  8  9  2  0
  3 10  1  0
 10 11  1  0
 11 12  2  0
 11 13  1  0
 13 14  1  0
 14 15  1  0
 15 16  2  0
 16 17  1  0
 17 18  2  0
 13 19  1  1
 19 20  1  0
 19 21  1  0
 19 22  1  0
 10  2  1  0
 18 14  1  0
  9  4  1  0
M  END
>  <ref_mols>  (2067) 
B0454b

>  <gnina_score>  (2067) 
5.026

>  <smina_score_min>  (2067) 
-6.352

>  <ref_pdb>  (2067) 
B0454b

>  <inspiration_score>  (2067) 
None

>  <inchikey>  (2067) 
SPGXXEMLSCCJML-NRRZZMFMSA-N

>  <tags>  (2067) 
BulkDock Fragalysis export,openbind_d68ev3c_c2_elabs_scored,openbind_d68ev3c_c2_elabs_scored_4.5plus,openbind_d68ev3c_c2_elabs,openbind_d68ev3c_c2_elabs_scored_5plus,syndirella_product,openbind_d68ev3c_c2_elabs_scored_top80percent,syndirella_placed

>  <smiles>  (2067) 
C[C@H]1[C@@H](c2ccccc2)N1C(=O)[C@H](n1cnnc1)C(C)(C)C

>  <subsites>  (2067) 
None

>  <rmsd(smina/fragmenstein)>  (2067) 
0.538

>  <alias>  (2067) 
None

>  <energy_score>  (2067) 
-27.553704

>  <HIPPO Pose ID>  (2067) 
142821

>  <distance_score>  (2067) 
0.703674

>  <HIPPO Compound ID>  (2067) 
150909

>  <gnina_score_min>  (2067) 
5.077

>  <name>  (2067) 
P142821

>  <exports>  (2067) 
['/opt/xchem-fragalysis-2/maxwin/BulkDock/OUTPUTS/openbind_d68ev3c_c2_elabs_1LOTQJ3.sdf', '/opt/xchem-fragalysis-2/maxwin/BulkDock/OUTPUTS/openbind_d68ev3c_c2_elabs_1LSYI5W.sdf']

$$$$
P142897
     RDKit          3D

 23 25  0  0  0  0  0  0  0  0999 V2000
    2.3933   -4.5341   28.8934 C   0  0  0  0  0  0  0  0  0  0  0  0
    1.8111   -5.6124   29.7963 C   0  0  0  0  0  0  0  0  0  0  0  0
    0.4404   -5.2293   30.3313 C   0  0  0  0  0  0  0  0  0  0  0  0
   -0.1340   -6.2211   31.3028 C   0  0  0  0  0  0  0  0  0  0  0  0
   -0.4719   -7.4649   31.0048 N   0  0  0  0  0  0  0  0  0  0  0  0
   -0.9472   -8.0701   32.1432 N   0  0  0  0  0  0  0  0  0  0  0  0
   -0.8965   -7.1881   33.1107 C   0  0  0  0  0  0  0  0  0  0  0  0
   -1.2253   -7.4891   34.7764 S   0  0  0  0  0  0  0  0  0  0  0  0
   -0.4752   -5.9796   32.6279 N   0  0  0  0  0  0  0  0  0  0  0  0
   -0.3808   -4.7435   33.4048 C   0  0  0  0  0  0  0  0  0  0  0  0
   -0.7232   -3.5164   32.5867 C   0  0  0  0  0  0  0  0  0  0  0  0
   -1.4517   -3.5583   31.6573 O   0  0  0  0  0  0  0  0  0  0  0  0
    0.1069   -2.3618   33.1380 N   0  0  0  0  0  0  0  0  0  0  0  0
    1.5161   -2.3207   32.5001 C   0  0  0  0  0  0  0  0  0  0  0  0
    1.6335   -0.9639   33.1737 C   0  0  0  0  0  0  0  0  0  0  0  0
    0.1718   -0.8678   32.7137 C   0  0  1  0  0  0  0  0  0  0  0  0
   -0.0746   -0.4823   31.1415 C   0  0  0  0  0  0  0  0  0  0  0  0
    0.8724    0.2899   30.4221 C   0  0  0  0  0  0  0  0  0  0  0  0
    0.7924    0.4996   29.0412 C   0  0  0  0  0  0  0  0  0  0  0  0
   -0.2581   -0.0500   28.3267 C   0  0  0  0  0  0  0  0  0  0  0  0
   -1.2278   -0.7653   29.0033 C   0  0  0  0  0  0  0  0  0  0  0  0
   -2.2444   -1.2925   28.3156 F   0  0  0  0  0  0  0  0  0  0  0  0
   -1.1641   -0.9470   30.3848 C   0  0  0  0  0  0  0  0  0  0  0  0
  1  2  1  0
  2  3  1  0
  3  4  1  0
  4  5  2  0
  5  6  1  0
  6  7  2  0
  7  8  1  0
  7  9  1  0
  9 10  1  0
 10 11  1  0
 11 12  2  0
 11 13  1  0
 13 14  1  0
 14 15  1  0
 15 16  1  0
 16 17  1  6
 17 18  2  0
 18 19  1  0
 19 20  2  0
 20 21  1  0
 21 22  1  0
 21 23  2  0
  9  4  1  0
 16 13  1  0
 23 17  1  0
M  END
>  <ref_mols>  (2068) 
B0454b

>  <gnina_score>  (2068) 
5.315

>  <smina_score_min>  (2068) 
-5.335

>  <ref_pdb>  (2068) 
B0454b

>  <inspiration_score>  (2068) 
None

>  <inchikey>  (2068) 
LIBBOWJGDDCFDV-ZDUSSCGKSA-N

>  <tags>  (2068) 
BulkDock Fragalysis export,openbind_d68ev3c_c2_elabs_scored,openbind_d68ev3c_c2_elabs_scored_4.5plus,openbind_d68ev3c_c2_elabs,openbind_d68ev3c_c2_elabs_scored_5plus,syndirella_product,openbind_d68ev3c_c2_elabs_scored_top80percent,syndirella_placed

>  <smiles>  (2068) 
CCCc1nnc(S)n1CC(=O)N1CC[C@H]1c1cccc(F)c1

>  <subsites>  (2068) 
None

>  <rmsd(smina/fragmenstein)>  (2068) 
0.656

>  <alias>  (2068) 
None

>  <energy_score>  (2068) 
-24.818775

>  <HIPPO Pose ID>  (2068) 
142897

>  <distance_score>  (2068) 
0.903408

>  <HIPPO Compound ID>  (2068) 
151066

>  <gnina_score_min>  (2068) 
5.55

>  <name>  (2068) 
P142897

>  <exports>  (2068) 
['/opt/xchem-fragalysis-2/maxwin/BulkDock/OUTPUTS/openbind_d68ev3c_c2_elabs_1LOTQJ3.sdf', '/opt/xchem-fragalysis-2/maxwin/BulkDock/OUTPUTS/openbind_d68ev3c_c2_elabs_1LSYI5W.sdf']

$$$$
P142904
     RDKit          3D

 23 25  0  0  0  0  0  0  0  0999 V2000
    3.2368   -2.9801   32.2913 C   0  0  0  0  0  0  0  0  0  0  0  0
    1.8460   -3.1307   31.7912 C   0  0  2  0  0  0  0  0  0  0  0  0
    0.7962   -2.0636   32.1239 C   0  0  1  0  0  0  0  0  0  0  0  0
    0.2345   -1.4836   30.8459 C   0  0  0  0  0  0  0  0  0  0  0  0
    0.9503   -0.4219   30.2455 C   0  0  0  0  0  0  0  0  0  0  0  0
    0.5896    0.1190   29.0109 C   0  0  0  0  0  0  0  0  0  0  0  0
   -0.5077   -0.3936   28.3368 C   0  0  0  0  0  0  0  0  0  0  0  0
   -1.2459   -1.4241   28.9072 C   0  0  0  0  0  0  0  0  0  0  0  0
   -0.8929   -1.9448   30.1576 C   0  0  0  0  0  0  0  0  0  0  0  0
    0.7783   -3.3781   32.6722 N   0  0  0  0  0  0  0  0  0  0  0  0
   -0.2040   -4.5118   32.4859 C   0  0  0  0  0  0  0  0  0  0  0  0
   -1.2309   -4.5455   31.9012 O   0  0  0  0  0  0  0  0  0  0  0  0
    0.4410   -5.7825   33.1518 C   0  0  2  0  0  0  0  0  0  0  0  0
   -0.3011   -6.9349   32.6075 N   0  0  0  0  0  0  0  0  0  0  0  0
   -0.2482   -7.3138   31.3062 C   0  0  0  0  0  0  0  0  0  0  0  0
   -1.1317   -8.1808   30.9271 N   0  0  0  0  0  0  0  0  0  0  0  0
   -1.8528   -8.3920   32.0618 N   0  0  0  0  0  0  0  0  0  0  0  0
   -1.3980   -7.5830   33.1003 C   0  0  0  0  0  0  0  0  0  0  0  0
   -1.9261   -7.5001   34.1949 O   0  0  0  0  0  0  0  0  0  0  0  0
    0.7260   -5.7369   34.7036 C   0  0  0  0  0  0  0  0  0  0  0  0
    1.9927   -4.8905   35.0000 C   0  0  0  0  0  0  0  0  0  0  0  0
   -0.4170   -5.1150   35.5226 C   0  0  0  0  0  0  0  0  0  0  0  0
    1.0545   -7.1400   35.2620 C   0  0  0  0  0  0  0  0  0  0  0  0
  2  1  1  1
  2  3  1  0
  3  4  1  6
  4  5  2  0
  5  6  1  0
  6  7  2  0
  7  8  1  0
  8  9  2  0
  3 10  1  0
 10 11  1  0
 11 12  2  0
 11 13  1  0
 13 14  1  0
 14 15  1  0
 15 16  2  0
 16 17  1  0
 17 18  1  0
 18 19  2  0
 13 20  1  1
 20 21  1  0
 20 22  1  0
 20 23  1  0
 10  2  1  0
 18 14  1  0
  9  4  1  0
M  END
>  <ref_mols>  (2069) 
B0454b

>  <gnina_score>  (2069) 
5.191

>  <smina_score_min>  (2069) 
-6.259

>  <ref_pdb>  (2069) 
B0454b

>  <inspiration_score>  (2069) 
None

>  <inchikey>  (2069) 
CLVJFCQENLKOMI-BVFBRPIKSA-N

>  <tags>  (2069) 
BulkDock Fragalysis export,openbind_d68ev3c_c2_elabs_scored,openbind_d68ev3c_c2_elabs_scored_4.5plus,openbind_d68ev3c_c2_elabs,openbind_d68ev3c_c2_elabs_scored_5plus,syndirella_product,openbind_d68ev3c_c2_elabs_scored_top80percent,syndirella_placed

>  <smiles>  (2069) 
C[C@@H]1[C@@H](c2ccccc2)N1C(=O)[C@H](n1cn[nH]c1=O)C(C)(C)C

>  <subsites>  (2069) 
None

>  <rmsd(smina/fragmenstein)>  (2069) 
0.851

>  <alias>  (2069) 
None

>  <energy_score>  (2069) 
-41.585421

>  <HIPPO Pose ID>  (2069) 
142904

>  <distance_score>  (2069) 
0.617508

>  <HIPPO Compound ID>  (2069) 
151086

>  <gnina_score_min>  (2069) 
5.227

>  <name>  (2069) 
P142904

>  <exports>  (2069) 
['/opt/xchem-fragalysis-2/maxwin/BulkDock/OUTPUTS/openbind_d68ev3c_c2_elabs_1LOTQJ3.sdf', '/opt/xchem-fragalysis-2/maxwin/BulkDock/OUTPUTS/openbind_d68ev3c_c2_elabs_1LSYI5W.sdf']

$$$$
P142913
     RDKit          3D

 23 26  0  0  0  0  0  0  0  0999 V2000
   -1.5844   -3.7278   31.7198 O   0  0  0  0  0  0  0  0  0  0  0  0
   -0.8787   -3.5711   32.6538 C   0  0  0  0  0  0  0  0  0  0  0  0
   -0.4057   -4.7287   33.5184 C   0  0  0  0  0  0  0  0  0  0  0  0
   -0.4504   -5.9842   32.7761 N   0  0  0  0  0  0  0  0  0  0  0  0
   -0.9502   -7.1811   33.1945 C   0  0  0  0  0  0  0  0  0  0  0  0
   -1.3336   -7.5176   34.8395 S   0  0  0  0  0  0  0  0  0  0  0  0
   -1.0150   -8.0193   32.1860 N   0  0  0  0  0  0  0  0  0  0  0  0
   -0.4416   -7.3997   31.0928 N   0  0  0  0  0  0  0  0  0  0  0  0
   -0.0204   -6.2105   31.4823 C   0  0  0  0  0  0  0  0  0  0  0  0
    0.7693   -5.3072   30.6941 C   0  0  0  0  0  0  0  0  0  0  0  0
    0.3744   -4.5496   29.6106 C   0  0  0  0  0  0  0  0  0  0  0  0
    1.4186   -3.7198   29.1051 C   0  0  0  0  0  0  0  0  0  0  0  0
    2.5918   -3.8893   29.8009 C   0  0  0  0  0  0  0  0  0  0  0  0
    2.3997   -4.9829   31.0977 S   0  0  0  0  0  0  0  0  0  0  0  0
   -0.2036   -2.3239   33.1689 N   0  0  0  0  0  0  0  0  0  0  0  0
    1.0749   -1.8626   32.8041 C   0  0  0  0  0  0  0  0  0  0  0  0
   -0.1462   -0.9975   32.6247 C   0  0  1  0  0  0  0  0  0  0  0  0
   -0.3040   -0.6408   31.1536 C   0  0  0  0  0  0  0  0  0  0  0  0
   -1.3361   -1.1102   30.3321 C   0  0  0  0  0  0  0  0  0  0  0  0
   -1.3272   -0.8939   28.9497 C   0  0  0  0  0  0  0  0  0  0  0  0
   -0.3143   -0.1450   28.3643 C   0  0  0  0  0  0  0  0  0  0  0  0
    0.6955    0.3838   29.1545 C   0  0  0  0  0  0  0  0  0  0  0  0
    0.6951    0.1384   30.5288 C   0  0  0  0  0  0  0  0  0  0  0  0
  1  2  2  0
  2  3  1  0
  3  4  1  0
  4  5  1  0
  5  6  1  0
  5  7  2  0
  7  8  1  0
  8  9  2  0
  9 10  1  0
 10 11  2  0
 11 12  1  0
 12 13  2  0
 13 14  1  0
  2 15  1  0
 15 16  1  0
 16 17  1  0
 17 18  1  6
 18 19  2  0
 19 20  1  0
 20 21  2  0
 21 22  1  0
 22 23  2  0
  9  4  1  0
 14 10  1  0
 17 15  1  0
 23 18  1  0
M  END
>  <ref_mols>  (2070) 
B0454b

>  <gnina_score>  (2070) 
5.354

>  <smina_score_min>  (2070) 
-5.019

>  <ref_pdb>  (2070) 
B0454b

>  <inspiration_score>  (2070) 
None

>  <inchikey>  (2070) 
UJMGLLUAYUCKRF-BUXKBTBVSA-N

>  <tags>  (2070) 
BulkDock Fragalysis export,openbind_d68ev3c_c2_elabs_scored,openbind_d68ev3c_c2_elabs_scored_4.5plus,openbind_d68ev3c_c2_elabs,openbind_d68ev3c_c2_elabs_scored_5plus,syndirella_product,openbind_d68ev3c_c2_elabs_scored_top80percent,syndirella_placed

>  <smiles>  (2070) 
O=C(Cn1c(S)nnc1-c1cccs1)N1C[C@H]1c1ccccc1

>  <subsites>  (2070) 
None

>  <rmsd(smina/fragmenstein)>  (2070) 
0.696

>  <alias>  (2070) 
None

>  <energy_score>  (2070) 
-41.693739

>  <HIPPO Pose ID>  (2070) 
142913

>  <distance_score>  (2070) 
0.902134

>  <HIPPO Compound ID>  (2070) 
151090

>  <gnina_score_min>  (2070) 
5.218

>  <name>  (2070) 
P142913

>  <exports>  (2070) 
['/opt/xchem-fragalysis-2/maxwin/BulkDock/OUTPUTS/openbind_d68ev3c_c2_elabs_1LOTQJ3.sdf', '/opt/xchem-fragalysis-2/maxwin/BulkDock/OUTPUTS/openbind_d68ev3c_c2_elabs_1LSYI5W.sdf']

$$$$
P142919
     RDKit          3D

 23 25  0  0  0  0  0  0  0  0999 V2000
    0.4498   -7.2429   37.1467 C   0  0  0  0  0  0  0  0  0  0  0  0
    0.4420   -7.1785   35.6298 C   0  0  0  0  0  0  0  0  0  0  0  0
   -0.9750   -7.2464   35.0427 C   0  0  0  0  0  0  0  0  0  0  0  0
   -0.9577   -7.2241   33.5466 C   0  0  0  0  0  0  0  0  0  0  0  0
   -1.3187   -8.1940   32.7293 N   0  0  0  0  0  0  0  0  0  0  0  0
   -0.9018   -7.8666   31.4600 N   0  0  0  0  0  0  0  0  0  0  0  0
   -0.3211   -6.6931   31.5349 C   0  0  0  0  0  0  0  0  0  0  0  0
    0.6336   -5.9614   30.3003 S   0  0  0  0  0  0  0  0  0  0  0  0
   -0.4920   -6.1739   32.7885 N   0  0  0  0  0  0  0  0  0  0  0  0
   -0.1227   -4.8702   33.3104 C   0  0  0  0  0  0  0  0  0  0  0  0
   -0.4775   -3.7113   32.4051 C   0  0  0  0  0  0  0  0  0  0  0  0
   -1.1724   -3.8006   31.4552 O   0  0  0  0  0  0  0  0  0  0  0  0
    0.3196   -2.5232   32.9366 N   0  0  0  0  0  0  0  0  0  0  0  0
    1.7533   -2.4893   32.3430 C   0  0  0  0  0  0  0  0  0  0  0  0
    1.8533   -1.0807   32.8972 C   0  0  2  0  0  0  0  0  0  0  0  0
    2.1619   -0.9066   34.3801 C   0  0  0  0  0  0  0  0  0  0  0  0
    0.3801   -1.0495   32.4547 C   0  0  1  0  0  0  0  0  0  0  0  0
    0.0493   -0.6924   30.9162 C   0  0  0  0  0  0  0  0  0  0  0  0
   -1.1014   -1.1474   30.2474 C   0  0  0  0  0  0  0  0  0  0  0  0
   -1.3085   -0.9238   28.8846 C   0  0  0  0  0  0  0  0  0  0  0  0
   -0.4069   -0.1601   28.1614 C   0  0  0  0  0  0  0  0  0  0  0  0
    0.7099    0.3645   28.7893 C   0  0  0  0  0  0  0  0  0  0  0  0
    0.9259    0.1028   30.1426 C   0  0  0  0  0  0  0  0  0  0  0  0
  1  2  1  0
  2  3  1  0
  3  4  1  0
  4  5  2  0
  5  6  1  0
  6  7  2  0
  7  8  1  0
  7  9  1  0
  9 10  1  0
 10 11  1  0
 11 12  2  0
 11 13  1  0
 13 14  1  0
 14 15  1  0
 15 16  1  1
 15 17  1  0
 17 18  1  6
 18 19  2  0
 19 20  1  0
 20 21  2  0
 21 22  1  0
 22 23  2  0
  9  4  1  0
 17 13  1  0
 23 18  1  0
M  END
>  <ref_mols>  (2071) 
B0454b

>  <gnina_score>  (2071) 
5.283

>  <smina_score_min>  (2071) 
-5.543

>  <ref_pdb>  (2071) 
B0454b

>  <inspiration_score>  (2071) 
None

>  <inchikey>  (2071) 
KLNASHAFXCYWOP-LRDDRELGSA-N

>  <tags>  (2071) 
BulkDock Fragalysis export,openbind_d68ev3c_c2_elabs_scored,openbind_d68ev3c_c2_elabs_scored_4.5plus,openbind_d68ev3c_c2_elabs,openbind_d68ev3c_c2_elabs_scored_5plus,syndirella_product,openbind_d68ev3c_c2_elabs_scored_top80percent,syndirella_placed

>  <smiles>  (2071) 
CCCc1nnc(S)n1CC(=O)N1C[C@H](C)[C@H]1c1ccccc1

>  <subsites>  (2071) 
None

>  <rmsd(smina/fragmenstein)>  (2071) 
0.885

>  <alias>  (2071) 
None

>  <energy_score>  (2071) 
-24.712249

>  <HIPPO Pose ID>  (2071) 
142919

>  <distance_score>  (2071) 
0.759108

>  <HIPPO Compound ID>  (2071) 
151103

>  <gnina_score_min>  (2071) 
5.39

>  <name>  (2071) 
P142919

>  <exports>  (2071) 
['/opt/xchem-fragalysis-2/maxwin/BulkDock/OUTPUTS/openbind_d68ev3c_c2_elabs_1LOTQJ3.sdf', '/opt/xchem-fragalysis-2/maxwin/BulkDock/OUTPUTS/openbind_d68ev3c_c2_elabs_1LSYI5W.sdf']

$$$$
P142921
     RDKit          3D

 23 25  0  0  0  0  0  0  0  0999 V2000
    2.3249   -4.5428   28.9562 C   0  0  0  0  0  0  0  0  0  0  0  0
    1.7379   -5.6211   29.8556 C   0  0  0  0  0  0  0  0  0  0  0  0
    0.3272   -5.2886   30.3168 C   0  0  0  0  0  0  0  0  0  0  0  0
   -0.2253   -6.2762   31.3033 C   0  0  0  0  0  0  0  0  0  0  0  0
   -0.5964   -7.5106   31.0054 N   0  0  0  0  0  0  0  0  0  0  0  0
   -1.0475   -8.1176   32.1529 N   0  0  0  0  0  0  0  0  0  0  0  0
   -0.9482   -7.2464   33.1260 C   0  0  0  0  0  0  0  0  0  0  0  0
   -1.2582   -7.5382   34.7971 S   0  0  0  0  0  0  0  0  0  0  0  0
   -0.5021   -6.0481   32.6432 N   0  0  0  0  0  0  0  0  0  0  0  0
   -0.3277   -4.8378   33.4381 C   0  0  0  0  0  0  0  0  0  0  0  0
   -0.7073   -3.5871   32.6824 C   0  0  0  0  0  0  0  0  0  0  0  0
   -1.5251   -3.5721   31.8295 O   0  0  0  0  0  0  0  0  0  0  0  0
    0.2221   -2.4836   33.1776 N   0  0  0  0  0  0  0  0  0  0  0  0
    1.5614   -2.4799   32.4036 C   0  0  0  0  0  0  0  0  0  0  0  0
    1.8053   -1.1569   33.1023 C   0  0  0  0  0  0  0  0  0  0  0  0
    0.3082   -0.9897   32.7899 C   0  0  1  0  0  0  0  0  0  0  0  0
   -0.0456   -0.4653   31.2880 C   0  0  0  0  0  0  0  0  0  0  0  0
   -1.1049   -0.9352   30.4892 C   0  0  0  0  0  0  0  0  0  0  0  0
   -1.3252   -0.4776   29.1844 C   0  0  0  0  0  0  0  0  0  0  0  0
   -0.5401    0.5408   28.6717 C   0  0  0  0  0  0  0  0  0  0  0  0
   -0.9810    1.3141   27.2087 Cl  0  0  0  0  0  0  0  0  0  0  0  0
    0.5242    1.0315   29.4086 C   0  0  0  0  0  0  0  0  0  0  0  0
    0.7598    0.5336   30.6913 C   0  0  0  0  0  0  0  0  0  0  0  0
  1  2  1  0
  2  3  1  0
  3  4  1  0
  4  5  2  0
  5  6  1  0
  6  7  2  0
  7  8  1  0
  7  9  1  0
  9 10  1  0
 10 11  1  0
 11 12  2  0
 11 13  1  0
 13 14  1  0
 14 15  1  0
 15 16  1  0
 16 17  1  6
 17 18  2  0
 18 19  1  0
 19 20  2  0
 20 21  1  0
 20 22  1  0
 22 23  2  0
  9  4  1  0
 16 13  1  0
 23 17  1  0
M  END
>  <ref_mols>  (2072) 
B0454b

>  <gnina_score>  (2072) 
5.315

>  <smina_score_min>  (2072) 
-5.577

>  <ref_pdb>  (2072) 
B0454b

>  <inspiration_score>  (2072) 
None

>  <inchikey>  (2072) 
RCMXMMFYBHZVEN-ZDUSSCGKSA-N

>  <tags>  (2072) 
BulkDock Fragalysis export,openbind_d68ev3c_c2_elabs_scored,openbind_d68ev3c_c2_elabs_scored_4.5plus,openbind_d68ev3c_c2_elabs,openbind_d68ev3c_c2_elabs_scored_5plus,syndirella_product,openbind_d68ev3c_c2_elabs_scored_top80percent,syndirella_placed

>  <smiles>  (2072) 
CCCc1nnc(S)n1CC(=O)N1CC[C@H]1c1ccc(Cl)cc1

>  <subsites>  (2072) 
None

>  <rmsd(smina/fragmenstein)>  (2072) 
0.689

>  <alias>  (2072) 
None

>  <energy_score>  (2072) 
-18.095866

>  <HIPPO Pose ID>  (2072) 
142921

>  <distance_score>  (2072) 
0.993456

>  <HIPPO Compound ID>  (2072) 
151123

>  <gnina_score_min>  (2072) 
5.557

>  <name>  (2072) 
P142921

>  <exports>  (2072) 
['/opt/xchem-fragalysis-2/maxwin/BulkDock/OUTPUTS/openbind_d68ev3c_c2_elabs_1LOTQJ3.sdf', '/opt/xchem-fragalysis-2/maxwin/BulkDock/OUTPUTS/openbind_d68ev3c_c2_elabs_1LSYI5W.sdf']

$$$$
P142934
     RDKit          3D

 23 25  0  0  0  0  0  0  0  0999 V2000
    2.5221   -4.7531   31.0627 C   0  0  0  0  0  0  0  0  0  0  0  0
    1.6349   -5.2615   29.9402 C   0  0  0  0  0  0  0  0  0  0  0  0
    0.1558   -5.2812   30.2938 C   0  0  0  0  0  0  0  0  0  0  0  0
   -0.2507   -6.2644   31.3485 C   0  0  0  0  0  0  0  0  0  0  0  0
   -0.5269   -7.5338   31.1057 N   0  0  0  0  0  0  0  0  0  0  0  0
   -0.9214   -8.1219   32.2796 N   0  0  0  0  0  0  0  0  0  0  0  0
   -0.8721   -7.2113   33.2199 C   0  0  0  0  0  0  0  0  0  0  0  0
   -1.1443   -7.4803   34.9001 S   0  0  0  0  0  0  0  0  0  0  0  0
   -0.5178   -6.0041   32.6868 N   0  0  0  0  0  0  0  0  0  0  0  0
   -0.4761   -4.7242   33.3916 C   0  0  0  0  0  0  0  0  0  0  0  0
   -1.0900   -3.6458   32.5162 C   0  0  0  0  0  0  0  0  0  0  0  0
   -2.1301   -3.7827   31.9959 O   0  0  0  0  0  0  0  0  0  0  0  0
   -0.0506   -2.4899   32.4062 N   0  0  0  0  0  0  0  0  0  0  0  0
   -0.0384   -1.3669   31.5978 C   0  0  0  0  0  0  0  0  0  0  0  0
    0.9920   -0.4324   31.7461 C   0  0  0  0  0  0  0  0  0  0  0  0
    1.2246    0.5263   30.7580 C   0  0  0  0  0  0  0  0  0  0  0  0
    0.4451    0.4893   29.6189 C   0  0  0  0  0  0  0  0  0  0  0  0
   -0.5723   -0.4451   29.4797 C   0  0  0  0  0  0  0  0  0  0  0  0
   -0.8708   -1.3440   30.4801 C   0  0  0  0  0  0  0  0  0  0  0  0
   -1.1226   -0.3888   28.0992 C   0  0  0  0  0  0  0  0  0  0  0  0
   -0.6124    0.8769   27.5283 N   0  0  0  0  0  0  0  0  0  0  0  0
   -1.6616    1.8976   27.5220 C   0  0  0  0  0  0  0  0  0  0  0  0
    0.5360    1.3013   28.3691 C   0  0  0  0  0  0  0  0  0  0  0  0
  1  2  1  0
  2  3  1  0
  3  4  1  0
  4  5  2  0
  5  6  1  0
  6  7  2  0
  7  8  1  0
  7  9  1  0
  9 10  1  0
 10 11  1  0
 11 12  2  0
 11 13  1  0
 13 14  1  0
 14 15  2  0
 15 16  1  0
 16 17  2  0
 17 18  1  0
 18 19  2  0
 18 20  1  0
 20 21  1  0
 21 22  1  0
 21 23  1  0
  9  4  1  0
 19 14  1  0
 23 17  1  0
M  END
>  <ref_mols>  (2073) 
B0454b

>  <gnina_score>  (2073) 
5.185

>  <smina_score_min>  (2073) 
-4.922

>  <ref_pdb>  (2073) 
B0454b

>  <inspiration_score>  (2073) 
None

>  <inchikey>  (2073) 
LBTPYKJBNPJOHL-UHFFFAOYSA-N

>  <tags>  (2073) 
BulkDock Fragalysis export,openbind_d68ev3c_c2_elabs_scored,openbind_d68ev3c_c2_elabs_scored_4.5plus,openbind_d68ev3c_c2_elabs,openbind_d68ev3c_c2_elabs_scored_5plus,syndirella_product,openbind_d68ev3c_c2_elabs_scored_top80percent,syndirella_placed

>  <smiles>  (2073) 
CCCc1nnc(S)n1CC(=O)Nc1ccc2c(c1)CN(C)C2

>  <subsites>  (2073) 
None

>  <rmsd(smina/fragmenstein)>  (2073) 
0.384

>  <alias>  (2073) 
None

>  <energy_score>  (2073) 
-10.46209

>  <HIPPO Pose ID>  (2073) 
142934

>  <distance_score>  (2073) 
1.336205

>  <HIPPO Compound ID>  (2073) 
151167

>  <gnina_score_min>  (2073) 
5.044

>  <name>  (2073) 
P142934

>  <exports>  (2073) 
['/opt/xchem-fragalysis-2/maxwin/BulkDock/OUTPUTS/openbind_d68ev3c_c2_elabs_1LOTQJ3.sdf', '/opt/xchem-fragalysis-2/maxwin/BulkDock/OUTPUTS/openbind_d68ev3c_c2_elabs_1LSYI5W.sdf']

$$$$
P142970
     RDKit          3D

 24 27  0  0  0  0  0  0  0  0999 V2000
   -0.2541   -4.5485   35.0315 C   0  0  0  0  0  0  0  0  0  0  0  0
   -0.0182   -4.6928   33.5301 C   0  0  2  0  0  0  0  0  0  0  0  0
   -0.6289   -3.5270   32.7252 C   0  0  0  0  0  0  0  0  0  0  0  0
   -1.4632   -3.6939   31.9050 O   0  0  0  0  0  0  0  0  0  0  0  0
    0.1079   -2.2710   33.1284 N   0  0  0  0  0  0  0  0  0  0  0  0
    1.3151   -1.8046   32.5796 C   0  0  0  0  0  0  0  0  0  0  0  0
    0.0769   -0.9462   32.5723 C   0  0  1  0  0  0  0  0  0  0  0  0
   -0.2283   -0.5824   31.1247 C   0  0  0  0  0  0  0  0  0  0  0  0
    0.6821    0.2517   30.4367 C   0  0  0  0  0  0  0  0  0  0  0  0
    0.5864    0.4862   29.0644 C   0  0  0  0  0  0  0  0  0  0  0  0
   -0.4348   -0.1079   28.3390 C   0  0  0  0  0  0  0  0  0  0  0  0
   -1.3661   -0.9078   28.9893 C   0  0  0  0  0  0  0  0  0  0  0  0
   -1.2821   -1.1135   30.3713 C   0  0  0  0  0  0  0  0  0  0  0  0
   -0.2910   -5.9544   32.8300 N   0  0  0  0  0  0  0  0  0  0  0  0
   -0.9092   -7.1052   33.2290 C   0  0  0  0  0  0  0  0  0  0  0  0
   -1.3300   -7.5102   34.8469 S   0  0  0  0  0  0  0  0  0  0  0  0
   -1.0933   -7.9081   32.2052 N   0  0  0  0  0  0  0  0  0  0  0  0
   -0.5309   -7.3182   31.0998 N   0  0  0  0  0  0  0  0  0  0  0  0
    0.0158   -6.1812   31.4850 C   0  0  0  0  0  0  0  0  0  0  0  0
    0.7632   -5.2972   30.6273 C   0  0  0  0  0  0  0  0  0  0  0  0
    0.2863   -4.5083   29.5991 C   0  0  0  0  0  0  0  0  0  0  0  0
    1.2977   -3.6992   29.0017 C   0  0  0  0  0  0  0  0  0  0  0  0
    2.5330   -3.9275   29.5569 C   0  0  0  0  0  0  0  0  0  0  0  0
    2.4397   -5.0378   30.8472 S   0  0  0  0  0  0  0  0  0  0  0  0
  2  1  1  1
  2  3  1  0
  3  4  2  0
  3  5  1  0
  5  6  1  0
  6  7  1  0
  7  8  1  6
  8  9  2  0
  9 10  1  0
 10 11  2  0
 11 12  1  0
 12 13  2  0
  2 14  1  0
 14 15  1  0
 15 16  1  0
 15 17  2  0
 17 18  1  0
 18 19  2  0
 19 20  1  0
 20 21  2  0
 21 22  1  0
 22 23  2  0
 23 24  1  0
  7  5  1  0
 13  8  1  0
 19 14  1  0
 24 20  1  0
M  END
>  <ref_mols>  (2074) 
B0454b

>  <gnina_score>  (2074) 
5.518

>  <smina_score_min>  (2074) 
-5.289

>  <ref_pdb>  (2074) 
B0454b

>  <inspiration_score>  (2074) 
None

>  <inchikey>  (2074) 
USIKLKLXAJUOSU-RZZGRXHGSA-N

>  <tags>  (2074) 
BulkDock Fragalysis export,openbind_d68ev3c_c2_elabs_scored,openbind_d68ev3c_c2_elabs_scored_4.5plus,openbind_d68ev3c_c2_elabs,openbind_d68ev3c_c2_elabs_scored_5plus,syndirella_product,openbind_d68ev3c_c2_elabs_scored_top80percent,syndirella_placed

>  <smiles>  (2074) 
C[C@H](C(=O)N1C[C@H]1c1ccccc1)n1c(S)nnc1-c1cccs1

>  <subsites>  (2074) 
None

>  <rmsd(smina/fragmenstein)>  (2074) 
0.386

>  <alias>  (2074) 
None

>  <energy_score>  (2074) 
-43.973083

>  <HIPPO Pose ID>  (2074) 
142970

>  <distance_score>  (2074) 
0.928194

>  <HIPPO Compound ID>  (2074) 
151233

>  <gnina_score_min>  (2074) 
5.494

>  <name>  (2074) 
P142970

>  <exports>  (2074) 
['/opt/xchem-fragalysis-2/maxwin/BulkDock/OUTPUTS/openbind_d68ev3c_c2_elabs_1LOTQJ3.sdf', '/opt/xchem-fragalysis-2/maxwin/BulkDock/OUTPUTS/openbind_d68ev3c_c2_elabs_1LSYI5W.sdf']

$$$$
P142979
     RDKit          3D

 24 26  0  0  0  0  0  0  0  0999 V2000
    1.9474   -1.5141   33.4326 C   0  0  0  0  0  0  0  0  0  0  0  0
    0.7935   -2.0677   32.7434 N   0  0  0  0  0  0  0  0  0  0  0  0
   -0.2600   -1.0873   32.4744 C   0  0  0  0  0  0  0  0  0  0  0  0
   -0.2883   -0.7428   31.0040 C   0  0  0  0  0  0  0  0  0  0  0  0
    0.6621    0.1358   30.4631 C   0  0  0  0  0  0  0  0  0  0  0  0
    0.6724    0.4157   29.0985 C   0  0  0  0  0  0  0  0  0  0  0  0
   -0.2669   -0.1806   28.2637 C   0  0  0  0  0  0  0  0  0  0  0  0
   -1.2081   -1.0648   28.7814 C   0  0  0  0  0  0  0  0  0  0  0  0
   -1.2237   -1.3399   30.1476 C   0  0  0  0  0  0  0  0  0  0  0  0
    0.3403   -3.2317   33.3165 N   0  0  0  0  0  0  0  0  0  0  0  0
    1.1222   -4.3841   34.0259 C   0  0  0  0  0  0  0  0  0  0  0  0
    2.2586   -4.4763   34.2957 O   0  0  0  0  0  0  0  0  0  0  0  0
    0.1402   -5.4826   34.2708 C   0  0  0  0  0  0  0  0  0  0  0  0
   -0.2196   -6.3286   33.1406 N   0  0  0  0  0  0  0  0  0  0  0  0
   -1.0838   -7.3831   33.2796 C   0  0  0  0  0  0  0  0  0  0  0  0
   -1.7433   -7.7779   34.8190 S   0  0  0  0  0  0  0  0  0  0  0  0
   -1.3053   -7.9583   32.1252 N   0  0  0  0  0  0  0  0  0  0  0  0
   -0.5847   -7.2606   31.1887 N   0  0  0  0  0  0  0  0  0  0  0  0
    0.0779   -6.2905   31.7982 C   0  0  0  0  0  0  0  0  0  0  0  0
    0.9116   -5.3739   31.0806 C   0  0  0  0  0  0  0  0  0  0  0  0
    2.2456   -5.0776   31.2685 C   0  0  0  0  0  0  0  0  0  0  0  0
    2.7357   -4.1062   30.3455 C   0  0  0  0  0  0  0  0  0  0  0  0
    1.7559   -3.6915   29.4747 C   0  0  0  0  0  0  0  0  0  0  0  0
    0.2745   -4.4855   29.7664 S   0  0  0  0  0  0  0  0  0  0  0  0
  1  2  1  0
  2  3  1  0
  3  4  1  0
  4  5  2  0
  5  6  1  0
  6  7  2  0
  7  8  1  0
  8  9  2  0
  2 10  1  0
 10 11  1  0
 11 12  2  0
 11 13  1  0
 13 14  1  0
 14 15  1  0
 15 16  1  0
 15 17  2  0
 17 18  1  0
 18 19  2  0
 19 20  1  0
 20 21  2  0
 21 22  1  0
 22 23  2  0
 23 24  1  0
  9  4  1  0
 19 14  1  0
 24 20  1  0
M  END
>  <ref_mols>  (2075) 
B0454b

>  <gnina_score>  (2075) 
5.347

>  <smina_score_min>  (2075) 
-4.775

>  <ref_pdb>  (2075) 
B0454b

>  <inspiration_score>  (2075) 
None

>  <inchikey>  (2075) 
NMLKBIUZWCIXQY-UHFFFAOYSA-N

>  <tags>  (2075) 
BulkDock Fragalysis export,openbind_d68ev3c_c2_elabs_scored,openbind_d68ev3c_c2_elabs_scored_4.5plus,openbind_d68ev3c_c2_elabs,openbind_d68ev3c_c2_elabs_scored_5plus,syndirella_product,openbind_d68ev3c_c2_elabs_scored_top80percent,syndirella_placed

>  <smiles>  (2075) 
CN(Cc1ccccc1)NC(=O)Cn1c(S)nnc1-c1cccs1

>  <subsites>  (2075) 
None

>  <rmsd(smina/fragmenstein)>  (2075) 
1.013

>  <alias>  (2075) 
None

>  <energy_score>  (2075) 
-13.359674

>  <HIPPO Pose ID>  (2075) 
142979

>  <distance_score>  (2075) 
1.283365

>  <HIPPO Compound ID>  (2075) 
151238

>  <gnina_score_min>  (2075) 
5.281

>  <name>  (2075) 
P142979

>  <exports>  (2075) 
['/opt/xchem-fragalysis-2/maxwin/BulkDock/OUTPUTS/openbind_d68ev3c_c2_elabs_1LOTQJ3.sdf', '/opt/xchem-fragalysis-2/maxwin/BulkDock/OUTPUTS/openbind_d68ev3c_c2_elabs_1LSYI5W.sdf']

$$$$
P142982
     RDKit          3D

 24 27  0  0  0  0  0  0  0  0999 V2000
    2.0917   -1.5762   33.8406 C   0  0  0  0  0  0  0  0  0  0  0  0
    1.0783   -1.8746   32.7941 C   0  0  2  0  0  0  0  0  0  0  0  0
   -0.1392   -0.9953   32.6260 C   0  0  1  0  0  0  0  0  0  0  0  0
   -0.3020   -0.6411   31.1547 C   0  0  0  0  0  0  0  0  0  0  0  0
    0.6940    0.1407   30.5285 C   0  0  0  0  0  0  0  0  0  0  0  0
    0.6943    0.3823   29.1537 C   0  0  0  0  0  0  0  0  0  0  0  0
   -0.3130   -0.1530   28.3646 C   0  0  0  0  0  0  0  0  0  0  0  0
   -1.3231   -0.9045   28.9515 C   0  0  0  0  0  0  0  0  0  0  0  0
   -1.3316   -1.1174   30.3344 C   0  0  0  0  0  0  0  0  0  0  0  0
   -0.1988   -2.3208   33.1793 N   0  0  0  0  0  0  0  0  0  0  0  0
   -0.8875   -3.5670   32.6788 C   0  0  0  0  0  0  0  0  0  0  0  0
   -1.6047   -3.7246   31.7534 O   0  0  0  0  0  0  0  0  0  0  0  0
   -0.4101   -4.7214   33.5468 C   0  0  0  0  0  0  0  0  0  0  0  0
   -0.4674   -5.9811   32.8135 N   0  0  0  0  0  0  0  0  0  0  0  0
   -0.9751   -7.1710   33.2399 C   0  0  0  0  0  0  0  0  0  0  0  0
   -1.3374   -7.5077   34.8882 S   0  0  0  0  0  0  0  0  0  0  0  0
   -1.0698   -8.0083   32.2339 N   0  0  0  0  0  0  0  0  0  0  0  0
   -0.5032   -7.3966   31.1331 N   0  0  0  0  0  0  0  0  0  0  0  0
   -0.0519   -6.2165   31.5171 C   0  0  0  0  0  0  0  0  0  0  0  0
    0.7486   -5.3261   30.7258 C   0  0  0  0  0  0  0  0  0  0  0  0
    0.3679   -4.5781   29.6311 C   0  0  0  0  0  0  0  0  0  0  0  0
    1.4219   -3.7612   29.1245 C   0  0  0  0  0  0  0  0  0  0  0  0
    2.5878   -3.9298   29.8328 C   0  0  0  0  0  0  0  0  0  0  0  0
    2.3760   -5.0021   31.1442 S   0  0  0  0  0  0  0  0  0  0  0  0
  2  1  1  1
  2  3  1  0
  3  4  1  6
  4  5  2  0
  5  6  1  0
  6  7  2  0
  7  8  1  0
  8  9  2  0
  3 10  1  0
 10 11  1  0
 11 12  2  0
 11 13  1  0
 13 14  1  0
 14 15  1  0
 15 16  1  0
 15 17  2  0
 17 18  1  0
 18 19  2  0
 19 20  1  0
 20 21  2  0
 21 22  1  0
 22 23  2  0
 23 24  1  0
 10  2  1  0
 19 14  1  0
 24 20  1  0
  9  4  1  0
M  END
>  <ref_mols>  (2076) 
B0454b

>  <gnina_score>  (2076) 
5.511

>  <smina_score_min>  (2076) 
-5.028

>  <ref_pdb>  (2076) 
B0454b

>  <inspiration_score>  (2076) 
None

>  <inchikey>  (2076) 
ZZRDRZHWVDTGHV-VNBSIWGGSA-N

>  <tags>  (2076) 
BulkDock Fragalysis export,openbind_d68ev3c_c2_elabs_scored,openbind_d68ev3c_c2_elabs_scored_4.5plus,openbind_d68ev3c_c2_elabs,openbind_d68ev3c_c2_elabs_scored_5plus,syndirella_product,openbind_d68ev3c_c2_elabs_scored_top80percent,syndirella_placed

>  <smiles>  (2076) 
C[C@@H]1[C@@H](c2ccccc2)N1C(=O)Cn1c(S)nnc1-c1cccs1

>  <subsites>  (2076) 
None

>  <rmsd(smina/fragmenstein)>  (2076) 
0.787

>  <alias>  (2076) 
None

>  <energy_score>  (2076) 
-52.904388

>  <HIPPO Pose ID>  (2076) 
142982

>  <distance_score>  (2076) 
0.899527

>  <HIPPO Compound ID>  (2076) 
151239

>  <gnina_score_min>  (2076) 
5.337

>  <name>  (2076) 
P142982

>  <exports>  (2076) 
['/opt/xchem-fragalysis-2/maxwin/BulkDock/OUTPUTS/openbind_d68ev3c_c2_elabs_1LOTQJ3.sdf', '/opt/xchem-fragalysis-2/maxwin/BulkDock/OUTPUTS/openbind_d68ev3c_c2_elabs_1LSYI5W.sdf']

$$$$
P142984
     RDKit          3D

 24 27  0  0  0  0  0  0  0  0999 V2000
    0.8708   -4.4080   30.5763 O   0  0  0  0  0  0  0  0  0  0  0  0
    0.7598   -4.4624   31.7493 C   0  0  0  0  0  0  0  0  0  0  0  0
    1.1507   -5.6903   32.5399 C   0  0  0  0  0  0  0  0  0  0  0  0
    0.0377   -6.5971   32.6949 N   0  0  0  0  0  0  0  0  0  0  0  0
   -0.6099   -7.3193   31.7339 C   0  0  0  0  0  0  0  0  0  0  0  0
   -0.1280   -7.4560   30.0988 S   0  0  0  0  0  0  0  0  0  0  0  0
   -1.6178   -7.9666   32.2567 N   0  0  0  0  0  0  0  0  0  0  0  0
   -1.6106   -7.7098   33.6073 N   0  0  0  0  0  0  0  0  0  0  0  0
   -0.5688   -6.9499   33.8753 C   0  0  0  0  0  0  0  0  0  0  0  0
   -0.1215   -6.6049   35.1906 C   0  0  0  0  0  0  0  0  0  0  0  0
   -0.7626   -5.8145   36.1199 C   0  0  0  0  0  0  0  0  0  0  0  0
   -0.0477   -5.7229   37.3501 C   0  0  0  0  0  0  0  0  0  0  0  0
    1.1261   -6.4405   37.3165 C   0  0  0  0  0  0  0  0  0  0  0  0
    1.3684   -7.1965   35.8032 S   0  0  0  0  0  0  0  0  0  0  0  0
    0.2152   -3.4416   32.7329 N   0  0  0  0  0  0  0  0  0  0  0  0
    1.3388   -2.4977   33.2551 C   0  0  0  0  0  0  0  0  0  0  0  0
    0.2734   -1.5488   33.7097 C   0  0  0  0  0  0  0  0  0  0  0  0
   -0.4497   -2.0728   32.4941 C   0  0  1  0  0  0  0  0  0  0  0  0
   -0.3044   -1.4190   31.0441 C   0  0  0  0  0  0  0  0  0  0  0  0
    0.5835   -0.3645   30.7416 C   0  0  0  0  0  0  0  0  0  0  0  0
    0.6791    0.1844   29.4586 C   0  0  0  0  0  0  0  0  0  0  0  0
   -0.1277   -0.2974   28.4364 C   0  0  0  0  0  0  0  0  0  0  0  0
   -1.0201   -1.3292   28.6927 C   0  0  0  0  0  0  0  0  0  0  0  0
   -1.0996   -1.8789   29.9734 C   0  0  0  0  0  0  0  0  0  0  0  0
  1  2  2  0
  2  3  1  0
  3  4  1  0
  4  5  1  0
  5  6  1  0
  5  7  2  0
  7  8  1  0
  8  9  2  0
  9 10  1  0
 10 11  2  0
 11 12  1  0
 12 13  2  0
 13 14  1  0
  2 15  1  0
 15 16  1  0
 16 17  1  0
 17 18  1  0
 18 19  1  6
 19 20  2  0
 20 21  1  0
 21 22  2  0
 22 23  1  0
 23 24  2  0
  9  4  1  0
 14 10  1  0
 18 15  1  0
 24 19  1  0
M  END
>  <ref_mols>  (2077) 
B0454b

>  <gnina_score>  (2077) 
5.511

>  <smina_score_min>  (2077) 
-5.748

>  <ref_pdb>  (2077) 
B0454b

>  <inspiration_score>  (2077) 
None

>  <inchikey>  (2077) 
GKNPHDNETGMBPX-ZDUSSCGKSA-N

>  <tags>  (2077) 
BulkDock Fragalysis export,openbind_d68ev3c_c2_elabs_scored,openbind_d68ev3c_c2_elabs_scored_4.5plus,openbind_d68ev3c_c2_elabs,openbind_d68ev3c_c2_elabs_scored_5plus,syndirella_product,openbind_d68ev3c_c2_elabs_scored_top80percent,syndirella_placed

>  <smiles>  (2077) 
O=C(Cn1c(S)nnc1-c1cccs1)N1CC[C@H]1c1ccccc1

>  <subsites>  (2077) 
None

>  <rmsd(smina/fragmenstein)>  (2077) 
0.87

>  <alias>  (2077) 
None

>  <energy_score>  (2077) 
-26.894797

>  <HIPPO Pose ID>  (2077) 
142984

>  <distance_score>  (2077) 
1.022201

>  <HIPPO Compound ID>  (2077) 
151240

>  <gnina_score_min>  (2077) 
5.745

>  <name>  (2077) 
P142984

>  <exports>  (2077) 
['/opt/xchem-fragalysis-2/maxwin/BulkDock/OUTPUTS/openbind_d68ev3c_c2_elabs_1LOTQJ3.sdf', '/opt/xchem-fragalysis-2/maxwin/BulkDock/OUTPUTS/openbind_d68ev3c_c2_elabs_1LSYI5W.sdf']

$$$$
P142993
     RDKit          3D

 24 25  0  0  0  0  0  0  0  0999 V2000
    1.4475   -3.3911   31.3387 C   0  0  0  0  0  0  0  0  0  0  0  0
    0.5428   -3.1478   32.5239 N   0  0  0  0  0  0  0  0  0  0  0  0
    0.6106   -1.7244   32.0035 C   0  0  0  0  0  0  0  0  0  0  0  0
    0.0848   -1.1431   30.7012 C   0  0  0  0  0  0  0  0  0  0  0  0
   -0.9356   -1.6842   29.9121 C   0  0  0  0  0  0  0  0  0  0  0  0
   -1.3899   -1.0017   28.7755 C   0  0  0  0  0  0  0  0  0  0  0  0
   -0.8741    0.2523   28.4543 C   0  0  0  0  0  0  0  0  0  0  0  0
   -1.5399    1.1644   27.1608 Cl  0  0  0  0  0  0  0  0  0  0  0  0
    0.1426    0.8054   29.2164 C   0  0  0  0  0  0  0  0  0  0  0  0
    0.6085    0.1065   30.3212 C   0  0  0  0  0  0  0  0  0  0  0  0
    1.5730    0.6717   31.0635 F   0  0  0  0  0  0  0  0  0  0  0  0
   -0.5249   -4.0874   32.5283 C   0  0  0  0  0  0  0  0  0  0  0  0
   -1.6264   -4.0261   32.0367 O   0  0  0  0  0  0  0  0  0  0  0  0
   -0.1766   -5.3449   33.4267 C   0  0  1  0  0  0  0  0  0  0  0  0
   -0.5707   -6.5514   32.6955 N   0  0  0  0  0  0  0  0  0  0  0  0
   -0.3121   -6.9160   31.4268 C   0  0  0  0  0  0  0  0  0  0  0  0
   -0.9492   -7.9655   31.0063 N   0  0  0  0  0  0  0  0  0  0  0  0
   -1.6774   -8.3470   32.0991 N   0  0  0  0  0  0  0  0  0  0  0  0
   -1.4549   -7.4850   33.1655 C   0  0  0  0  0  0  0  0  0  0  0  0
   -1.9644   -7.5552   34.2717 O   0  0  0  0  0  0  0  0  0  0  0  0
    1.1020   -5.4863   34.3359 C   0  0  0  0  0  0  0  0  0  0  0  0
    1.2312   -4.2876   35.3047 C   0  0  0  0  0  0  0  0  0  0  0  0
    0.9576   -6.7410   35.2397 C   0  0  0  0  0  0  0  0  0  0  0  0
    2.4159   -5.6486   33.5659 C   0  0  0  0  0  0  0  0  0  0  0  0
  1  2  1  0
  2  3  1  0
  3  4  1  0
  4  5  2  0
  5  6  1  0
  6  7  2  0
  7  8  1  0
  7  9  1  0
  9 10  2  0
 10 11  1  0
  2 12  1  0
 12 13  2  0
 12 14  1  0
 14 15  1  0
 15 16  1  0
 16 17  2  0
 17 18  1  0
 18 19  1  0
 19 20  2  0
 14 21  1  6
 21 22  1  0
 21 23  1  0
 21 24  1  0
 10  4  1  0
 19 15  1  0
M  END
>  <ref_mols>  (2078) 
B0454b

>  <gnina_score>  (2078) 
5.419

>  <smina_score_min>  (2078) 
-6.114

>  <ref_pdb>  (2078) 
B0454b

>  <inspiration_score>  (2078) 
None

>  <inchikey>  (2078) 
YYVWNNOGRCMLGC-CYBMUJFWSA-N

>  <tags>  (2078) 
BulkDock Fragalysis export,openbind_d68ev3c_c2_elabs_scored,openbind_d68ev3c_c2_elabs_scored_4.5plus,openbind_d68ev3c_c2_elabs,openbind_d68ev3c_c2_elabs_scored_5plus,syndirella_product,openbind_d68ev3c_c2_elabs_scored_top80percent,syndirella_placed

>  <smiles>  (2078) 
CN(Cc1ccc(Cl)cc1F)C(=O)[C@@H](n1cn[nH]c1=O)C(C)(C)C

>  <subsites>  (2078) 
None

>  <rmsd(smina/fragmenstein)>  (2078) 
0.623

>  <alias>  (2078) 
None

>  <energy_score>  (2078) 
-0.191301

>  <HIPPO Pose ID>  (2078) 
142993

>  <distance_score>  (2078) 
0.792247

>  <HIPPO Compound ID>  (2078) 
151257

>  <gnina_score_min>  (2078) 
5.452

>  <name>  (2078) 
P142993

>  <exports>  (2078) 
['/opt/xchem-fragalysis-2/maxwin/BulkDock/OUTPUTS/openbind_d68ev3c_c2_elabs_1LOTQJ3.sdf', '/opt/xchem-fragalysis-2/maxwin/BulkDock/OUTPUTS/openbind_d68ev3c_c2_elabs_1LSYI5W.sdf']

$$$$
P142994
     RDKit          3D

 24 25  0  0  0  0  0  0  0  0999 V2000
   -0.5939   -0.2945   33.8805 C   0  0  0  0  0  0  0  0  0  0  0  0
   -0.7103   -1.3028   32.7139 C   0  0  1  0  0  0  0  0  0  0  0  0
   -0.6387   -0.8073   31.2423 C   0  0  0  0  0  0  0  0  0  0  0  0
   -1.3873   -1.5378   30.2892 C   0  0  0  0  0  0  0  0  0  0  0  0
   -1.3620   -1.2325   28.9272 C   0  0  0  0  0  0  0  0  0  0  0  0
   -0.6076   -0.1640   28.4741 C   0  0  0  0  0  0  0  0  0  0  0  0
    0.1281    0.5892   29.3823 C   0  0  0  0  0  0  0  0  0  0  0  0
    0.1222    0.2761   30.7528 C   0  0  0  0  0  0  0  0  0  0  0  0
    1.2332    1.3950   31.8136 Br  0  0  0  0  0  0  0  0  0  0  0  0
   -0.2884   -2.7309   33.1820 N   0  0  0  0  0  0  0  0  0  0  0  0
    1.0010   -2.3293   32.5224 C   0  0  0  0  0  0  0  0  0  0  0  0
   -0.6954   -4.0200   32.7248 C   0  0  0  0  0  0  0  0  0  0  0  0
   -1.4028   -4.3354   31.7963 O   0  0  0  0  0  0  0  0  0  0  0  0
   -0.2050   -5.2155   33.6824 C   0  0  1  0  0  0  0  0  0  0  0  0
   -0.5712   -6.4660   32.9795 N   0  0  0  0  0  0  0  0  0  0  0  0
   -0.2594   -6.8560   31.7256 C   0  0  0  0  0  0  0  0  0  0  0  0
   -0.8591   -7.9271   31.3076 N   0  0  0  0  0  0  0  0  0  0  0  0
   -1.6240   -8.2920   32.3795 N   0  0  0  0  0  0  0  0  0  0  0  0
   -1.4517   -7.4059   33.4387 C   0  0  0  0  0  0  0  0  0  0  0  0
   -1.9920   -7.4682   34.5317 O   0  0  0  0  0  0  0  0  0  0  0  0
    1.1836   -5.3432   34.3937 C   0  0  0  0  0  0  0  0  0  0  0  0
    2.3402   -5.5608   33.4084 C   0  0  0  0  0  0  0  0  0  0  0  0
    1.1648   -6.5961   35.3244 C   0  0  0  0  0  0  0  0  0  0  0  0
    1.4656   -4.1647   35.3511 C   0  0  0  0  0  0  0  0  0  0  0  0
  2  1  1  1
  2  3  1  0
  3  4  2  0
  4  5  1  0
  5  6  2  0
  6  7  1  0
  7  8  2  0
  8  9  1  0
  2 10  1  0
 10 11  1  0
 10 12  1  0
 12 13  2  0
 12 14  1  0
 14 15  1  0
 15 16  1  0
 16 17  2  0
 17 18  1  0
 18 19  1  0
 19 20  2  0
 14 21  1  6
 21 22  1  0
 21 23  1  0
 21 24  1  0
  8  3  1  0
 19 15  1  0
M  END
>  <ref_mols>  (2079) 
B0454b

>  <gnina_score>  (2079) 
5.438

>  <smina_score_min>  (2079) 
-5.817

>  <ref_pdb>  (2079) 
B0454b

>  <inspiration_score>  (2079) 
None

>  <inchikey>  (2079) 
OVVZRJGOHQNFTG-SMDDNHRTSA-N

>  <tags>  (2079) 
BulkDock Fragalysis export,openbind_d68ev3c_c2_elabs_scored,openbind_d68ev3c_c2_elabs_scored_4.5plus,openbind_d68ev3c_c2_elabs,openbind_d68ev3c_c2_elabs_scored_5plus,syndirella_product,openbind_d68ev3c_c2_elabs_scored_top80percent,syndirella_placed

>  <smiles>  (2079) 
C[C@@H](c1ccccc1Br)N(C)C(=O)[C@@H](n1cn[nH]c1=O)C(C)(C)C

>  <subsites>  (2079) 
None

>  <rmsd(smina/fragmenstein)>  (2079) 
0.671

>  <alias>  (2079) 
None

>  <energy_score>  (2079) 
-2.358243

>  <HIPPO Pose ID>  (2079) 
142994

>  <distance_score>  (2079) 
0.768553

>  <HIPPO Compound ID>  (2079) 
151263

>  <gnina_score_min>  (2079) 
5.577

>  <name>  (2079) 
P142994

>  <exports>  (2079) 
['/opt/xchem-fragalysis-2/maxwin/BulkDock/OUTPUTS/openbind_d68ev3c_c2_elabs_1LOTQJ3.sdf', '/opt/xchem-fragalysis-2/maxwin/BulkDock/OUTPUTS/openbind_d68ev3c_c2_elabs_1LSYI5W.sdf']

$$$$
P142995
     RDKit          3D

 24 25  0  0  0  0  0  0  0  0999 V2000
    1.0563   -0.7920   33.4212 C   0  0  0  0  0  0  0  0  0  0  0  0
    0.1606   -1.5769   32.4217 C   0  0  1  0  0  0  0  0  0  0  0  0
   -0.0739   -0.9108   31.0489 C   0  0  0  0  0  0  0  0  0  0  0  0
   -1.0925   -1.3555   30.1878 C   0  0  0  0  0  0  0  0  0  0  0  0
   -1.3552   -0.6971   28.9828 C   0  0  0  0  0  0  0  0  0  0  0  0
   -0.6466    0.4509   28.6519 C   0  0  0  0  0  0  0  0  0  0  0  0
   -1.0913    1.3747   27.2757 Cl  0  0  0  0  0  0  0  0  0  0  0  0
    0.3847    0.8951   29.4698 C   0  0  0  0  0  0  0  0  0  0  0  0
    0.6775    0.2123   30.6525 C   0  0  0  0  0  0  0  0  0  0  0  0
    0.2246   -3.0855   32.7348 N   0  0  0  0  0  0  0  0  0  0  0  0
    1.2565   -3.0508   31.6354 C   0  0  0  0  0  0  0  0  0  0  0  0
   -0.7140   -4.1262   32.4915 C   0  0  0  0  0  0  0  0  0  0  0  0
   -1.7649   -4.1125   31.8946 O   0  0  0  0  0  0  0  0  0  0  0  0
   -0.3251   -5.4633   33.2256 C   0  0  1  0  0  0  0  0  0  0  0  0
   -0.4451   -6.5708   32.2737 N   0  0  0  0  0  0  0  0  0  0  0  0
   -1.2922   -7.6177   32.3578 C   0  0  0  0  0  0  0  0  0  0  0  0
   -1.2502   -8.4473   31.3661 N   0  0  0  0  0  0  0  0  0  0  0  0
   -0.3033   -7.9138   30.5440 N   0  0  0  0  0  0  0  0  0  0  0  0
    0.2407   -6.7638   31.1111 C   0  0  0  0  0  0  0  0  0  0  0  0
    1.1592   -6.1079   30.6514 O   0  0  0  0  0  0  0  0  0  0  0  0
    0.7811   -5.5918   34.3353 C   0  0  0  0  0  0  0  0  0  0  0  0
    2.2258   -5.4467   33.8422 C   0  0  0  0  0  0  0  0  0  0  0  0
    0.6712   -6.9888   34.9952 C   0  0  0  0  0  0  0  0  0  0  0  0
    0.5370   -4.5706   35.4709 C   0  0  0  0  0  0  0  0  0  0  0  0
  2  1  1  6
  2  3  1  0
  3  4  2  0
  4  5  1  0
  5  6  2  0
  6  7  1  0
  6  8  1  0
  8  9  2  0
  2 10  1  0
 10 11  1  0
 10 12  1  0
 12 13  2  0
 12 14  1  0
 14 15  1  0
 15 16  1  0
 16 17  2  0
 17 18  1  0
 18 19  1  0
 19 20  2  0
 14 21  1  6
 21 22  1  0
 21 23  1  0
 21 24  1  0
  9  3  1  0
 19 15  1  0
M  END
>  <ref_mols>  (2080) 
B0454b

>  <gnina_score>  (2080) 
5.506

>  <smina_score_min>  (2080) 
-6.173

>  <ref_pdb>  (2080) 
B0454b

>  <inspiration_score>  (2080) 
None

>  <inchikey>  (2080) 
LNIBZVWWMUYTKM-SMDDNHRTSA-N

>  <tags>  (2080) 
BulkDock Fragalysis export,openbind_d68ev3c_c2_elabs_scored,openbind_d68ev3c_c2_elabs_scored_4.5plus,openbind_d68ev3c_c2_elabs,openbind_d68ev3c_c2_elabs_scored_5plus,syndirella_product,openbind_d68ev3c_c2_elabs_scored_top80percent,syndirella_placed

>  <smiles>  (2080) 
C[C@@H](c1ccc(Cl)cc1)N(C)C(=O)[C@@H](n1cn[nH]c1=O)C(C)(C)C

>  <subsites>  (2080) 
None

>  <rmsd(smina/fragmenstein)>  (2080) 
0.625

>  <alias>  (2080) 
None

>  <energy_score>  (2080) 
-10.441712

>  <HIPPO Pose ID>  (2080) 
142995

>  <distance_score>  (2080) 
0.860019

>  <HIPPO Compound ID>  (2080) 
151266

>  <gnina_score_min>  (2080) 
5.548

>  <name>  (2080) 
P142995

>  <exports>  (2080) 
['/opt/xchem-fragalysis-2/maxwin/BulkDock/OUTPUTS/openbind_d68ev3c_c2_elabs_1LOTQJ3.sdf', '/opt/xchem-fragalysis-2/maxwin/BulkDock/OUTPUTS/openbind_d68ev3c_c2_elabs_1LSYI5W.sdf']

$$$$
P143005
     RDKit          3D

 24 25  0  0  0  0  0  0  0  0999 V2000
   -1.1106    1.1595   27.4488 C   0  0  0  0  0  0  0  0  0  0  0  0
   -0.7019    0.3884   28.6664 C   0  0  0  0  0  0  0  0  0  0  0  0
   -1.3885   -0.7689   29.0324 C   0  0  0  0  0  0  0  0  0  0  0  0
   -1.1205   -1.4002   30.2483 C   0  0  0  0  0  0  0  0  0  0  0  0
   -0.1136   -0.9273   31.1038 C   0  0  0  0  0  0  0  0  0  0  0  0
    0.1372   -1.5829   32.4762 C   0  0  2  0  0  0  0  0  0  0  0  0
    1.0314   -0.7864   33.4675 C   0  0  0  0  0  0  0  0  0  0  0  0
    0.2165   -3.0928   32.7887 N   0  0  0  0  0  0  0  0  0  0  0  0
    1.2507   -3.0463   31.6912 C   0  0  0  0  0  0  0  0  0  0  0  0
   -0.7106   -4.1432   32.5427 C   0  0  0  0  0  0  0  0  0  0  0  0
   -1.7605   -4.1402   31.9434 O   0  0  0  0  0  0  0  0  0  0  0  0
   -0.3122   -5.4773   33.2750 C   0  0  1  0  0  0  0  0  0  0  0  0
   -0.4296   -6.5816   32.3188 N   0  0  0  0  0  0  0  0  0  0  0  0
   -1.2872   -7.6210   32.3881 C   0  0  0  0  0  0  0  0  0  0  0  0
   -1.2519   -8.4383   31.3858 N   0  0  0  0  0  0  0  0  0  0  0  0
   -0.3000   -7.9021   30.5711 N   0  0  0  0  0  0  0  0  0  0  0  0
    0.2520   -6.7629   31.1519 C   0  0  0  0  0  0  0  0  0  0  0  0
    1.1723   -6.1057   30.6975 O   0  0  0  0  0  0  0  0  0  0  0  0
    0.7989   -5.6035   34.3793 C   0  0  0  0  0  0  0  0  0  0  0  0
    0.5555   -4.5853   35.5177 C   0  0  0  0  0  0  0  0  0  0  0  0
    0.6960   -7.0027   35.0360 C   0  0  0  0  0  0  0  0  0  0  0  0
    2.2414   -5.4524   33.8818 C   0  0  0  0  0  0  0  0  0  0  0  0
    0.6105    0.2072   30.6954 C   0  0  0  0  0  0  0  0  0  0  0  0
    0.3090    0.8657   29.5005 C   0  0  0  0  0  0  0  0  0  0  0  0
  1  2  1  0
  2  3  2  0
  3  4  1  0
  4  5  2  0
  5  6  1  0
  6  7  1  6
  6  8  1  0
  8  9  1  0
  8 10  1  0
 10 11  2  0
 10 12  1  0
 12 13  1  0
 13 14  1  0
 14 15  2  0
 15 16  1  0
 16 17  1  0
 17 18  2  0
 12 19  1  6
 19 20  1  0
 19 21  1  0
 19 22  1  0
  5 23  1  0
 23 24  2  0
 24  2  1  0
 17 13  1  0
M  END
>  <ref_mols>  (2081) 
B0454b

>  <gnina_score>  (2081) 
5.439

>  <smina_score_min>  (2081) 
-6.257

>  <ref_pdb>  (2081) 
B0454b

>  <inspiration_score>  (2081) 
None

>  <inchikey>  (2081) 
WKBMRQVAYOTEBK-DZGCQCFKSA-N

>  <tags>  (2081) 
BulkDock Fragalysis export,openbind_d68ev3c_c2_elabs_scored,openbind_d68ev3c_c2_elabs_scored_4.5plus,openbind_d68ev3c_c2_elabs,openbind_d68ev3c_c2_elabs_scored_5plus,syndirella_product,openbind_d68ev3c_c2_elabs_scored_top80percent,syndirella_placed

>  <smiles>  (2081) 
Cc1ccc([C@H](C)N(C)C(=O)[C@@H](n2cn[nH]c2=O)C(C)(C)C)cc1

>  <subsites>  (2081) 
None

>  <rmsd(smina/fragmenstein)>  (2081) 
0.502

>  <alias>  (2081) 
None

>  <energy_score>  (2081) 
-6.987019

>  <HIPPO Pose ID>  (2081) 
143005

>  <distance_score>  (2081) 
0.856271

>  <HIPPO Compound ID>  (2081) 
151293

>  <gnina_score_min>  (2081) 
5.472

>  <name>  (2081) 
P143005

>  <exports>  (2081) 
['/opt/xchem-fragalysis-2/maxwin/BulkDock/OUTPUTS/openbind_d68ev3c_c2_elabs_1LOTQJ3.sdf', '/opt/xchem-fragalysis-2/maxwin/BulkDock/OUTPUTS/openbind_d68ev3c_c2_elabs_1LSYI5W.sdf']

$$$$
P143010
     RDKit          3D

 24 26  0  0  0  0  0  0  0  0999 V2000
    2.1371   -5.8371   33.9548 C   0  0  0  0  0  0  0  0  0  0  0  0
    0.6827   -5.6945   34.4140 C   0  0  0  0  0  0  0  0  0  0  0  0
    0.5762   -4.4981   35.3882 C   0  0  0  0  0  0  0  0  0  0  0  0
    0.3424   -6.9527   35.2542 C   0  0  0  0  0  0  0  0  0  0  0  0
   -0.3600   -5.5570   33.2514 C   0  0  1  0  0  0  0  0  0  0  0  0
   -0.5524   -4.2800   32.3693 C   0  0  0  0  0  0  0  0  0  0  0  0
   -1.5710   -4.1181   31.7871 O   0  0  0  0  0  0  0  0  0  0  0  0
    0.6789   -3.3951   32.4598 N   0  0  0  0  0  0  0  0  0  0  0  0
    1.7016   -3.7231   31.3328 C   0  0  0  0  0  0  0  0  0  0  0  0
    2.3830   -2.4317   31.7064 C   0  0  0  0  0  0  0  0  0  0  0  0
    0.9410   -1.9832   31.9126 C   0  0  1  0  0  0  0  0  0  0  0  0
    0.2364   -1.3127   30.6393 C   0  0  0  0  0  0  0  0  0  0  0  0
   -0.6839   -1.9233   29.7659 C   0  0  0  0  0  0  0  0  0  0  0  0
   -1.1578   -1.2903   28.6098 C   0  0  0  0  0  0  0  0  0  0  0  0
   -0.7175   -0.0165   28.2812 C   0  0  0  0  0  0  0  0  0  0  0  0
    0.1770    0.6184   29.1212 C   0  0  0  0  0  0  0  0  0  0  0  0
    0.6118    1.8501   28.8239 F   0  0  0  0  0  0  0  0  0  0  0  0
    0.6356   -0.0055   30.2776 C   0  0  0  0  0  0  0  0  0  0  0  0
   -0.5558   -6.7219   32.3807 N   0  0  0  0  0  0  0  0  0  0  0  0
   -1.4133   -7.7429   32.5721 C   0  0  0  0  0  0  0  0  0  0  0  0
   -1.4541   -8.6168   31.6198 N   0  0  0  0  0  0  0  0  0  0  0  0
   -0.5602   -8.1478   30.7092 N   0  0  0  0  0  0  0  0  0  0  0  0
    0.0531   -6.9994   31.1918 C   0  0  0  0  0  0  0  0  0  0  0  0
    0.9658   -6.4066   30.6455 O   0  0  0  0  0  0  0  0  0  0  0  0
  1  2  1  0
  2  3  1  0
  2  4  1  0
  5  2  1  6
  5  6  1  0
  6  7  2  0
  6  8  1  0
  8  9  1  0
  9 10  1  0
 10 11  1  0
 11 12  1  6
 12 13  2  0
 13 14  1  0
 14 15  2  0
 15 16  1  0
 16 17  1  0
 16 18  2  0
  5 19  1  0
 19 20  1  0
 20 21  2  0
 21 22  1  0
 22 23  1  0
 23 24  2  0
 11  8  1  0
 18 12  1  0
 23 19  1  0
M  END
>  <ref_mols>  (2082) 
B0454b

>  <gnina_score>  (2082) 
5.392

>  <smina_score_min>  (2082) 
-6.348

>  <ref_pdb>  (2082) 
B0454b

>  <inspiration_score>  (2082) 
None

>  <inchikey>  (2082) 
HCETUNLMLIJPAA-UONOGXRCSA-N

>  <tags>  (2082) 
BulkDock Fragalysis export,openbind_d68ev3c_c2_elabs_scored,openbind_d68ev3c_c2_elabs_scored_4.5plus,openbind_d68ev3c_c2_elabs,openbind_d68ev3c_c2_elabs_scored_5plus,syndirella_product,openbind_d68ev3c_c2_elabs_scored_top80percent,syndirella_placed

>  <smiles>  (2082) 
CC(C)(C)[C@@H](C(=O)N1CC[C@H]1c1cccc(F)c1)n1cn[nH]c1=O

>  <subsites>  (2082) 
None

>  <rmsd(smina/fragmenstein)>  (2082) 
0.576

>  <alias>  (2082) 
None

>  <energy_score>  (2082) 
-18.970139

>  <HIPPO Pose ID>  (2082) 
143010

>  <distance_score>  (2082) 
0.841854

>  <HIPPO Compound ID>  (2082) 
151299

>  <gnina_score_min>  (2082) 
5.441

>  <name>  (2082) 
P143010

>  <exports>  (2082) 
['/opt/xchem-fragalysis-2/maxwin/BulkDock/OUTPUTS/openbind_d68ev3c_c2_elabs_1LOTQJ3.sdf', '/opt/xchem-fragalysis-2/maxwin/BulkDock/OUTPUTS/openbind_d68ev3c_c2_elabs_1LSYI5W.sdf']

$$$$
P143011
     RDKit          3D

 25 28  0  0  0  0  0  0  0  0999 V2000
    0.3595   -4.4772   30.3623 O   0  0  0  0  0  0  0  0  0  0  0  0
    0.5549   -4.4371   31.5242 C   0  0  0  0  0  0  0  0  0  0  0  0
    0.9577   -5.6602   32.3235 C   0  0  0  0  0  0  0  0  0  0  0  0
   -0.1498   -6.5751   32.5027 N   0  0  0  0  0  0  0  0  0  0  0  0
   -0.6471   -7.4680   31.5947 C   0  0  0  0  0  0  0  0  0  0  0  0
   -0.0412   -7.7319   30.0187 S   0  0  0  0  0  0  0  0  0  0  0  0
   -1.5918   -8.1889   32.1327 N   0  0  0  0  0  0  0  0  0  0  0  0
   -1.6822   -7.8192   33.4469 N   0  0  0  0  0  0  0  0  0  0  0  0
   -0.8016   -6.8646   33.6855 C   0  0  0  0  0  0  0  0  0  0  0  0
   -0.4932   -6.3231   35.0081 C   0  0  0  0  0  0  0  0  0  0  0  0
   -0.1375   -7.2058   36.0347 C   0  0  0  0  0  0  0  0  0  0  0  0
    0.1991   -6.7343   37.3066 C   0  0  0  0  0  0  0  0  0  0  0  0
    0.1497   -5.3690   37.5684 C   0  0  0  0  0  0  0  0  0  0  0  0
    0.5512   -4.7793   39.1316 Cl  0  0  0  0  0  0  0  0  0  0  0  0
   -0.2356   -4.4779   36.5700 C   0  0  0  0  0  0  0  0  0  0  0  0
   -0.5570   -4.9557   35.2953 C   0  0  0  0  0  0  0  0  0  0  0  0
    0.4171   -3.2932   32.4979 N   0  0  0  0  0  0  0  0  0  0  0  0
    1.4810   -2.4162   32.7815 C   0  0  0  0  0  0  0  0  0  0  0  0
    0.1083   -1.9341   32.2837 C   0  0  1  0  0  0  0  0  0  0  0  0
   -0.0074   -1.3467   30.9040 C   0  0  0  0  0  0  0  0  0  0  0  0
   -0.9892   -1.7763   29.9956 C   0  0  0  0  0  0  0  0  0  0  0  0
   -1.0896   -1.2274   28.7166 C   0  0  0  0  0  0  0  0  0  0  0  0
   -0.2219   -0.2141   28.3268 C   0  0  0  0  0  0  0  0  0  0  0  0
    0.7488    0.2463   29.2084 C   0  0  0  0  0  0  0  0  0  0  0  0
    0.8485   -0.3118   30.4842 C   0  0  0  0  0  0  0  0  0  0  0  0
  1  2  2  0
  2  3  1  0
  3  4  1  0
  4  5  1  0
  5  6  1  0
  5  7  2  0
  7  8  1  0
  8  9  2  0
  9 10  1  0
 10 11  2  0
 11 12  1  0
 12 13  2  0
 13 14  1  0
 13 15  1  0
 15 16  2  0
  2 17  1  0
 17 18  1  0
 18 19  1  0
 19 20  1  6
 20 21  2  0
 21 22  1  0
 22 23  2  0
 23 24  1  0
 24 25  2  0
  9  4  1  0
 16 10  1  0
 19 17  1  0
 25 20  1  0
M  END
>  <ref_mols>  (2083) 
B0454b

>  <gnina_score>  (2083) 
5.666

>  <smina_score_min>  (2083) 
-6.034

>  <ref_pdb>  (2083) 
B0454b

>  <inspiration_score>  (2083) 
None

>  <inchikey>  (2083) 
JCVCZGCLTDOTIS-NYHFZMIOSA-N

>  <tags>  (2083) 
BulkDock Fragalysis export,openbind_d68ev3c_c2_elabs_scored,openbind_d68ev3c_c2_elabs_scored_4.5plus,openbind_d68ev3c_c2_elabs,openbind_d68ev3c_c2_elabs_scored_5plus,syndirella_product,openbind_d68ev3c_c2_elabs_scored_top80percent,syndirella_placed

>  <smiles>  (2083) 
O=C(Cn1c(S)nnc1-c1ccc(Cl)cc1)N1C[C@H]1c1ccccc1

>  <subsites>  (2083) 
None

>  <rmsd(smina/fragmenstein)>  (2083) 
1.032

>  <alias>  (2083) 
None

>  <energy_score>  (2083) 
-34.743939

>  <HIPPO Pose ID>  (2083) 
143011

>  <distance_score>  (2083) 
0.923476

>  <HIPPO Compound ID>  (2083) 
151312

>  <gnina_score_min>  (2083) 
5.82

>  <name>  (2083) 
P143011

>  <exports>  (2083) 
['/opt/xchem-fragalysis-2/maxwin/BulkDock/OUTPUTS/openbind_d68ev3c_c2_elabs_1LOTQJ3.sdf', '/opt/xchem-fragalysis-2/maxwin/BulkDock/OUTPUTS/openbind_d68ev3c_c2_elabs_1LSYI5W.sdf']

$$$$
P143015
     RDKit          3D

 25 28  0  0  0  0  0  0  0  0999 V2000
    2.2502   -1.4441   33.7173 C   0  0  0  0  0  0  0  0  0  0  0  0
    1.2095   -1.8328   32.7269 C   0  0  2  0  0  0  0  0  0  0  0  0
   -0.0082   -0.9568   32.5674 C   0  0  1  0  0  0  0  0  0  0  0  0
   -0.2213   -0.6211   31.1015 C   0  0  0  0  0  0  0  0  0  0  0  0
    0.7542    0.1522   30.4339 C   0  0  0  0  0  0  0  0  0  0  0  0
    0.6938    0.4021   29.0624 C   0  0  0  0  0  0  0  0  0  0  0  0
   -0.3547   -0.1181   28.3186 C   0  0  0  0  0  0  0  0  0  0  0  0
   -1.3422   -0.8662   28.9470 C   0  0  0  0  0  0  0  0  0  0  0  0
   -1.2912   -1.0858   30.3276 C   0  0  0  0  0  0  0  0  0  0  0  0
   -0.0653   -2.2686   33.1470 N   0  0  0  0  0  0  0  0  0  0  0  0
   -0.7744   -3.5174   32.6880 C   0  0  0  0  0  0  0  0  0  0  0  0
   -1.5150   -3.6874   31.7817 O   0  0  0  0  0  0  0  0  0  0  0  0
   -0.3195   -4.7224   33.5398 C   0  0  2  0  0  0  0  0  0  0  0  0
    1.0165   -4.6383   34.2723 C   0  0  0  0  0  0  0  0  0  0  0  0
   -0.3790   -5.9564   32.7340 N   0  0  0  0  0  0  0  0  0  0  0  0
   -0.9015   -7.1571   33.1307 C   0  0  0  0  0  0  0  0  0  0  0  0
   -1.3241   -7.5157   34.7633 S   0  0  0  0  0  0  0  0  0  0  0  0
   -0.9660   -7.9845   32.1148 N   0  0  0  0  0  0  0  0  0  0  0  0
   -0.4014   -7.3502   31.0287 N   0  0  0  0  0  0  0  0  0  0  0  0
    0.0120   -6.1570   31.4204 C   0  0  0  0  0  0  0  0  0  0  0  0
    0.7491   -5.2415   30.5915 C   0  0  0  0  0  0  0  0  0  0  0  0
    0.2716   -4.4341   29.5780 C   0  0  0  0  0  0  0  0  0  0  0  0
    1.2825   -3.6114   28.9986 C   0  0  0  0  0  0  0  0  0  0  0  0
    2.5176   -3.8486   29.5498 C   0  0  0  0  0  0  0  0  0  0  0  0
    2.4316   -5.0126   30.7915 S   0  0  0  0  0  0  0  0  0  0  0  0
  2  1  1  1
  2  3  1  0
  3  4  1  6
  4  5  2  0
  5  6  1  0
  6  7  2  0
  7  8  1  0
  8  9  2  0
  3 10  1  0
 10 11  1  0
 11 12  2  0
 11 13  1  0
 13 14  1  6
 13 15  1  0
 15 16  1  0
 16 17  1  0
 16 18  2  0
 18 19  1  0
 19 20  2  0
 20 21  1  0
 21 22  2  0
 22 23  1  0
 23 24  2  0
 24 25  1  0
 10  2  1  0
 20 15  1  0
 25 21  1  0
  9  4  1  0
M  END
>  <ref_mols>  (2084) 
B0454b

>  <gnina_score>  (2084) 
5.62

>  <smina_score_min>  (2084) 
-5.297

>  <ref_pdb>  (2084) 
B0454b

>  <inspiration_score>  (2084) 
None

>  <inchikey>  (2084) 
RYXXPBOGGMKMGL-JFYLMFJFSA-N

>  <tags>  (2084) 
BulkDock Fragalysis export,openbind_d68ev3c_c2_elabs_scored,openbind_d68ev3c_c2_elabs_scored_4.5plus,openbind_d68ev3c_c2_elabs,openbind_d68ev3c_c2_elabs_scored_5plus,syndirella_product,openbind_d68ev3c_c2_elabs_scored_top80percent,syndirella_placed

>  <smiles>  (2084) 
C[C@@H]1[C@@H](c2ccccc2)N1C(=O)[C@H](C)n1c(S)nnc1-c1cccs1

>  <subsites>  (2084) 
None

>  <rmsd(smina/fragmenstein)>  (2084) 
0.546

>  <alias>  (2084) 
None

>  <energy_score>  (2084) 
-57.210034

>  <HIPPO Pose ID>  (2084) 
143015

>  <distance_score>  (2084) 
0.921849

>  <HIPPO Compound ID>  (2084) 
151325

>  <gnina_score_min>  (2084) 
5.606

>  <name>  (2084) 
P143015

>  <exports>  (2084) 
['/opt/xchem-fragalysis-2/maxwin/BulkDock/OUTPUTS/openbind_d68ev3c_c2_elabs_1LOTQJ3.sdf', '/opt/xchem-fragalysis-2/maxwin/BulkDock/OUTPUTS/openbind_d68ev3c_c2_elabs_1LSYI5W.sdf']

$$$$
P143023
     RDKit          3D

 25 27  0  0  0  0  0  0  0  0999 V2000
   -0.3512   -6.2562   33.6964 C   0  0  0  0  0  0  0  0  0  0  0  0
    0.6982   -6.0724   32.5893 C   0  0  2  0  0  0  0  0  0  0  0  0
    1.4091   -4.7267   32.7329 C   0  0  0  0  0  0  0  0  0  0  0  0
    2.5809   -4.6834   32.7974 O   0  0  0  0  0  0  0  0  0  0  0  0
    0.3404   -3.5852   32.8724 N   0  0  0  0  0  0  0  0  0  0  0  0
    0.4914   -2.2516   33.1971 N   0  0  0  0  0  0  0  0  0  0  0  0
    1.8672   -1.7845   33.1079 C   0  0  0  0  0  0  0  0  0  0  0  0
   -0.5138   -1.3366   32.6370 C   0  0  0  0  0  0  0  0  0  0  0  0
   -0.4348   -0.9965   31.1656 C   0  0  0  0  0  0  0  0  0  0  0  0
    0.4882   -0.0469   30.6955 C   0  0  0  0  0  0  0  0  0  0  0  0
    0.5397    0.2946   29.3429 C   0  0  0  0  0  0  0  0  0  0  0  0
   -0.3401   -0.2994   28.4438 C   0  0  0  0  0  0  0  0  0  0  0  0
   -1.2690   -1.2346   28.8923 C   0  0  0  0  0  0  0  0  0  0  0  0
   -1.3196   -1.5790   30.2462 C   0  0  0  0  0  0  0  0  0  0  0  0
    0.3530   -6.4572   31.2159 N   0  0  0  0  0  0  0  0  0  0  0  0
   -0.3719   -7.5795   30.8625 C   0  0  0  0  0  0  0  0  0  0  0  0
   -1.6130   -8.3307   31.7670 S   0  0  0  0  0  0  0  0  0  0  0  0
    0.0668   -8.0823   29.7388 N   0  0  0  0  0  0  0  0  0  0  0  0
    1.0582   -7.2732   29.2946 N   0  0  0  0  0  0  0  0  0  0  0  0
    1.1275   -6.2176   30.0827 C   0  0  0  0  0  0  0  0  0  0  0  0
    1.9571   -5.1136   29.7132 C   0  0  0  0  0  0  0  0  0  0  0  0
    3.2806   -5.1481   29.3135 C   0  0  0  0  0  0  0  0  0  0  0  0
    3.7655   -3.8726   28.8976 C   0  0  0  0  0  0  0  0  0  0  0  0
    2.7762   -2.9190   28.9352 C   0  0  0  0  0  0  0  0  0  0  0  0
    1.2905   -3.5759   29.4518 S   0  0  0  0  0  0  0  0  0  0  0  0
  2  1  1  1
  2  3  1  0
  3  4  2  0
  3  5  1  0
  5  6  1  0
  6  7  1  0
  6  8  1  0
  8  9  1  0
  9 10  2  0
 10 11  1  0
 11 12  2  0
 12 13  1  0
 13 14  2  0
  2 15  1  0
 15 16  1  0
 16 17  1  0
 16 18  2  0
 18 19  1  0
 19 20  2  0
 20 21  1  0
 21 22  2  0
 22 23  1  0
 23 24  2  0
 24 25  1  0
 14  9  1  0
 20 15  1  0
 25 21  1  0
M  END
>  <ref_mols>  (2085) 
B0454b

>  <gnina_score>  (2085) 
5.564

>  <smina_score_min>  (2085) 
-5.097

>  <ref_pdb>  (2085) 
B0454b

>  <inspiration_score>  (2085) 
None

>  <inchikey>  (2085) 
ZBODHSJEOVOEPL-GFCCVEGCSA-N

>  <tags>  (2085) 
BulkDock Fragalysis export,openbind_d68ev3c_c2_elabs_scored,openbind_d68ev3c_c2_elabs_scored_4.5plus,openbind_d68ev3c_c2_elabs,openbind_d68ev3c_c2_elabs_scored_5plus,syndirella_product,openbind_d68ev3c_c2_elabs_scored_top80percent,syndirella_placed

>  <smiles>  (2085) 
C[C@H](C(=O)NN(C)Cc1ccccc1)n1c(S)nnc1-c1cccs1

>  <subsites>  (2085) 
None

>  <rmsd(smina/fragmenstein)>  (2085) 
1.534

>  <alias>  (2085) 
None

>  <energy_score>  (2085) 
-20.974114

>  <HIPPO Pose ID>  (2085) 
143023

>  <distance_score>  (2085) 
1.02158

>  <HIPPO Compound ID>  (2085) 
151326

>  <gnina_score_min>  (2085) 
5.273

>  <name>  (2085) 
P143023

>  <exports>  (2085) 
['/opt/xchem-fragalysis-2/maxwin/BulkDock/OUTPUTS/openbind_d68ev3c_c2_elabs_1LOTQJ3.sdf', '/opt/xchem-fragalysis-2/maxwin/BulkDock/OUTPUTS/openbind_d68ev3c_c2_elabs_1LSYI5W.sdf']

$$$$
P143024
     RDKit          3D

 25 28  0  0  0  0  0  0  0  0999 V2000
    1.7962   -5.2137   32.7558 C   0  0  0  0  0  0  0  0  0  0  0  0
    0.4164   -5.2403   32.1020 C   0  0  2  0  0  0  0  0  0  0  0  0
   -0.5500   -4.0291   32.1913 C   0  0  0  0  0  0  0  0  0  0  0  0
   -1.6788   -4.1567   31.8896 O   0  0  0  0  0  0  0  0  0  0  0  0
    0.2411   -2.7543   32.6497 N   0  0  0  0  0  0  0  0  0  0  0  0
   -0.1651   -1.4049   32.7332 N   0  0  0  0  0  0  0  0  0  0  0  0
    0.9069   -0.5292   32.1438 C   0  0  0  0  0  0  0  0  0  0  0  0
    0.5958   -0.4508   30.6867 C   0  0  0  0  0  0  0  0  0  0  0  0
    1.3894   -0.0724   29.6213 C   0  0  0  0  0  0  0  0  0  0  0  0
    0.8257   -0.1146   28.3474 C   0  0  0  0  0  0  0  0  0  0  0  0
   -0.5006   -0.5326   28.1680 C   0  0  0  0  0  0  0  0  0  0  0  0
   -1.2837   -0.9130   29.2507 C   0  0  0  0  0  0  0  0  0  0  0  0
   -0.7297   -0.8435   30.5057 C   0  0  0  0  0  0  0  0  0  0  0  0
   -1.3372   -1.1225   31.8406 C   0  0  0  0  0  0  0  0  0  0  0  0
   -0.3242   -6.4521   32.4543 N   0  0  0  0  0  0  0  0  0  0  0  0
   -0.6902   -7.4582   31.5994 C   0  0  0  0  0  0  0  0  0  0  0  0
   -0.0956   -7.6922   30.0141 S   0  0  0  0  0  0  0  0  0  0  0  0
   -1.4784   -8.3073   32.1959 N   0  0  0  0  0  0  0  0  0  0  0  0
   -1.5597   -7.9228   33.5038 N   0  0  0  0  0  0  0  0  0  0  0  0
   -0.8160   -6.8457   33.6829 C   0  0  0  0  0  0  0  0  0  0  0  0
   -0.5060   -6.3560   35.0002 C   0  0  0  0  0  0  0  0  0  0  0  0
   -0.2445   -7.1693   36.0891 C   0  0  0  0  0  0  0  0  0  0  0  0
    0.0437   -6.4434   37.2799 C   0  0  0  0  0  0  0  0  0  0  0  0
   -0.0521   -5.0871   37.0803 C   0  0  0  0  0  0  0  0  0  0  0  0
   -0.4701   -4.7126   35.4691 S   0  0  0  0  0  0  0  0  0  0  0  0
  2  1  1  1
  2  3  1  0
  3  4  2  0
  3  5  1  0
  5  6  1  0
  6  7  1  0
  7  8  1  0
  8  9  2  0
  9 10  1  0
 10 11  2  0
 11 12  1  0
 12 13  2  0
 13 14  1  0
  2 15  1  0
 15 16  1  0
 16 17  1  0
 16 18  2  0
 18 19  1  0
 19 20  2  0
 20 21  1  0
 21 22  2  0
 22 23  1  0
 23 24  2  0
 24 25  1  0
 14  6  1  0
 20 15  1  0
 25 21  1  0
 13  8  1  0
M  END
>  <ref_mols>  (2086) 
B0454b

>  <gnina_score>  (2086) 
5.753

>  <smina_score_min>  (2086) 
-5.975

>  <ref_pdb>  (2086) 
B0454b

>  <inspiration_score>  (2086) 
None

>  <inchikey>  (2086) 
ITSHDXIIFRGRQD-LLVKDONJSA-N

>  <tags>  (2086) 
BulkDock Fragalysis export,openbind_d68ev3c_c2_elabs_scored,openbind_d68ev3c_c2_elabs_scored_4.5plus,openbind_d68ev3c_c2_elabs,openbind_d68ev3c_c2_elabs_scored_5plus,syndirella_product,openbind_d68ev3c_c2_elabs_scored_top80percent,syndirella_placed

>  <smiles>  (2086) 
C[C@H](C(=O)NN1Cc2ccccc2C1)n1c(S)nnc1-c1cccs1

>  <subsites>  (2086) 
None

>  <rmsd(smina/fragmenstein)>  (2086) 
0.499

>  <alias>  (2086) 
None

>  <energy_score>  (2086) 
-33.009194

>  <HIPPO Pose ID>  (2086) 
143024

>  <distance_score>  (2086) 
0.896033

>  <HIPPO Compound ID>  (2086) 
151327

>  <gnina_score_min>  (2086) 
5.743

>  <name>  (2086) 
P143024

>  <exports>  (2086) 
['/opt/xchem-fragalysis-2/maxwin/BulkDock/OUTPUTS/openbind_d68ev3c_c2_elabs_1LOTQJ3.sdf', '/opt/xchem-fragalysis-2/maxwin/BulkDock/OUTPUTS/openbind_d68ev3c_c2_elabs_1LSYI5W.sdf']

$$$$
P143030
     RDKit          3D

 25 28  0  0  0  0  0  0  0  0999 V2000
   -1.0802   -4.2344   31.3866 O   0  0  0  0  0  0  0  0  0  0  0  0
   -0.2404   -4.2432   32.2159 C   0  0  0  0  0  0  0  0  0  0  0  0
    0.1843   -5.5240   32.9612 C   0  0  1  0  0  0  0  0  0  0  0  0
   -0.0492   -5.3661   34.4775 C   0  0  0  0  0  0  0  0  0  0  0  0
    0.9468   -6.1170   35.3360 C   0  0  0  0  0  0  0  0  0  0  0  0
    2.3249   -5.8690   35.2307 C   0  0  0  0  0  0  0  0  0  0  0  0
    3.2324   -6.5237   36.0651 C   0  0  0  0  0  0  0  0  0  0  0  0
    2.7715   -7.4111   37.0330 C   0  0  0  0  0  0  0  0  0  0  0  0
    1.4050   -7.6433   37.1662 C   0  0  0  0  0  0  0  0  0  0  0  0
    0.4978   -7.0076   36.3181 C   0  0  0  0  0  0  0  0  0  0  0  0
   -0.4173   -6.6949   32.3300 N   0  0  0  0  0  0  0  0  0  0  0  0
   -0.3036   -7.0168   31.0038 C   0  0  0  0  0  0  0  0  0  0  0  0
   -1.0042   -8.0940   30.7455 N   0  0  0  0  0  0  0  0  0  0  0  0
   -1.5630   -8.5067   31.9250 N   0  0  0  0  0  0  0  0  0  0  0  0
   -1.1848   -7.6747   32.8692 C   0  0  0  0  0  0  0  0  0  0  0  0
    0.6831   -3.1283   32.6962 N   0  0  0  0  0  0  0  0  0  0  0  0
    2.0008   -3.0951   31.8857 C   0  0  0  0  0  0  0  0  0  0  0  0
    2.2420   -1.7585   32.5498 C   0  0  0  0  0  0  0  0  0  0  0  0
    0.7333   -1.6216   32.3183 C   0  0  1  0  0  0  0  0  0  0  0  0
    0.2481   -1.0801   30.8765 C   0  0  0  0  0  0  0  0  0  0  0  0
    1.0242   -0.1293   30.1715 C   0  0  0  0  0  0  0  0  0  0  0  0
    0.7062    0.3015   28.8817 C   0  0  0  0  0  0  0  0  0  0  0  0
   -0.4189   -0.2011   28.2494 C   0  0  0  0  0  0  0  0  0  0  0  0
   -1.2338   -1.1021   28.9178 C   0  0  0  0  0  0  0  0  0  0  0  0
   -0.9233   -1.4995   30.2223 C   0  0  0  0  0  0  0  0  0  0  0  0
  1  2  2  0
  2  3  1  0
  3  4  1  1
  4  5  1  0
  5  6  2  0
  6  7  1  0
  7  8  2  0
  8  9  1  0
  9 10  2  0
  3 11  1  0
 11 12  1  0
 12 13  2  0
 13 14  1  0
 14 15  2  0
  2 16  1  0
 16 17  1  0
 17 18  1  0
 18 19  1  0
 19 20  1  6
 20 21  2  0
 21 22  1  0
 22 23  2  0
 23 24  1  0
 24 25  2  0
 10  5  1  0
 15 11  1  0
 19 16  1  0
 25 20  1  0
M  END
>  <ref_mols>  (2087) 
B0454b

>  <gnina_score>  (2087) 
5.023

>  <smina_score_min>  (2087) 
-6.39

>  <ref_pdb>  (2087) 
B0454b

>  <inspiration_score>  (2087) 
None

>  <inchikey>  (2087) 
FQCWFOYAXPKLGZ-RBUKOAKNSA-N

>  <tags>  (2087) 
BulkDock Fragalysis export,openbind_d68ev3c_c2_elabs_scored,openbind_d68ev3c_c2_elabs_scored_4.5plus,openbind_d68ev3c_c2_elabs,openbind_d68ev3c_c2_elabs_scored_5plus,syndirella_product,openbind_d68ev3c_c2_elabs_scored_top80percent,syndirella_placed

>  <smiles>  (2087) 
O=C([C@@H](Cc1ccccc1)n1cnnc1)N1CC[C@H]1c1ccccc1

>  <subsites>  (2087) 
None

>  <rmsd(smina/fragmenstein)>  (2087) 
0.91

>  <alias>  (2087) 
None

>  <energy_score>  (2087) 
-2.215591

>  <HIPPO Pose ID>  (2087) 
143030

>  <distance_score>  (2087) 
0.611086

>  <HIPPO Compound ID>  (2087) 
151333

>  <gnina_score_min>  (2087) 
5.124

>  <name>  (2087) 
P143030

>  <exports>  (2087) 
['/opt/xchem-fragalysis-2/maxwin/BulkDock/OUTPUTS/openbind_d68ev3c_c2_elabs_1LOTQJ3.sdf', '/opt/xchem-fragalysis-2/maxwin/BulkDock/OUTPUTS/openbind_d68ev3c_c2_elabs_1LSYI5W.sdf']

$$$$
P143037
     RDKit          3D

 25 28  0  0  0  0  0  0  0  0999 V2000
    2.9964   -2.6210   32.8045 C   0  0  0  0  0  0  0  0  0  0  0  0
    1.7417   -2.7477   32.0174 C   0  0  2  0  0  0  0  0  0  0  0  0
    0.6241   -1.7166   32.1834 C   0  0  1  0  0  0  0  0  0  0  0  0
    0.1889   -1.1653   30.8463 C   0  0  0  0  0  0  0  0  0  0  0  0
   -0.9964   -1.5009   30.1818 C   0  0  0  0  0  0  0  0  0  0  0  0
   -1.2547   -1.0495   28.8844 C   0  0  0  0  0  0  0  0  0  0  0  0
   -0.3659   -0.1917   28.2491 C   0  0  0  0  0  0  0  0  0  0  0  0
    0.7911    0.2080   28.9004 C   0  0  0  0  0  0  0  0  0  0  0  0
    1.0604   -0.2760   30.1804 C   0  0  0  0  0  0  0  0  0  0  0  0
    0.5315   -3.0532   32.6662 N   0  0  0  0  0  0  0  0  0  0  0  0
   -0.3749   -4.1908   32.2537 C   0  0  0  0  0  0  0  0  0  0  0  0
   -1.2718   -4.2126   31.4868 O   0  0  0  0  0  0  0  0  0  0  0  0
    0.1517   -5.4501   32.9644 C   0  0  1  0  0  0  0  0  0  0  0  0
   -0.0183   -5.3185   34.4902 C   0  0  0  0  0  0  0  0  0  0  0  0
    0.9398   -6.1512   35.3163 C   0  0  0  0  0  0  0  0  0  0  0  0
    2.3279   -6.0857   35.1212 C   0  0  0  0  0  0  0  0  0  0  0  0
    3.1984   -6.8026   35.9444 C   0  0  0  0  0  0  0  0  0  0  0  0
    2.6935   -7.5733   36.9870 C   0  0  0  0  0  0  0  0  0  0  0  0
    1.3196   -7.6310   37.2050 C   0  0  0  0  0  0  0  0  0  0  0  0
    0.4480   -6.9273   36.3740 C   0  0  0  0  0  0  0  0  0  0  0  0
   -0.4161   -6.6437   32.3466 N   0  0  0  0  0  0  0  0  0  0  0  0
   -0.3065   -6.9678   31.0209 C   0  0  0  0  0  0  0  0  0  0  0  0
   -0.9866   -8.0605   30.7720 N   0  0  0  0  0  0  0  0  0  0  0  0
   -1.5310   -8.4781   31.9573 N   0  0  0  0  0  0  0  0  0  0  0  0
   -1.1653   -7.6329   32.8949 C   0  0  0  0  0  0  0  0  0  0  0  0
  2  1  1  1
  2  3  1  0
  3  4  1  6
  4  5  2  0
  5  6  1  0
  6  7  2  0
  7  8  1  0
  8  9  2  0
  3 10  1  0
 10 11  1  0
 11 12  2  0
 11 13  1  0
 13 14  1  1
 14 15  1  0
 15 16  2  0
 16 17  1  0
 17 18  2  0
 18 19  1  0
 19 20  2  0
 13 21  1  0
 21 22  1  0
 22 23  2  0
 23 24  1  0
 24 25  2  0
 10  2  1  0
 20 15  1  0
 25 21  1  0
  9  4  1  0
M  END
>  <ref_mols>  (2088) 
B0454b

>  <gnina_score>  (2088) 
5.073

>  <smina_score_min>  (2088) 
-6.36

>  <ref_pdb>  (2088) 
B0454b

>  <inspiration_score>  (2088) 
None

>  <inchikey>  (2088) 
YHASYXHFIXQRHE-RSOWOLOUSA-N

>  <tags>  (2088) 
BulkDock Fragalysis export,openbind_d68ev3c_c2_elabs_scored,openbind_d68ev3c_c2_elabs_scored_4.5plus,openbind_d68ev3c_c2_elabs,openbind_d68ev3c_c2_elabs_scored_5plus,syndirella_product,openbind_d68ev3c_c2_elabs_scored_top80percent,syndirella_placed

>  <smiles>  (2088) 
C[C@@H]1[C@@H](c2ccccc2)N1C(=O)[C@@H](Cc1ccccc1)n1cnnc1

>  <subsites>  (2088) 
None

>  <rmsd(smina/fragmenstein)>  (2088) 
0.716

>  <alias>  (2088) 
None

>  <energy_score>  (2088) 
-11.755301

>  <HIPPO Pose ID>  (2088) 
143037

>  <distance_score>  (2088) 
0.539703

>  <HIPPO Compound ID>  (2088) 
151334

>  <gnina_score_min>  (2088) 
5.124

>  <name>  (2088) 
P143037

>  <exports>  (2088) 
['/opt/xchem-fragalysis-2/maxwin/BulkDock/OUTPUTS/openbind_d68ev3c_c2_elabs_1LOTQJ3.sdf', '/opt/xchem-fragalysis-2/maxwin/BulkDock/OUTPUTS/openbind_d68ev3c_c2_elabs_1LSYI5W.sdf']

$$$$
P143040
     RDKit          3D

 25 28  0  0  0  0  0  0  0  0999 V2000
    3.6071   -2.7113   28.7767 C   0  0  0  0  0  0  0  0  0  0  0  0
    2.6890   -3.6356   29.5191 C   0  0  0  0  0  0  0  0  0  0  0  0
    3.1186   -4.3410   30.6449 C   0  0  0  0  0  0  0  0  0  0  0  0
    2.2371   -5.1903   31.3249 C   0  0  0  0  0  0  0  0  0  0  0  0
    0.9297   -5.3890   30.8659 C   0  0  0  0  0  0  0  0  0  0  0  0
    0.0224   -6.2728   31.5960 C   0  0  0  0  0  0  0  0  0  0  0  0
   -0.4574   -7.4401   31.1999 N   0  0  0  0  0  0  0  0  0  0  0  0
   -1.0816   -8.0325   32.2783 N   0  0  0  0  0  0  0  0  0  0  0  0
   -0.9990   -7.1957   33.2845 C   0  0  0  0  0  0  0  0  0  0  0  0
   -1.3951   -7.5235   34.9253 S   0  0  0  0  0  0  0  0  0  0  0  0
   -0.4563   -6.0201   32.8692 N   0  0  0  0  0  0  0  0  0  0  0  0
   -0.4049   -4.7525   33.5862 C   0  0  0  0  0  0  0  0  0  0  0  0
   -0.8789   -3.6129   32.6955 C   0  0  0  0  0  0  0  0  0  0  0  0
   -1.5986   -3.7798   31.7735 O   0  0  0  0  0  0  0  0  0  0  0  0
   -0.1793   -2.3634   33.1754 N   0  0  0  0  0  0  0  0  0  0  0  0
    1.1011   -1.9410   32.7759 C   0  0  0  0  0  0  0  0  0  0  0  0
   -0.1105   -1.0527   32.6030 C   0  0  1  0  0  0  0  0  0  0  0  0
   -0.2795   -0.7017   31.1341 C   0  0  0  0  0  0  0  0  0  0  0  0
    0.7061    0.0927   30.5074 C   0  0  0  0  0  0  0  0  0  0  0  0
    0.6894    0.3531   29.1362 C   0  0  0  0  0  0  0  0  0  0  0  0
   -0.3225   -0.1785   28.3509 C   0  0  0  0  0  0  0  0  0  0  0  0
   -1.3205   -0.9457   28.9381 C   0  0  0  0  0  0  0  0  0  0  0  0
   -1.3129   -1.1768   30.3179 C   0  0  0  0  0  0  0  0  0  0  0  0
    0.5067   -4.6810   29.7425 C   0  0  0  0  0  0  0  0  0  0  0  0
    1.3722   -3.8029   29.0842 C   0  0  0  0  0  0  0  0  0  0  0  0
  1  2  1  0
  2  3  2  0
  3  4  1  0
  4  5  2  0
  5  6  1  0
  6  7  2  0
  7  8  1  0
  8  9  2  0
  9 10  1  0
  9 11  1  0
 11 12  1  0
 12 13  1  0
 13 14  2  0
 13 15  1  0
 15 16  1  0
 16 17  1  0
 17 18  1  6
 18 19  2  0
 19 20  1  0
 20 21  2  0
 21 22  1  0
 22 23  2  0
  5 24  1  0
 24 25  2  0
 25  2  1  0
 11  6  1  0
 17 15  1  0
 23 18  1  0
M  END
>  <ref_mols>  (2089) 
B0454b

>  <gnina_score>  (2089) 
5.379

>  <smina_score_min>  (2089) 
-5.643

>  <ref_pdb>  (2089) 
B0454b

>  <inspiration_score>  (2089) 
None

>  <inchikey>  (2089) 
BNFZTWUKZFGYFB-AOMKIAJQSA-N

>  <tags>  (2089) 
BulkDock Fragalysis export,openbind_d68ev3c_c2_elabs_scored,openbind_d68ev3c_c2_elabs_scored_4.5plus,openbind_d68ev3c_c2_elabs,openbind_d68ev3c_c2_elabs_scored_5plus,syndirella_product,openbind_d68ev3c_c2_elabs_scored_top80percent,syndirella_placed

>  <smiles>  (2089) 
Cc1ccc(-c2nnc(S)n2CC(=O)N2C[C@H]2c2ccccc2)cc1

>  <subsites>  (2089) 
None

>  <rmsd(smina/fragmenstein)>  (2089) 
0.492

>  <alias>  (2089) 
None

>  <energy_score>  (2089) 
-33.655764

>  <HIPPO Pose ID>  (2089) 
143040

>  <distance_score>  (2089) 
0.876922

>  <HIPPO Compound ID>  (2089) 
151339

>  <gnina_score_min>  (2089) 
5.36

>  <name>  (2089) 
P143040

>  <exports>  (2089) 
['/opt/xchem-fragalysis-2/maxwin/BulkDock/OUTPUTS/openbind_d68ev3c_c2_elabs_1LOTQJ3.sdf', '/opt/xchem-fragalysis-2/maxwin/BulkDock/OUTPUTS/openbind_d68ev3c_c2_elabs_1LSYI5W.sdf']

$$$$
P143043
     RDKit          3D

 25 28  0  0  0  0  0  0  0  0999 V2000
   -0.4101   -3.0918   37.0367 C   0  0  0  0  0  0  0  0  0  0  0  0
   -0.2997   -4.5473   36.6918 C   0  0  0  0  0  0  0  0  0  0  0  0
    0.1404   -5.4672   37.6487 C   0  0  0  0  0  0  0  0  0  0  0  0
    0.2263   -6.8206   37.3322 C   0  0  0  0  0  0  0  0  0  0  0  0
   -0.1150   -7.2574   36.0524 C   0  0  0  0  0  0  0  0  0  0  0  0
   -0.5060   -6.3524   35.0632 C   0  0  0  0  0  0  0  0  0  0  0  0
   -0.8067   -6.8562   33.7243 C   0  0  0  0  0  0  0  0  0  0  0  0
   -1.6925   -7.7958   33.4475 N   0  0  0  0  0  0  0  0  0  0  0  0
   -1.5858   -8.1327   32.1253 N   0  0  0  0  0  0  0  0  0  0  0  0
   -0.6242   -7.4089   31.6223 C   0  0  0  0  0  0  0  0  0  0  0  0
    0.0068   -7.6423   30.0513 S   0  0  0  0  0  0  0  0  0  0  0  0
   -0.1334   -6.5431   32.5598 N   0  0  0  0  0  0  0  0  0  0  0  0
    0.9900   -5.6397   32.4258 C   0  0  0  0  0  0  0  0  0  0  0  0
    0.6454   -4.4206   31.5939 C   0  0  0  0  0  0  0  0  0  0  0  0
    0.6775   -4.4271   30.4150 O   0  0  0  0  0  0  0  0  0  0  0  0
    0.2108   -3.3394   32.5524 N   0  0  0  0  0  0  0  0  0  0  0  0
    1.1125   -2.3816   33.0535 C   0  0  0  0  0  0  0  0  0  0  0  0
   -0.1884   -2.0094   32.3183 C   0  0  1  0  0  0  0  0  0  0  0  0
   -0.1418   -1.4064   30.9429 C   0  0  0  0  0  0  0  0  0  0  0  0
    0.7440   -0.3611   30.6254 C   0  0  0  0  0  0  0  0  0  0  0  0
    0.7655    0.2152   29.3533 C   0  0  0  0  0  0  0  0  0  0  0  0
   -0.1143   -0.2333   28.3749 C   0  0  0  0  0  0  0  0  0  0  0  0
   -1.0089   -1.2572   28.6629 C   0  0  0  0  0  0  0  0  0  0  0  0
   -1.0217   -1.8327   29.9336 C   0  0  0  0  0  0  0  0  0  0  0  0
   -0.6054   -4.9984   35.3989 C   0  0  0  0  0  0  0  0  0  0  0  0
  1  2  1  0
  2  3  2  0
  3  4  1  0
  4  5  2  0
  5  6  1  0
  6  7  1  0
  7  8  2  0
  8  9  1  0
  9 10  2  0
 10 11  1  0
 10 12  1  0
 12 13  1  0
 13 14  1  0
 14 15  2  0
 14 16  1  0
 16 17  1  0
 17 18  1  0
 18 19  1  6
 19 20  2  0
 20 21  1  0
 21 22  2  0
 22 23  1  0
 23 24  2  0
  6 25  2  0
 25  2  1  0
 12  7  1  0
 18 16  1  0
 24 19  1  0
M  END
>  <ref_mols>  (2090) 
B0454b

>  <gnina_score>  (2090) 
5.644

>  <smina_score_min>  (2090) 
-6.076

>  <ref_pdb>  (2090) 
B0454b

>  <inspiration_score>  (2090) 
None

>  <inchikey>  (2090) 
ADBMJFBCMMQISO-AOMKIAJQSA-N

>  <tags>  (2090) 
BulkDock Fragalysis export,openbind_d68ev3c_c2_elabs_scored,openbind_d68ev3c_c2_elabs_scored_4.5plus,openbind_d68ev3c_c2_elabs,openbind_d68ev3c_c2_elabs_scored_5plus,syndirella_product,openbind_d68ev3c_c2_elabs_scored_top80percent,syndirella_placed

>  <smiles>  (2090) 
Cc1cccc(-c2nnc(S)n2CC(=O)N2C[C@H]2c2ccccc2)c1

>  <subsites>  (2090) 
None

>  <rmsd(smina/fragmenstein)>  (2090) 
0.86

>  <alias>  (2090) 
None

>  <energy_score>  (2090) 
-40.610854

>  <HIPPO Pose ID>  (2090) 
143043

>  <distance_score>  (2090) 
0.953568

>  <HIPPO Compound ID>  (2090) 
151340

>  <gnina_score_min>  (2090) 
5.781

>  <name>  (2090) 
P143043

>  <exports>  (2090) 
['/opt/xchem-fragalysis-2/maxwin/BulkDock/OUTPUTS/openbind_d68ev3c_c2_elabs_1LOTQJ3.sdf', '/opt/xchem-fragalysis-2/maxwin/BulkDock/OUTPUTS/openbind_d68ev3c_c2_elabs_1LSYI5W.sdf']

$$$$
P143045
     RDKit          3D

 25 28  0  0  0  0  0  0  0  0999 V2000
   -1.3710   -3.6769   31.6498 O   0  0  0  0  0  0  0  0  0  0  0  0
   -0.7741   -3.5321   32.6588 C   0  0  0  0  0  0  0  0  0  0  0  0
   -0.3888   -4.7143   33.5385 C   0  0  0  0  0  0  0  0  0  0  0  0
   -0.4355   -5.9710   32.7936 N   0  0  0  0  0  0  0  0  0  0  0  0
   -0.9443   -7.1643   33.2140 C   0  0  0  0  0  0  0  0  0  0  0  0
   -1.3355   -7.4988   34.8567 S   0  0  0  0  0  0  0  0  0  0  0  0
   -1.0040   -8.0097   32.2116 N   0  0  0  0  0  0  0  0  0  0  0  0
   -0.4134   -7.4025   31.1224 N   0  0  0  0  0  0  0  0  0  0  0  0
    0.0152   -6.2143   31.5087 C   0  0  0  0  0  0  0  0  0  0  0  0
    0.8296   -5.3327   30.7205 C   0  0  0  0  0  0  0  0  0  0  0  0
    0.4673   -4.6132   29.5998 C   0  0  0  0  0  0  0  0  0  0  0  0
    1.5222   -3.7935   29.1009 C   0  0  0  0  0  0  0  0  0  0  0  0
    2.6721   -3.9319   29.8414 C   0  0  0  0  0  0  0  0  0  0  0  0
    2.4419   -4.9820   31.1675 S   0  0  0  0  0  0  0  0  0  0  0  0
   -0.1713   -2.2767   33.2747 N   0  0  0  0  0  0  0  0  0  0  0  0
    1.2856   -2.0627   32.8123 C   0  0  0  0  0  0  0  0  0  0  0  0
    1.1511   -0.6882   33.4448 C   0  0  0  0  0  0  0  0  0  0  0  0
   -0.2432   -0.7914   32.8220 C   0  0  1  0  0  0  0  0  0  0  0  0
   -0.3659   -0.4897   31.2101 C   0  0  0  0  0  0  0  0  0  0  0  0
   -1.3660   -1.0513   30.3923 C   0  0  0  0  0  0  0  0  0  0  0  0
   -1.3515   -0.9361   28.9945 C   0  0  0  0  0  0  0  0  0  0  0  0
   -0.3637   -0.1918   28.3679 C   0  0  0  0  0  0  0  0  0  0  0  0
    0.5978    0.4273   29.1415 C   0  0  0  0  0  0  0  0  0  0  0  0
    1.5557    1.1574   28.5554 F   0  0  0  0  0  0  0  0  0  0  0  0
    0.5963    0.2918   30.5287 C   0  0  0  0  0  0  0  0  0  0  0  0
  1  2  2  0
  2  3  1  0
  3  4  1  0
  4  5  1  0
  5  6  1  0
  5  7  2  0
  7  8  1  0
  8  9  2  0
  9 10  1  0
 10 11  2  0
 11 12  1  0
 12 13  2  0
 13 14  1  0
  2 15  1  0
 15 16  1  0
 16 17  1  0
 17 18  1  0
 18 19  1  6
 19 20  2  0
 20 21  1  0
 21 22  2  0
 22 23  1  0
 23 24  1  0
 23 25  2  0
  9  4  1  0
 14 10  1  0
 18 15  1  0
 25 19  1  0
M  END
>  <ref_mols>  (2091) 
B0454b

>  <gnina_score>  (2091) 
5.573

>  <smina_score_min>  (2091) 
-5.39

>  <ref_pdb>  (2091) 
B0454b

>  <inspiration_score>  (2091) 
None

>  <inchikey>  (2091) 
JTFJXNHHBRZTOQ-ZDUSSCGKSA-N

>  <tags>  (2091) 
BulkDock Fragalysis export,openbind_d68ev3c_c2_elabs_scored,openbind_d68ev3c_c2_elabs_scored_4.5plus,openbind_d68ev3c_c2_elabs,openbind_d68ev3c_c2_elabs_scored_5plus,syndirella_product,openbind_d68ev3c_c2_elabs_scored_top80percent,syndirella_placed

>  <smiles>  (2091) 
O=C(Cn1c(S)nnc1-c1cccs1)N1CC[C@H]1c1cccc(F)c1

>  <subsites>  (2091) 
None

>  <rmsd(smina/fragmenstein)>  (2091) 
1.277

>  <alias>  (2091) 
None

>  <energy_score>  (2091) 
-30.281952

>  <HIPPO Pose ID>  (2091) 
143045

>  <distance_score>  (2091) 
0.941132

>  <HIPPO Compound ID>  (2091) 
151371

>  <gnina_score_min>  (2091) 
5.549

>  <name>  (2091) 
P143045

>  <exports>  (2091) 
['/opt/xchem-fragalysis-2/maxwin/BulkDock/OUTPUTS/openbind_d68ev3c_c2_elabs_1LOTQJ3.sdf', '/opt/xchem-fragalysis-2/maxwin/BulkDock/OUTPUTS/openbind_d68ev3c_c2_elabs_1LSYI5W.sdf']

$$$$
P143050
     RDKit          3D

 25 28  0  0  0  0  0  0  0  0999 V2000
    0.7128   -4.4135   30.5747 O   0  0  0  0  0  0  0  0  0  0  0  0
    0.7651   -4.4050   31.7528 C   0  0  0  0  0  0  0  0  0  0  0  0
    1.0833   -5.6500   32.5544 C   0  0  0  0  0  0  0  0  0  0  0  0
   -0.0751   -6.5065   32.6919 N   0  0  0  0  0  0  0  0  0  0  0  0
   -0.6325   -7.3111   31.7345 C   0  0  0  0  0  0  0  0  0  0  0  0
   -0.1126   -7.4431   30.1099 S   0  0  0  0  0  0  0  0  0  0  0  0
   -1.5741   -8.0532   32.2532 N   0  0  0  0  0  0  0  0  0  0  0  0
   -1.6288   -7.7631   33.5909 N   0  0  0  0  0  0  0  0  0  0  0  0
   -0.7289   -6.8367   33.8575 C   0  0  0  0  0  0  0  0  0  0  0  0
   -0.4245   -6.3960   35.1884 C   0  0  0  0  0  0  0  0  0  0  0  0
   -0.1855   -7.2204   36.2692 C   0  0  0  0  0  0  0  0  0  0  0  0
    0.1083   -6.5022   37.4640 C   0  0  0  0  0  0  0  0  0  0  0  0
    0.0376   -5.1426   37.2699 C   0  0  0  0  0  0  0  0  0  0  0  0
   -0.3635   -4.7515   35.6563 S   0  0  0  0  0  0  0  0  0  0  0  0
    0.4594   -3.2951   32.7406 N   0  0  0  0  0  0  0  0  0  0  0  0
    1.7255   -2.4418   33.0483 C   0  0  0  0  0  0  0  0  0  0  0  0
    0.8317   -1.3660   33.5774 C   0  0  0  0  0  0  0  0  0  0  0  0
   -0.1076   -1.8809   32.5175 C   0  0  1  0  0  0  0  0  0  0  0  0
   -0.1384   -1.3322   31.0282 C   0  0  0  0  0  0  0  0  0  0  0  0
    0.7337   -0.3414   30.5313 C   0  0  0  0  0  0  0  0  0  0  0  0
    0.6637    0.1082   29.2091 C   0  0  0  0  0  0  0  0  0  0  0  0
   -0.2893   -0.4190   28.3448 C   0  0  0  0  0  0  0  0  0  0  0  0
   -1.1664   -1.3976   28.7951 C   0  0  0  0  0  0  0  0  0  0  0  0
   -1.0877   -1.8312   30.1143 C   0  0  0  0  0  0  0  0  0  0  0  0
   -1.9579   -2.7625   30.5396 F   0  0  0  0  0  0  0  0  0  0  0  0
  1  2  2  0
  2  3  1  0
  3  4  1  0
  4  5  1  0
  5  6  1  0
  5  7  2  0
  7  8  1  0
  8  9  2  0
  9 10  1  0
 10 11  2  0
 11 12  1  0
 12 13  2  0
 13 14  1  0
  2 15  1  0
 15 16  1  0
 16 17  1  0
 17 18  1  0
 18 19  1  6
 19 20  2  0
 20 21  1  0
 21 22  2  0
 22 23  1  0
 23 24  2  0
 24 25  1  0
  9  4  1  0
 14 10  1  0
 18 15  1  0
 24 19  1  0
M  END
>  <ref_mols>  (2092) 
B0454b

>  <gnina_score>  (2092) 
5.746

>  <smina_score_min>  (2092) 
-5.687

>  <ref_pdb>  (2092) 
B0454b

>  <inspiration_score>  (2092) 
None

>  <inchikey>  (2092) 
FMHIYHDANUABAC-ZDUSSCGKSA-N

>  <tags>  (2092) 
BulkDock Fragalysis export,openbind_d68ev3c_c2_elabs_scored,openbind_d68ev3c_c2_elabs_scored_4.5plus,openbind_d68ev3c_c2_elabs,openbind_d68ev3c_c2_elabs_scored_5plus,syndirella_product,openbind_d68ev3c_c2_elabs_scored_top80percent,syndirella_placed

>  <smiles>  (2092) 
O=C(Cn1c(S)nnc1-c1cccs1)N1CC[C@H]1c1ccccc1F

>  <subsites>  (2092) 
None

>  <rmsd(smina/fragmenstein)>  (2092) 
0.703

>  <alias>  (2092) 
None

>  <energy_score>  (2092) 
-17.288811

>  <HIPPO Pose ID>  (2092) 
143050

>  <distance_score>  (2092) 
0.988586

>  <HIPPO Compound ID>  (2092) 
151410

>  <gnina_score_min>  (2092) 
5.812

>  <name>  (2092) 
P143050

>  <exports>  (2092) 
['/opt/xchem-fragalysis-2/maxwin/BulkDock/OUTPUTS/openbind_d68ev3c_c2_elabs_1LOTQJ3.sdf', '/opt/xchem-fragalysis-2/maxwin/BulkDock/OUTPUTS/openbind_d68ev3c_c2_elabs_1LSYI5W.sdf']

$$$$
P143052
     RDKit          3D

 25 28  0  0  0  0  0  0  0  0999 V2000
   -1.3679   -3.6000   31.7647 O   0  0  0  0  0  0  0  0  0  0  0  0
   -0.6899   -3.5599   32.7303 C   0  0  0  0  0  0  0  0  0  0  0  0
   -0.3055   -4.8028   33.5081 C   0  0  0  0  0  0  0  0  0  0  0  0
   -0.4405   -6.0116   32.7042 N   0  0  0  0  0  0  0  0  0  0  0  0
   -0.9627   -7.2033   33.1124 C   0  0  0  0  0  0  0  0  0  0  0  0
   -1.3451   -7.5433   34.7580 S   0  0  0  0  0  0  0  0  0  0  0  0
   -1.0568   -8.0282   32.0961 N   0  0  0  0  0  0  0  0  0  0  0  0
   -0.4992   -7.3994   30.9996 N   0  0  0  0  0  0  0  0  0  0  0  0
   -0.0599   -6.2159   31.3907 C   0  0  0  0  0  0  0  0  0  0  0  0
    0.7053   -5.3075   30.5797 C   0  0  0  0  0  0  0  0  0  0  0  0
    0.2648   -4.4940   29.5539 C   0  0  0  0  0  0  0  0  0  0  0  0
    1.2936   -3.6618   29.0205 C   0  0  0  0  0  0  0  0  0  0  0  0
    2.5074   -3.9023   29.6176 C   0  0  0  0  0  0  0  0  0  0  0  0
    2.3721   -5.0569   30.8664 S   0  0  0  0  0  0  0  0  0  0  0  0
    0.0340   -2.3875   33.3768 N   0  0  0  0  0  0  0  0  0  0  0  0
    1.4634   -2.2254   32.8157 C   0  0  0  0  0  0  0  0  0  0  0  0
    1.4629   -0.8997   33.5515 C   0  0  0  0  0  0  0  0  0  0  0  0
    0.0213   -0.8811   33.0306 C   0  0  1  0  0  0  0  0  0  0  0  0
   -0.2013   -0.4094   31.4797 C   0  0  0  0  0  0  0  0  0  0  0  0
   -1.2347   -0.8851   30.6493 C   0  0  0  0  0  0  0  0  0  0  0  0
   -1.3655   -0.4917   29.3122 C   0  0  0  0  0  0  0  0  0  0  0  0
   -0.5143    0.4688   28.7931 C   0  0  0  0  0  0  0  0  0  0  0  0
   -0.8483    1.1826   27.2750 Cl  0  0  0  0  0  0  0  0  0  0  0  0
    0.5312    0.9559   29.5584 C   0  0  0  0  0  0  0  0  0  0  0  0
    0.6790    0.5199   30.8764 C   0  0  0  0  0  0  0  0  0  0  0  0
  1  2  2  0
  2  3  1  0
  3  4  1  0
  4  5  1  0
  5  6  1  0
  5  7  2  0
  7  8  1  0
  8  9  2  0
  9 10  1  0
 10 11  2  0
 11 12  1  0
 12 13  2  0
 13 14  1  0
  2 15  1  0
 15 16  1  0
 16 17  1  0
 17 18  1  0
 18 19  1  6
 19 20  2  0
 20 21  1  0
 21 22  2  0
 22 23  1  0
 22 24  1  0
 24 25  2  0
  9  4  1  0
 14 10  1  0
 18 15  1  0
 25 19  1  0
M  END
>  <ref_mols>  (2093) 
B0454b

>  <gnina_score>  (2093) 
5.717

>  <smina_score_min>  (2093) 
-5.613

>  <ref_pdb>  (2093) 
B0454b

>  <inspiration_score>  (2093) 
None

>  <inchikey>  (2093) 
UEMPYRKUCOPGTH-ZDUSSCGKSA-N

>  <tags>  (2093) 
BulkDock Fragalysis export,openbind_d68ev3c_c2_elabs_scored,openbind_d68ev3c_c2_elabs_scored_4.5plus,openbind_d68ev3c_c2_elabs,openbind_d68ev3c_c2_elabs_scored_5plus,syndirella_product,openbind_d68ev3c_c2_elabs_scored_top80percent,syndirella_placed

>  <smiles>  (2093) 
O=C(Cn1c(S)nnc1-c1cccs1)N1CC[C@H]1c1ccc(Cl)cc1

>  <subsites>  (2093) 
None

>  <rmsd(smina/fragmenstein)>  (2093) 
0.68

>  <alias>  (2093) 
None

>  <energy_score>  (2093) 
-25.060548

>  <HIPPO Pose ID>  (2093) 
143052

>  <distance_score>  (2093) 
1.055767

>  <HIPPO Compound ID>  (2093) 
151421

>  <gnina_score_min>  (2093) 
5.526

>  <name>  (2093) 
P143052

>  <exports>  (2093) 
['/opt/xchem-fragalysis-2/maxwin/BulkDock/OUTPUTS/openbind_d68ev3c_c2_elabs_1LOTQJ3.sdf', '/opt/xchem-fragalysis-2/maxwin/BulkDock/OUTPUTS/openbind_d68ev3c_c2_elabs_1LSYI5W.sdf']

$$$$
P143055
     RDKit          3D

 25 28  0  0  0  0  0  0  0  0999 V2000
    2.4146    0.1898   33.1625 C   0  0  0  0  0  0  0  0  0  0  0  0
    1.2688   -0.7526   33.4605 C   0  0  2  0  0  0  0  0  0  0  0  0
    1.3466   -2.1165   32.7804 C   0  0  0  0  0  0  0  0  0  0  0  0
   -0.1009   -2.2899   33.2642 N   0  0  0  0  0  0  0  0  0  0  0  0
   -0.7488   -3.5292   32.6575 C   0  0  0  0  0  0  0  0  0  0  0  0
   -1.3659   -3.6571   31.6583 O   0  0  0  0  0  0  0  0  0  0  0  0
   -0.3821   -4.7205   33.5300 C   0  0  0  0  0  0  0  0  0  0  0  0
   -0.4440   -5.9729   32.7781 N   0  0  0  0  0  0  0  0  0  0  0  0
   -0.9502   -7.1662   33.2029 C   0  0  0  0  0  0  0  0  0  0  0  0
   -1.3301   -7.4991   34.8491 S   0  0  0  0  0  0  0  0  0  0  0  0
   -1.0184   -8.0122   32.2014 N   0  0  0  0  0  0  0  0  0  0  0  0
   -0.4373   -7.4053   31.1069 N   0  0  0  0  0  0  0  0  0  0  0  0
   -0.0077   -6.2155   31.4876 C   0  0  0  0  0  0  0  0  0  0  0  0
    0.8008   -5.3366   30.6896 C   0  0  0  0  0  0  0  0  0  0  0  0
    0.4244   -4.5973   29.5866 C   0  0  0  0  0  0  0  0  0  0  0  0
    1.4786   -3.7825   29.0777 C   0  0  0  0  0  0  0  0  0  0  0  0
    2.6446   -3.9529   29.7849 C   0  0  0  0  0  0  0  0  0  0  0  0
    2.4291   -5.0191   31.0999 S   0  0  0  0  0  0  0  0  0  0  0  0
   -0.1396   -0.7876   32.8081 C   0  0  2  0  0  0  0  0  0  0  0  0
   -0.3165   -0.4729   31.2018 C   0  0  0  0  0  0  0  0  0  0  0  0
   -1.3051   -1.0816   30.4049 C   0  0  0  0  0  0  0  0  0  0  0  0
   -1.3346   -0.9664   29.0090 C   0  0  0  0  0  0  0  0  0  0  0  0
   -0.4160   -0.1593   28.3594 C   0  0  0  0  0  0  0  0  0  0  0  0
    0.5123    0.5451   29.1063 C   0  0  0  0  0  0  0  0  0  0  0  0
    0.5422    0.3995   30.4983 C   0  0  0  0  0  0  0  0  0  0  0  0
  2  1  1  6
  2  3  1  0
  3  4  1  0
  4  5  1  0
  5  6  2  0
  5  7  1  0
  7  8  1  0
  8  9  1  0
  9 10  1  0
  9 11  2  0
 11 12  1  0
 12 13  2  0
 13 14  1  0
 14 15  2  0
 15 16  1  0
 16 17  2  0
 17 18  1  0
  4 19  1  0
 19 20  1  6
 20 21  2  0
 21 22  1  0
 22 23  2  0
 23 24  1  0
 24 25  2  0
 19  2  1  0
 25 20  1  0
 13  8  1  0
 18 14  1  0
M  END
>  <ref_mols>  (2094) 
B0454b

>  <gnina_score>  (2094) 
5.613

>  <smina_score_min>  (2094) 
-4.837

>  <ref_pdb>  (2094) 
B0454b

>  <inspiration_score>  (2094) 
None

>  <inchikey>  (2094) 
SSGXWUMPLWUBSV-WBMJQRKESA-N

>  <tags>  (2094) 
BulkDock Fragalysis export,openbind_d68ev3c_c2_elabs_scored,openbind_d68ev3c_c2_elabs_scored_4.5plus,openbind_d68ev3c_c2_elabs,openbind_d68ev3c_c2_elabs_scored_5plus,syndirella_product,openbind_d68ev3c_c2_elabs_scored_top80percent,syndirella_placed

>  <smiles>  (2094) 
C[C@@H]1CN(C(=O)Cn2c(S)nnc2-c2cccs2)[C@@H]1c1ccccc1

>  <subsites>  (2094) 
None

>  <rmsd(smina/fragmenstein)>  (2094) 
0.874

>  <alias>  (2094) 
None

>  <energy_score>  (2094) 
-19.498776

>  <HIPPO Pose ID>  (2094) 
143055

>  <distance_score>  (2094) 
0.944764

>  <HIPPO Compound ID>  (2094) 
151425

>  <gnina_score_min>  (2094) 
5.431

>  <name>  (2094) 
P143055

>  <exports>  (2094) 
['/opt/xchem-fragalysis-2/maxwin/BulkDock/OUTPUTS/openbind_d68ev3c_c2_elabs_1LOTQJ3.sdf', '/opt/xchem-fragalysis-2/maxwin/BulkDock/OUTPUTS/openbind_d68ev3c_c2_elabs_1LSYI5W.sdf']

$$$$
P143061
     RDKit          3D

 26 29  0  0  0  0  0  0  0  0999 V2000
    4.5125   -3.9223   31.3267 C   0  0  0  0  0  0  0  0  0  0  0  0
    3.1446   -4.2111   30.7826 C   0  0  0  0  0  0  0  0  0  0  0  0
    2.7134   -3.5690   29.6184 C   0  0  0  0  0  0  0  0  0  0  0  0
    1.4323   -3.8020   29.1259 C   0  0  0  0  0  0  0  0  0  0  0  0
    0.5833   -4.7048   29.7672 C   0  0  0  0  0  0  0  0  0  0  0  0
    0.9956   -5.3725   30.9198 C   0  0  0  0  0  0  0  0  0  0  0  0
    0.0862   -6.2680   31.6348 C   0  0  0  0  0  0  0  0  0  0  0  0
   -0.3841   -7.4349   31.2262 N   0  0  0  0  0  0  0  0  0  0  0  0
   -1.0333   -8.0293   32.2888 N   0  0  0  0  0  0  0  0  0  0  0  0
   -0.9752   -7.1935   33.2973 C   0  0  0  0  0  0  0  0  0  0  0  0
   -1.4041   -7.5254   34.9287 S   0  0  0  0  0  0  0  0  0  0  0  0
   -0.4255   -6.0167   32.8956 N   0  0  0  0  0  0  0  0  0  0  0  0
   -0.4047   -4.7461   33.6087 C   0  0  0  0  0  0  0  0  0  0  0  0
   -0.8842   -3.6176   32.7064 C   0  0  0  0  0  0  0  0  0  0  0  0
   -1.5812   -3.8006   31.7702 O   0  0  0  0  0  0  0  0  0  0  0  0
   -0.2212   -2.3535   33.1982 N   0  0  0  0  0  0  0  0  0  0  0  0
    1.0577   -1.9086   32.8221 C   0  0  2  0  0  0  0  0  0  0  0  0
    2.0585   -1.5845   33.8719 C   0  0  0  0  0  0  0  0  0  0  0  0
   -0.1680   -1.0398   32.6242 C   0  0  1  0  0  0  0  0  0  0  0  0
   -0.3164   -0.7000   31.1499 C   0  0  0  0  0  0  0  0  0  0  0  0
    0.6717    0.0985   30.5325 C   0  0  0  0  0  0  0  0  0  0  0  0
    0.6752    0.3466   29.1590 C   0  0  0  0  0  0  0  0  0  0  0  0
   -0.3202   -0.1998   28.3625 C   0  0  0  0  0  0  0  0  0  0  0  0
   -1.3201   -0.9721   28.9401 C   0  0  0  0  0  0  0  0  0  0  0  0
   -1.3313   -1.1932   30.3215 C   0  0  0  0  0  0  0  0  0  0  0  0
    2.2781   -5.1101   31.4264 C   0  0  0  0  0  0  0  0  0  0  0  0
  1  2  1  0
  2  3  2  0
  3  4  1  0
  4  5  2  0
  5  6  1  0
  6  7  1  0
  7  8  2  0
  8  9  1  0
  9 10  2  0
 10 11  1  0
 10 12  1  0
 12 13  1  0
 13 14  1  0
 14 15  2  0
 14 16  1  0
 16 17  1  0
 17 18  1  1
 17 19  1  0
 19 20  1  6
 20 21  2  0
 21 22  1  0
 22 23  2  0
 23 24  1  0
 24 25  2  0
  6 26  2  0
 26  2  1  0
 12  7  1  0
 19 16  1  0
 25 20  1  0
M  END
>  <ref_mols>  (2095) 
B0454b

>  <gnina_score>  (2095) 
5.5

>  <smina_score_min>  (2095) 
-5.618

>  <ref_pdb>  (2095) 
B0454b

>  <inspiration_score>  (2095) 
None

>  <inchikey>  (2095) 
CRYYVGHNFXKKMW-NMCNPDOESA-N

>  <tags>  (2095) 
BulkDock Fragalysis export,openbind_d68ev3c_c2_elabs_scored,openbind_d68ev3c_c2_elabs_scored_4.5plus,openbind_d68ev3c_c2_elabs,openbind_d68ev3c_c2_elabs_scored_5plus,syndirella_product,openbind_d68ev3c_c2_elabs_scored_top80percent,syndirella_placed

>  <smiles>  (2095) 
Cc1cccc(-c2nnc(S)n2CC(=O)N2[C@H](C)[C@H]2c2ccccc2)c1

>  <subsites>  (2095) 
None

>  <rmsd(smina/fragmenstein)>  (2095) 
0.664

>  <alias>  (2095) 
None

>  <energy_score>  (2095) 
-33.352241

>  <HIPPO Pose ID>  (2095) 
143061

>  <distance_score>  (2095) 
0.897099

>  <HIPPO Compound ID>  (2095) 
151480

>  <gnina_score_min>  (2095) 
5.532

>  <name>  (2095) 
P143061

>  <exports>  (2095) 
['/opt/xchem-fragalysis-2/maxwin/BulkDock/OUTPUTS/openbind_d68ev3c_c2_elabs_1LOTQJ3.sdf', '/opt/xchem-fragalysis-2/maxwin/BulkDock/OUTPUTS/openbind_d68ev3c_c2_elabs_1LSYI5W.sdf']

$$$$
P143063
     RDKit          3D

 26 29  0  0  0  0  0  0  0  0999 V2000
    0.9136   -7.5281   38.4000 C   0  0  0  0  0  0  0  0  0  0  0  0
    0.4122   -6.6091   37.3239 C   0  0  0  0  0  0  0  0  0  0  0  0
    0.2705   -5.2406   37.5708 C   0  0  0  0  0  0  0  0  0  0  0  0
   -0.2207   -4.3944   36.5784 C   0  0  0  0  0  0  0  0  0  0  0  0
   -0.5659   -4.9089   35.3278 C   0  0  0  0  0  0  0  0  0  0  0  0
   -0.4350   -6.2735   35.0572 C   0  0  0  0  0  0  0  0  0  0  0  0
   -0.7623   -6.8389   33.7489 C   0  0  0  0  0  0  0  0  0  0  0  0
   -1.6551   -7.7850   33.5239 N   0  0  0  0  0  0  0  0  0  0  0  0
   -1.5834   -8.1579   32.2071 N   0  0  0  0  0  0  0  0  0  0  0  0
   -0.6406   -7.4449   31.6548 C   0  0  0  0  0  0  0  0  0  0  0  0
   -0.0688   -7.6981   30.0631 S   0  0  0  0  0  0  0  0  0  0  0  0
   -0.1162   -6.5652   32.5592 N   0  0  0  0  0  0  0  0  0  0  0  0
    1.0074   -5.6723   32.3747 C   0  0  0  0  0  0  0  0  0  0  0  0
    0.6156   -4.4262   31.6060 C   0  0  0  0  0  0  0  0  0  0  0  0
    0.4270   -4.4301   30.4431 O   0  0  0  0  0  0  0  0  0  0  0  0
    0.5124   -3.2947   32.6139 N   0  0  0  0  0  0  0  0  0  0  0  0
    1.8659   -2.5430   32.7661 C   0  0  0  0  0  0  0  0  0  0  0  0
    1.1077   -1.4312   33.4287 C   0  0  0  0  0  0  0  0  0  0  0  0
    0.0335   -1.8389   32.4447 C   0  0  1  0  0  0  0  0  0  0  0  0
   -0.0549   -1.2426   30.9665 C   0  0  0  0  0  0  0  0  0  0  0  0
    0.7729   -0.1988   30.5020 C   0  0  0  0  0  0  0  0  0  0  0  0
    0.6809    0.3012   29.2002 C   0  0  0  0  0  0  0  0  0  0  0  0
   -0.2558   -0.2247   28.3210 C   0  0  0  0  0  0  0  0  0  0  0  0
   -1.0942   -1.2491   28.7375 C   0  0  0  0  0  0  0  0  0  0  0  0
   -0.9970   -1.7393   30.0407 C   0  0  0  0  0  0  0  0  0  0  0  0
    0.0260   -7.1176   36.0750 C   0  0  0  0  0  0  0  0  0  0  0  0
  1  2  1  0
  2  3  2  0
  3  4  1  0
  4  5  2  0
  5  6  1  0
  6  7  1  0
  7  8  2  0
  8  9  1  0
  9 10  2  0
 10 11  1  0
 10 12  1  0
 12 13  1  0
 13 14  1  0
 14 15  2  0
 14 16  1  0
 16 17  1  0
 17 18  1  0
 18 19  1  0
 19 20  1  6
 20 21  2  0
 21 22  1  0
 22 23  2  0
 23 24  1  0
 24 25  2  0
  6 26  2  0
 26  2  1  0
 12  7  1  0
 19 16  1  0
 25 20  1  0
M  END
>  <ref_mols>  (2096) 
B0454b

>  <gnina_score>  (2096) 
5.716

>  <smina_score_min>  (2096) 
-5.701

>  <ref_pdb>  (2096) 
B0454b

>  <inspiration_score>  (2096) 
None

>  <inchikey>  (2096) 
WSCCHWPLARWLNO-KRWDZBQOSA-N

>  <tags>  (2096) 
BulkDock Fragalysis export,openbind_d68ev3c_c2_elabs_scored,openbind_d68ev3c_c2_elabs_scored_4.5plus,openbind_d68ev3c_c2_elabs,openbind_d68ev3c_c2_elabs_scored_5plus,syndirella_product,openbind_d68ev3c_c2_elabs_scored_top80percent,syndirella_placed

>  <smiles>  (2096) 
Cc1cccc(-c2nnc(S)n2CC(=O)N2CC[C@H]2c2ccccc2)c1

>  <subsites>  (2096) 
None

>  <rmsd(smina/fragmenstein)>  (2096) 
0.565

>  <alias>  (2096) 
None

>  <energy_score>  (2096) 
-12.25143

>  <HIPPO Pose ID>  (2096) 
143063

>  <distance_score>  (2096) 
0.948195

>  <HIPPO Compound ID>  (2096) 
151486

>  <gnina_score_min>  (2096) 
5.858

>  <name>  (2096) 
P143063

>  <exports>  (2096) 
['/opt/xchem-fragalysis-2/maxwin/BulkDock/OUTPUTS/openbind_d68ev3c_c2_elabs_1LOTQJ3.sdf', '/opt/xchem-fragalysis-2/maxwin/BulkDock/OUTPUTS/openbind_d68ev3c_c2_elabs_1LSYI5W.sdf']

$$$$
P143065
     RDKit          3D

 26 29  0  0  0  0  0  0  0  0999 V2000
    4.4517   -3.7561   31.1815 C   0  0  0  0  0  0  0  0  0  0  0  0
    3.0675   -4.0311   30.6742 C   0  0  0  0  0  0  0  0  0  0  0  0
    2.5872   -3.3530   29.5530 C   0  0  0  0  0  0  0  0  0  0  0  0
    1.3006   -3.6024   29.0811 C   0  0  0  0  0  0  0  0  0  0  0  0
    0.4845   -4.5426   29.7067 C   0  0  0  0  0  0  0  0  0  0  0  0
    0.9538   -5.2528   30.8077 C   0  0  0  0  0  0  0  0  0  0  0  0
    0.0979   -6.2032   31.5088 C   0  0  0  0  0  0  0  0  0  0  0  0
   -0.3117   -7.3899   31.0968 N   0  0  0  0  0  0  0  0  0  0  0  0
   -0.9419   -8.0117   32.1571 N   0  0  0  0  0  0  0  0  0  0  0  0
   -0.9252   -7.1780   33.1703 C   0  0  0  0  0  0  0  0  0  0  0  0
   -1.3846   -7.5197   34.7936 S   0  0  0  0  0  0  0  0  0  0  0  0
   -0.3971   -5.9877   32.7782 N   0  0  0  0  0  0  0  0  0  0  0  0
   -0.3744   -4.7211   33.4887 C   0  0  0  0  0  0  0  0  0  0  0  0
   -1.1842   -3.6630   32.7420 C   0  0  0  0  0  0  0  0  0  0  0  0
   -1.9916   -3.9261   31.9322 O   0  0  0  0  0  0  0  0  0  0  0  0
   -0.6961   -2.2706   33.2749 N   0  0  0  0  0  0  0  0  0  0  0  0
   -1.0261   -0.9719   32.8620 N   0  0  0  0  0  0  0  0  0  0  0  0
   -1.8227   -0.9269   31.5931 C   0  0  0  0  0  0  0  0  0  0  0  0
   -0.8514   -0.6685   30.4943 C   0  0  0  0  0  0  0  0  0  0  0  0
   -1.0357   -0.7203   29.1271 C   0  0  0  0  0  0  0  0  0  0  0  0
    0.0089   -0.2804   28.3177 C   0  0  0  0  0  0  0  0  0  0  0  0
    1.2164    0.1704   28.8724 C   0  0  0  0  0  0  0  0  0  0  0  0
    1.3925    0.2008   30.2557 C   0  0  0  0  0  0  0  0  0  0  0  0
    0.3432   -0.2160   31.0513 C   0  0  0  0  0  0  0  0  0  0  0  0
    0.2223   -0.2056   32.5394 C   0  0  0  0  0  0  0  0  0  0  0  0
    2.2467   -4.9867   31.2882 C   0  0  0  0  0  0  0  0  0  0  0  0
  1  2  1  0
  2  3  2  0
  3  4  1  0
  4  5  2  0
  5  6  1  0
  6  7  1  0
  7  8  2  0
  8  9  1  0
  9 10  2  0
 10 11  1  0
 10 12  1  0
 12 13  1  0
 13 14  1  0
 14 15  2  0
 14 16  1  0
 16 17  1  0
 17 18  1  0
 18 19  1  0
 19 20  2  0
 20 21  1  0
 21 22  2  0
 22 23  1  0
 23 24  2  0
 24 25  1  0
  6 26  2  0
 26  2  1  0
 12  7  1  0
 25 17  1  0
 24 19  1  0
M  END
>  <ref_mols>  (2097) 
B0454b

>  <gnina_score>  (2097) 
5.434

>  <smina_score_min>  (2097) 
-6.033

>  <ref_pdb>  (2097) 
B0454b

>  <inspiration_score>  (2097) 
None

>  <inchikey>  (2097) 
QZVDMVYCFFQTQJ-UHFFFAOYSA-N

>  <tags>  (2097) 
BulkDock Fragalysis export,openbind_d68ev3c_c2_elabs_scored,openbind_d68ev3c_c2_elabs_scored_4.5plus,openbind_d68ev3c_c2_elabs,openbind_d68ev3c_c2_elabs_scored_5plus,syndirella_product,openbind_d68ev3c_c2_elabs_scored_top80percent,syndirella_placed

>  <smiles>  (2097) 
Cc1cccc(-c2nnc(S)n2CC(=O)NN2Cc3ccccc3C2)c1

>  <subsites>  (2097) 
None

>  <rmsd(smina/fragmenstein)>  (2097) 
0.869

>  <alias>  (2097) 
None

>  <energy_score>  (2097) 
-18.890611

>  <HIPPO Pose ID>  (2097) 
143065

>  <distance_score>  (2097) 
1.150355

>  <HIPPO Compound ID>  (2097) 
151488

>  <gnina_score_min>  (2097) 
5.348

>  <name>  (2097) 
P143065

>  <exports>  (2097) 
['/opt/xchem-fragalysis-2/maxwin/BulkDock/OUTPUTS/openbind_d68ev3c_c2_elabs_1LOTQJ3.sdf', '/opt/xchem-fragalysis-2/maxwin/BulkDock/OUTPUTS/openbind_d68ev3c_c2_elabs_1LSYI5W.sdf']

$$$$
P143068
     RDKit          3D

 26 29  0  0  0  0  0  0  0  0999 V2000
    0.4210   -4.9678   39.1255 C   0  0  0  0  0  0  0  0  0  0  0  0
    0.0935   -5.4390   37.7398 C   0  0  0  0  0  0  0  0  0  0  0  0
   -0.2989   -4.5315   36.7510 C   0  0  0  0  0  0  0  0  0  0  0  0
   -0.5958   -4.9746   35.4580 C   0  0  0  0  0  0  0  0  0  0  0  0
   -0.4993   -6.3289   35.1284 C   0  0  0  0  0  0  0  0  0  0  0  0
   -0.7883   -6.8342   33.7883 C   0  0  0  0  0  0  0  0  0  0  0  0
   -1.6630   -7.7801   33.5027 N   0  0  0  0  0  0  0  0  0  0  0  0
   -1.5691   -8.0868   32.1724 N   0  0  0  0  0  0  0  0  0  0  0  0
   -0.6252   -7.3389   31.6709 C   0  0  0  0  0  0  0  0  0  0  0  0
   -0.0549   -7.4930   30.0669 S   0  0  0  0  0  0  0  0  0  0  0  0
   -0.1200   -6.5027   32.6278 N   0  0  0  0  0  0  0  0  0  0  0  0
    0.9944   -5.5869   32.5054 C   0  0  0  0  0  0  0  0  0  0  0  0
    0.6264   -4.3768   31.6710 C   0  0  0  0  0  0  0  0  0  0  0  0
    0.5009   -4.4400   30.4993 O   0  0  0  0  0  0  0  0  0  0  0  0
    0.3860   -3.2281   32.6168 N   0  0  0  0  0  0  0  0  0  0  0  0
    1.4000   -2.3082   32.9434 C   0  0  2  0  0  0  0  0  0  0  0  0
    1.7310   -2.0533   34.3698 C   0  0  0  0  0  0  0  0  0  0  0  0
    0.0351   -1.8842   32.3644 C   0  0  1  0  0  0  0  0  0  0  0  0
   -0.0394   -1.3359   30.9654 C   0  0  0  0  0  0  0  0  0  0  0  0
    0.8258   -0.3124   30.5379 C   0  0  0  0  0  0  0  0  0  0  0  0
    0.7553    0.2105   29.2452 C   0  0  0  0  0  0  0  0  0  0  0  0
   -0.1954   -0.2739   28.3543 C   0  0  0  0  0  0  0  0  0  0  0  0
   -1.0713   -1.2778   28.7507 C   0  0  0  0  0  0  0  0  0  0  0  0
   -0.9984   -1.7932   30.0455 C   0  0  0  0  0  0  0  0  0  0  0  0
   -0.1206   -7.2313   36.1245 C   0  0  0  0  0  0  0  0  0  0  0  0
    0.1968   -6.7931   37.4122 C   0  0  0  0  0  0  0  0  0  0  0  0
  1  2  1  0
  2  3  2  0
  3  4  1  0
  4  5  2  0
  5  6  1  0
  6  7  2  0
  7  8  1  0
  8  9  2  0
  9 10  1  0
  9 11  1  0
 11 12  1  0
 12 13  1  0
 13 14  2  0
 13 15  1  0
 15 16  1  0
 16 17  1  1
 16 18  1  0
 18 19  1  6
 19 20  2  0
 20 21  1  0
 21 22  2  0
 22 23  1  0
 23 24  2  0
  5 25  1  0
 25 26  2  0
 26  2  1  0
 11  6  1  0
 18 15  1  0
 24 19  1  0
M  END
>  <ref_mols>  (2098) 
B0454b

>  <gnina_score>  (2098) 
5.711

>  <smina_score_min>  (2098) 
-5.862

>  <ref_pdb>  (2098) 
B0454b

>  <inspiration_score>  (2098) 
None

>  <inchikey>  (2098) 
KQFZFNRSHKHQRR-NMCNPDOESA-N

>  <tags>  (2098) 
BulkDock Fragalysis export,openbind_d68ev3c_c2_elabs_scored,openbind_d68ev3c_c2_elabs_scored_4.5plus,openbind_d68ev3c_c2_elabs,openbind_d68ev3c_c2_elabs_scored_5plus,syndirella_product,openbind_d68ev3c_c2_elabs_scored_top80percent,syndirella_placed

>  <smiles>  (2098) 
Cc1ccc(-c2nnc(S)n2CC(=O)N2[C@H](C)[C@H]2c2ccccc2)cc1

>  <subsites>  (2098) 
None

>  <rmsd(smina/fragmenstein)>  (2098) 
0.587

>  <alias>  (2098) 
None

>  <energy_score>  (2098) 
-44.375237

>  <HIPPO Pose ID>  (2098) 
143068

>  <distance_score>  (2098) 
0.937072

>  <HIPPO Compound ID>  (2098) 
151519

>  <gnina_score_min>  (2098) 
5.859

>  <name>  (2098) 
P143068

>  <exports>  (2098) 
['/opt/xchem-fragalysis-2/maxwin/BulkDock/OUTPUTS/openbind_d68ev3c_c2_elabs_1LOTQJ3.sdf', '/opt/xchem-fragalysis-2/maxwin/BulkDock/OUTPUTS/openbind_d68ev3c_c2_elabs_1LSYI5W.sdf']

$$$$
P143071
     RDKit          3D

 26 29  0  0  0  0  0  0  0  0999 V2000
    3.8303   -3.0186   28.6401 C   0  0  0  0  0  0  0  0  0  0  0  0
    2.8144   -3.7992   29.4194 C   0  0  0  0  0  0  0  0  0  0  0  0
    1.4907   -3.9004   28.9847 C   0  0  0  0  0  0  0  0  0  0  0  0
    0.5540   -4.6616   29.6886 C   0  0  0  0  0  0  0  0  0  0  0  0
    0.9293   -5.3448   30.8389 C   0  0  0  0  0  0  0  0  0  0  0  0
   -0.0136   -6.1934   31.5594 C   0  0  0  0  0  0  0  0  0  0  0  0
   -0.5786   -7.3123   31.1358 N   0  0  0  0  0  0  0  0  0  0  0  0
   -1.1840   -7.9197   32.2168 N   0  0  0  0  0  0  0  0  0  0  0  0
   -1.0082   -7.1343   33.2524 C   0  0  0  0  0  0  0  0  0  0  0  0
   -1.3624   -7.5115   34.8934 S   0  0  0  0  0  0  0  0  0  0  0  0
   -0.4039   -5.9784   32.8637 N   0  0  0  0  0  0  0  0  0  0  0  0
   -0.1333   -4.7926   33.6585 C   0  0  0  0  0  0  0  0  0  0  0  0
   -0.5622   -3.5111   32.9485 C   0  0  0  0  0  0  0  0  0  0  0  0
   -1.4924   -3.4513   32.2321 O   0  0  0  0  0  0  0  0  0  0  0  0
    0.4457   -2.3873   33.4105 N   0  0  0  0  0  0  0  0  0  0  0  0
    0.5536   -1.0481   33.0187 N   0  0  0  0  0  0  0  0  0  0  0  0
   -0.7281   -0.5024   32.4921 C   0  0  0  0  0  0  0  0  0  0  0  0
   -0.5909   -0.5002   31.0115 C   0  0  0  0  0  0  0  0  0  0  0  0
   -1.5784   -0.3608   30.0613 C   0  0  0  0  0  0  0  0  0  0  0  0
   -1.2054   -0.3793   28.7237 C   0  0  0  0  0  0  0  0  0  0  0  0
    0.1445   -0.4574   28.3697 C   0  0  0  0  0  0  0  0  0  0  0  0
    1.1364   -0.5731   29.3402 C   0  0  0  0  0  0  0  0  0  0  0  0
    0.7441   -0.6426   30.6611 C   0  0  0  0  0  0  0  0  0  0  0  0
    1.5442   -0.8640   31.9035 C   0  0  0  0  0  0  0  0  0  0  0  0
    2.2395   -5.1914   31.3120 C   0  0  0  0  0  0  0  0  0  0  0  0
    3.1763   -4.4305   30.6077 C   0  0  0  0  0  0  0  0  0  0  0  0
  1  2  1  0
  2  3  2  0
  3  4  1  0
  4  5  2  0
  5  6  1  0
  6  7  2  0
  7  8  1  0
  8  9  2  0
  9 10  1  0
  9 11  1  0
 11 12  1  0
 12 13  1  0
 13 14  2  0
 13 15  1  0
 15 16  1  0
 16 17  1  0
 17 18  1  0
 18 19  2  0
 19 20  1  0
 20 21  2  0
 21 22  1  0
 22 23  2  0
 23 24  1  0
  5 25  1  0
 25 26  2  0
 26  2  1  0
 11  6  1  0
 24 16  1  0
 23 18  1  0
M  END
>  <ref_mols>  (2099) 
B0454b

>  <gnina_score>  (2099) 
5.352

>  <smina_score_min>  (2099) 
-5.564

>  <ref_pdb>  (2099) 
B0454b

>  <inspiration_score>  (2099) 
None

>  <inchikey>  (2099) 
FLMPXOWDGMYYTR-UHFFFAOYSA-N

>  <tags>  (2099) 
BulkDock Fragalysis export,openbind_d68ev3c_c2_elabs_scored,openbind_d68ev3c_c2_elabs_scored_4.5plus,openbind_d68ev3c_c2_elabs,openbind_d68ev3c_c2_elabs_scored_5plus,syndirella_product,openbind_d68ev3c_c2_elabs_scored_top80percent,syndirella_placed

>  <smiles>  (2099) 
Cc1ccc(-c2nnc(S)n2CC(=O)NN2Cc3ccccc3C2)cc1

>  <subsites>  (2099) 
None

>  <rmsd(smina/fragmenstein)>  (2099) 
0.559

>  <alias>  (2099) 
None

>  <energy_score>  (2099) 
-9.586476

>  <HIPPO Pose ID>  (2099) 
143071

>  <distance_score>  (2099) 
1.283472

>  <HIPPO Compound ID>  (2099) 
151521

>  <gnina_score_min>  (2099) 
5.219

>  <name>  (2099) 
P143071

>  <exports>  (2099) 
['/opt/xchem-fragalysis-2/maxwin/BulkDock/OUTPUTS/openbind_d68ev3c_c2_elabs_1LOTQJ3.sdf', '/opt/xchem-fragalysis-2/maxwin/BulkDock/OUTPUTS/openbind_d68ev3c_c2_elabs_1LSYI5W.sdf']

$$$$
P143072
     RDKit          3D

 26 29  0  0  0  0  0  0  0  0999 V2000
    0.8036   -5.2424   35.9324 C   0  0  0  0  0  0  0  0  0  0  0  0
   -0.3652   -4.5851   35.1747 C   0  0  0  0  0  0  0  0  0  0  0  0
   -0.5690   -3.1877   35.7739 C   0  0  0  0  0  0  0  0  0  0  0  0
   -0.1139   -4.6578   33.6346 C   0  0  2  0  0  0  0  0  0  0  0  0
   -0.7289   -3.5245   32.7684 C   0  0  0  0  0  0  0  0  0  0  0  0
   -1.5515   -3.7331   31.9453 O   0  0  0  0  0  0  0  0  0  0  0  0
   -0.0075   -2.2445   33.1285 N   0  0  0  0  0  0  0  0  0  0  0  0
    1.2018   -1.7831   32.5806 C   0  0  0  0  0  0  0  0  0  0  0  0
   -0.0433   -0.9439   32.5173 C   0  0  1  0  0  0  0  0  0  0  0  0
   -0.3139   -0.6204   31.0587 C   0  0  0  0  0  0  0  0  0  0  0  0
    0.5858    0.2381   30.3866 C   0  0  0  0  0  0  0  0  0  0  0  0
    0.5102    0.4655   29.0128 C   0  0  0  0  0  0  0  0  0  0  0  0
   -0.4791   -0.1619   28.2716 C   0  0  0  0  0  0  0  0  0  0  0  0
   -1.3932   -0.9953   28.9038 C   0  0  0  0  0  0  0  0  0  0  0  0
   -1.3286   -1.1960   30.2866 C   0  0  0  0  0  0  0  0  0  0  0  0
   -0.2997   -5.9397   32.9067 N   0  0  0  0  0  0  0  0  0  0  0  0
   -0.9222   -7.1145   33.2416 C   0  0  0  0  0  0  0  0  0  0  0  0
   -1.4698   -7.5826   34.8024 S   0  0  0  0  0  0  0  0  0  0  0  0
   -1.0066   -7.9118   32.2003 N   0  0  0  0  0  0  0  0  0  0  0  0
   -0.3911   -7.2973   31.1460 N   0  0  0  0  0  0  0  0  0  0  0  0
    0.0845   -6.1447   31.5748 C   0  0  0  0  0  0  0  0  0  0  0  0
    0.8408   -5.2461   30.7461 C   0  0  0  0  0  0  0  0  0  0  0  0
    0.3843   -4.5067   29.6733 C   0  0  0  0  0  0  0  0  0  0  0  0
    1.4039   -3.7060   29.0785 C   0  0  0  0  0  0  0  0  0  0  0  0
    2.6213   -3.8874   29.6903 C   0  0  0  0  0  0  0  0  0  0  0  0
    2.5016   -4.9521   31.0193 S   0  0  0  0  0  0  0  0  0  0  0  0
  1  2  1  0
  2  3  1  0
  4  2  1  1
  4  5  1  0
  5  6  2  0
  5  7  1  0
  7  8  1  0
  8  9  1  0
  9 10  1  6
 10 11  2  0
 11 12  1  0
 12 13  2  0
 13 14  1  0
 14 15  2  0
  4 16  1  0
 16 17  1  0
 17 18  1  0
 17 19  2  0
 19 20  1  0
 20 21  2  0
 21 22  1  0
 22 23  2  0
 23 24  1  0
 24 25  2  0
 25 26  1  0
  9  7  1  0
 15 10  1  0
 21 16  1  0
 26 22  1  0
M  END
>  <ref_mols>  (2100) 
B0454b

>  <gnina_score>  (2100) 
5.782

>  <smina_score_min>  (2100) 
-4.89

>  <ref_pdb>  (2100) 
B0454b

>  <inspiration_score>  (2100) 
None

>  <inchikey>  (2100) 
XJKZLFSBNKXGSH-PGKMIFDNSA-N

>  <tags>  (2100) 
BulkDock Fragalysis export,openbind_d68ev3c_c2_elabs_scored,openbind_d68ev3c_c2_elabs_scored_4.5plus,openbind_d68ev3c_c2_elabs,openbind_d68ev3c_c2_elabs_scored_5plus,syndirella_product,openbind_d68ev3c_c2_elabs_scored_top80percent,syndirella_placed

>  <smiles>  (2100) 
CC(C)[C@H](C(=O)N1C[C@H]1c1ccccc1)n1c(S)nnc1-c1cccs1

>  <subsites>  (2100) 
None

>  <rmsd(smina/fragmenstein)>  (2100) 
0.874

>  <alias>  (2100) 
None

>  <energy_score>  (2100) 
-53.189346

>  <HIPPO Pose ID>  (2100) 
143072

>  <distance_score>  (2100) 
0.95613

>  <HIPPO Compound ID>  (2100) 
151523

>  <gnina_score_min>  (2100) 
5.597

>  <name>  (2100) 
P143072

>  <exports>  (2100) 
['/opt/xchem-fragalysis-2/maxwin/BulkDock/OUTPUTS/openbind_d68ev3c_c2_elabs_1LOTQJ3.sdf', '/opt/xchem-fragalysis-2/maxwin/BulkDock/OUTPUTS/openbind_d68ev3c_c2_elabs_1LSYI5W.sdf']

$$$$
P143076
     RDKit          3D

 26 29  0  0  0  0  0  0  0  0999 V2000
    3.6026   -2.2745   27.9447 C   0  0  0  0  0  0  0  0  0  0  0  0
    3.8269   -2.8377   29.2314 O   0  0  0  0  0  0  0  0  0  0  0  0
    2.8516   -3.6607   29.7177 C   0  0  0  0  0  0  0  0  0  0  0  0
    3.1941   -4.3326   30.8899 C   0  0  0  0  0  0  0  0  0  0  0  0
    2.2808   -5.1882   31.5125 C   0  0  0  0  0  0  0  0  0  0  0  0
    1.0151   -5.4072   30.9580 C   0  0  0  0  0  0  0  0  0  0  0  0
    0.0648   -6.2802   31.6435 C   0  0  0  0  0  0  0  0  0  0  0  0
   -0.4162   -7.4401   31.2291 N   0  0  0  0  0  0  0  0  0  0  0  0
   -1.0712   -8.0313   32.2907 N   0  0  0  0  0  0  0  0  0  0  0  0
   -1.0054   -7.1987   33.3017 C   0  0  0  0  0  0  0  0  0  0  0  0
   -1.4244   -7.5314   34.9351 S   0  0  0  0  0  0  0  0  0  0  0  0
   -0.4508   -6.0247   32.9013 N   0  0  0  0  0  0  0  0  0  0  0  0
   -0.4188   -4.7527   33.6115 C   0  0  0  0  0  0  0  0  0  0  0  0
   -0.8809   -3.6233   32.6997 C   0  0  0  0  0  0  0  0  0  0  0  0
   -1.5653   -3.8077   31.7545 O   0  0  0  0  0  0  0  0  0  0  0  0
   -0.2209   -2.3595   33.1960 N   0  0  0  0  0  0  0  0  0  0  0  0
    1.0652   -1.9162   32.8381 C   0  0  0  0  0  0  0  0  0  0  0  0
   -0.1558   -1.0514   32.6194 C   0  0  1  0  0  0  0  0  0  0  0  0
   -0.2998   -0.7165   31.1443 C   0  0  0  0  0  0  0  0  0  0  0  0
    0.6893    0.0800   30.5267 C   0  0  0  0  0  0  0  0  0  0  0  0
    0.6856    0.3385   29.1552 C   0  0  0  0  0  0  0  0  0  0  0  0
   -0.3138   -0.2013   28.3592 C   0  0  0  0  0  0  0  0  0  0  0  0
   -1.3122   -0.9759   28.9360 C   0  0  0  0  0  0  0  0  0  0  0  0
   -1.3192   -1.2025   30.3165 C   0  0  0  0  0  0  0  0  0  0  0  0
    0.6725   -4.7227   29.7917 C   0  0  0  0  0  0  0  0  0  0  0  0
    1.5800   -3.8459   29.1797 C   0  0  0  0  0  0  0  0  0  0  0  0
  1  2  1  0
  2  3  1  0
  3  4  2  0
  4  5  1  0
  5  6  2  0
  6  7  1  0
  7  8  2  0
  8  9  1  0
  9 10  2  0
 10 11  1  0
 10 12  1  0
 12 13  1  0
 13 14  1  0
 14 15  2  0
 14 16  1  0
 16 17  1  0
 17 18  1  0
 18 19  1  6
 19 20  2  0
 20 21  1  0
 21 22  2  0
 22 23  1  0
 23 24  2  0
  6 25  1  0
 25 26  2  0
 26  3  1  0
 12  7  1  0
 18 16  1  0
 24 19  1  0
M  END
>  <ref_mols>  (2101) 
B0454b

>  <gnina_score>  (2101) 
5.343

>  <smina_score_min>  (2101) 
-5.18

>  <ref_pdb>  (2101) 
B0454b

>  <inspiration_score>  (2101) 
None

>  <inchikey>  (2101) 
LYNVQZTWHBUWNX-AOMKIAJQSA-N

>  <tags>  (2101) 
BulkDock Fragalysis export,openbind_d68ev3c_c2_elabs_scored,openbind_d68ev3c_c2_elabs_scored_4.5plus,openbind_d68ev3c_c2_elabs,openbind_d68ev3c_c2_elabs_scored_5plus,syndirella_product,openbind_d68ev3c_c2_elabs_scored_top80percent,syndirella_placed

>  <smiles>  (2101) 
COc1ccc(-c2nnc(S)n2CC(=O)N2C[C@H]2c2ccccc2)cc1

>  <subsites>  (2101) 
None

>  <rmsd(smina/fragmenstein)>  (2101) 
0.666

>  <alias>  (2101) 
None

>  <energy_score>  (2101) 
-36.042135

>  <HIPPO Pose ID>  (2101) 
143076

>  <distance_score>  (2101) 
0.885139

>  <HIPPO Compound ID>  (2101) 
151525

>  <gnina_score_min>  (2101) 
5.329

>  <name>  (2101) 
P143076

>  <exports>  (2101) 
['/opt/xchem-fragalysis-2/maxwin/BulkDock/OUTPUTS/openbind_d68ev3c_c2_elabs_1LOTQJ3.sdf', '/opt/xchem-fragalysis-2/maxwin/BulkDock/OUTPUTS/openbind_d68ev3c_c2_elabs_1LSYI5W.sdf']

$$$$
P143078
     RDKit          3D

 26 29  0  0  0  0  0  0  0  0999 V2000
   -2.1056   -3.9984   31.8098 O   0  0  0  0  0  0  0  0  0  0  0  0
   -1.3176   -3.6402   32.5971 C   0  0  0  0  0  0  0  0  0  0  0  0
   -0.4589   -4.6222   33.4043 C   0  0  0  0  0  0  0  0  0  0  0  0
   -0.4383   -5.9250   32.7586 N   0  0  0  0  0  0  0  0  0  0  0  0
   -0.9372   -7.1149   33.1902 C   0  0  0  0  0  0  0  0  0  0  0  0
   -1.3272   -7.4507   34.8322 S   0  0  0  0  0  0  0  0  0  0  0  0
   -0.9781   -7.9664   32.1927 N   0  0  0  0  0  0  0  0  0  0  0  0
   -0.3683   -7.3642   31.1101 N   0  0  0  0  0  0  0  0  0  0  0  0
    0.0552   -6.1737   31.4949 C   0  0  0  0  0  0  0  0  0  0  0  0
    0.9470   -5.2620   30.7884 C   0  0  0  0  0  0  0  0  0  0  0  0
    0.5247   -4.5445   29.6714 C   0  0  0  0  0  0  0  0  0  0  0  0
    1.4077   -3.6808   29.0169 C   0  0  0  0  0  0  0  0  0  0  0  0
    2.7123   -3.5268   29.4749 C   0  0  0  0  0  0  0  0  0  0  0  0
    3.8132   -2.5127   28.6311 Cl  0  0  0  0  0  0  0  0  0  0  0  0
    3.1343   -4.2050   30.6119 C   0  0  0  0  0  0  0  0  0  0  0  0
    2.2499   -5.0626   31.2698 C   0  0  0  0  0  0  0  0  0  0  0  0
   -0.9131   -2.2010   33.0376 N   0  0  0  0  0  0  0  0  0  0  0  0
   -1.3175   -0.9480   32.5439 N   0  0  0  0  0  0  0  0  0  0  0  0
   -1.8200   -0.9944   31.1219 C   0  0  0  0  0  0  0  0  0  0  0  0
   -0.6649   -0.6156   30.2538 C   0  0  0  0  0  0  0  0  0  0  0  0
   -0.5129   -0.6659   28.8842 C   0  0  0  0  0  0  0  0  0  0  0  0
    0.6760   -0.1672   28.3515 C   0  0  0  0  0  0  0  0  0  0  0  0
    1.6795    0.3660   29.1727 C   0  0  0  0  0  0  0  0  0  0  0  0
    1.5083    0.4273   30.5473 C   0  0  0  0  0  0  0  0  0  0  0  0
    0.3267   -0.0685   31.0624 C   0  0  0  0  0  0  0  0  0  0  0  0
   -0.1419   -0.0332   32.4743 C   0  0  0  0  0  0  0  0  0  0  0  0
  1  2  2  0
  2  3  1  0
  3  4  1  0
  4  5  1  0
  5  6  1  0
  5  7  2  0
  7  8  1  0
  8  9  2  0
  9 10  1  0
 10 11  2  0
 11 12  1  0
 12 13  2  0
 13 14  1  0
 13 15  1  0
 15 16  2  0
  2 17  1  0
 17 18  1  0
 18 19  1  0
 19 20  1  0
 20 21  2  0
 21 22  1  0
 22 23  2  0
 23 24  1  0
 24 25  2  0
 25 26  1  0
  9  4  1  0
 16 10  1  0
 26 18  1  0
 25 20  1  0
M  END
>  <ref_mols>  (2102) 
B0454b

>  <gnina_score>  (2102) 
5.546

>  <smina_score_min>  (2102) 
-5.931

>  <ref_pdb>  (2102) 
B0454b

>  <inspiration_score>  (2102) 
None

>  <inchikey>  (2102) 
JGOYURKSHUKNHD-UHFFFAOYSA-N

>  <tags>  (2102) 
BulkDock Fragalysis export,openbind_d68ev3c_c2_elabs_scored,openbind_d68ev3c_c2_elabs_scored_4.5plus,openbind_d68ev3c_c2_elabs,openbind_d68ev3c_c2_elabs_scored_5plus,syndirella_product,openbind_d68ev3c_c2_elabs_scored_top80percent,syndirella_placed

>  <smiles>  (2102) 
O=C(Cn1c(S)nnc1-c1ccc(Cl)cc1)NN1Cc2ccccc2C1

>  <subsites>  (2102) 
None

>  <rmsd(smina/fragmenstein)>  (2102) 
0.785

>  <alias>  (2102) 
None

>  <energy_score>  (2102) 
-8.94767

>  <HIPPO Pose ID>  (2102) 
143078

>  <distance_score>  (2102) 
1.454892

>  <HIPPO Compound ID>  (2102) 
151527

>  <gnina_score_min>  (2102) 
5.364

>  <name>  (2102) 
P143078

>  <exports>  (2102) 
['/opt/xchem-fragalysis-2/maxwin/BulkDock/OUTPUTS/openbind_d68ev3c_c2_elabs_1LOTQJ3.sdf', '/opt/xchem-fragalysis-2/maxwin/BulkDock/OUTPUTS/openbind_d68ev3c_c2_elabs_1LSYI5W.sdf']

$$$$
P143079
     RDKit          3D

 26 28  0  0  0  0  0  0  0  0999 V2000
    1.6546   -1.9435   33.5261 C   0  0  0  0  0  0  0  0  0  0  0  0
    0.2863   -2.3624   33.2340 N   0  0  0  0  0  0  0  0  0  0  0  0
   -0.5261   -1.2895   32.6316 C   0  0  0  0  0  0  0  0  0  0  0  0
   -0.2995   -1.0215   31.1578 C   0  0  0  0  0  0  0  0  0  0  0  0
    0.7318   -0.1704   30.7367 C   0  0  0  0  0  0  0  0  0  0  0  0
    0.9219    0.0944   29.3816 C   0  0  0  0  0  0  0  0  0  0  0  0
    0.0793   -0.4842   28.4370 C   0  0  0  0  0  0  0  0  0  0  0  0
   -0.9444   -1.3390   28.8362 C   0  0  0  0  0  0  0  0  0  0  0  0
   -1.1314   -1.6092   30.1906 C   0  0  0  0  0  0  0  0  0  0  0  0
    0.2281   -3.5282   32.4975 N   0  0  0  0  0  0  0  0  0  0  0  0
    1.3735   -4.4564   31.9741 C   0  0  0  0  0  0  0  0  0  0  0  0
    2.5377   -4.3279   32.0241 O   0  0  0  0  0  0  0  0  0  0  0  0
    0.7293   -5.5946   31.2410 C   0  0  0  0  0  0  0  0  0  0  0  0
    0.0086   -6.5811   32.0226 N   0  0  0  0  0  0  0  0  0  0  0  0
   -0.6760   -7.6223   31.4578 C   0  0  0  0  0  0  0  0  0  0  0  0
   -0.3718   -8.2024   29.8756 S   0  0  0  0  0  0  0  0  0  0  0  0
   -1.4941   -8.1490   32.3226 N   0  0  0  0  0  0  0  0  0  0  0  0
   -1.2494   -7.5338   33.5215 N   0  0  0  0  0  0  0  0  0  0  0  0
   -0.2381   -6.6932   33.3753 C   0  0  0  0  0  0  0  0  0  0  0  0
    0.4604   -6.0678   34.4970 C   0  0  0  0  0  0  0  0  0  0  0  0
    1.8591   -6.0652   34.5874 C   0  0  0  0  0  0  0  0  0  0  0  0
    2.5009   -5.4958   35.6924 C   0  0  0  0  0  0  0  0  0  0  0  0
    1.7471   -4.9429   36.7248 C   0  0  0  0  0  0  0  0  0  0  0  0
    2.5393   -4.2375   38.0777 Cl  0  0  0  0  0  0  0  0  0  0  0  0
    0.3575   -4.9651   36.6672 C   0  0  0  0  0  0  0  0  0  0  0  0
   -0.2801   -5.5332   35.5607 C   0  0  0  0  0  0  0  0  0  0  0  0
  1  2  1  0
  2  3  1  0
  3  4  1  0
  4  5  2  0
  5  6  1  0
  6  7  2  0
  7  8  1  0
  8  9  2  0
  2 10  1  0
 10 11  1  0
 11 12  2  0
 11 13  1  0
 13 14  1  0
 14 15  1  0
 15 16  1  0
 15 17  2  0
 17 18  1  0
 18 19  2  0
 19 20  1  0
 20 21  2  0
 21 22  1  0
 22 23  2  0
 23 24  1  0
 23 25  1  0
 25 26  2  0
  9  4  1  0
 19 14  1  0
 26 20  1  0
M  END
>  <ref_mols>  (2103) 
B0454b

>  <gnina_score>  (2103) 
5.566

>  <smina_score_min>  (2103) 
-5.829

>  <ref_pdb>  (2103) 
B0454b

>  <inspiration_score>  (2103) 
None

>  <inchikey>  (2103) 
VUYXWDLWCVNAIS-UHFFFAOYSA-N

>  <tags>  (2103) 
BulkDock Fragalysis export,openbind_d68ev3c_c2_elabs_scored,openbind_d68ev3c_c2_elabs_scored_4.5plus,openbind_d68ev3c_c2_elabs,openbind_d68ev3c_c2_elabs_scored_5plus,syndirella_product,openbind_d68ev3c_c2_elabs_scored_top80percent,syndirella_placed

>  <smiles>  (2103) 
CN(Cc1ccccc1)NC(=O)Cn1c(S)nnc1-c1ccc(Cl)cc1

>  <subsites>  (2103) 
None

>  <rmsd(smina/fragmenstein)>  (2103) 
1.355

>  <alias>  (2103) 
None

>  <energy_score>  (2103) 
-13.173806

>  <HIPPO Pose ID>  (2103) 
143079

>  <distance_score>  (2103) 
0.950131

>  <HIPPO Compound ID>  (2103) 
151528

>  <gnina_score_min>  (2103) 
5.791

>  <name>  (2103) 
P143079

>  <exports>  (2103) 
['/opt/xchem-fragalysis-2/maxwin/BulkDock/OUTPUTS/openbind_d68ev3c_c2_elabs_1LOTQJ3.sdf', '/opt/xchem-fragalysis-2/maxwin/BulkDock/OUTPUTS/openbind_d68ev3c_c2_elabs_1LSYI5W.sdf']

$$$$
P143084
     RDKit          3D

 26 29  0  0  0  0  0  0  0  0999 V2000
   -1.3570   -3.7306   31.6935 O   0  0  0  0  0  0  0  0  0  0  0  0
   -0.7567   -3.5810   32.6998 C   0  0  0  0  0  0  0  0  0  0  0  0
   -0.3871   -4.7515   33.6017 C   0  0  0  0  0  0  0  0  0  0  0  0
   -0.4271   -6.0131   32.8675 N   0  0  0  0  0  0  0  0  0  0  0  0
   -0.9694   -7.1940   33.2729 C   0  0  0  0  0  0  0  0  0  0  0  0
   -1.3975   -7.5220   34.9060 S   0  0  0  0  0  0  0  0  0  0  0  0
   -1.0118   -8.0381   32.2698 N   0  0  0  0  0  0  0  0  0  0  0  0
   -0.3644   -7.4468   31.2062 N   0  0  0  0  0  0  0  0  0  0  0  0
    0.0862   -6.2694   31.6065 C   0  0  0  0  0  0  0  0  0  0  0  0
    1.0011   -5.3893   30.8797 C   0  0  0  0  0  0  0  0  0  0  0  0
    2.2961   -5.1639   31.3624 C   0  0  0  0  0  0  0  0  0  0  0  0
    3.1760   -4.3128   30.6826 C   0  0  0  0  0  0  0  0  0  0  0  0
    2.7483   -3.6468   29.5374 C   0  0  0  0  0  0  0  0  0  0  0  0
    3.8121   -2.5721   28.7232 Cl  0  0  0  0  0  0  0  0  0  0  0  0
    1.4527   -3.8293   29.0706 C   0  0  0  0  0  0  0  0  0  0  0  0
    0.5909   -4.7120   29.7286 C   0  0  0  0  0  0  0  0  0  0  0  0
   -0.1320   -2.3269   33.2968 N   0  0  0  0  0  0  0  0  0  0  0  0
    1.3270   -2.1446   32.8305 C   0  0  0  0  0  0  0  0  0  0  0  0
    1.2182   -0.7593   33.4416 C   0  0  0  0  0  0  0  0  0  0  0  0
   -0.1792   -0.8469   32.8221 C   0  0  1  0  0  0  0  0  0  0  0  0
   -0.3065   -0.5562   31.2131 C   0  0  0  0  0  0  0  0  0  0  0  0
   -1.3270   -1.1003   30.4117 C   0  0  0  0  0  0  0  0  0  0  0  0
   -1.3294   -0.9790   29.0170 C   0  0  0  0  0  0  0  0  0  0  0  0
   -0.3381   -0.2492   28.3786 C   0  0  0  0  0  0  0  0  0  0  0  0
    0.6559    0.3567   29.1293 C   0  0  0  0  0  0  0  0  0  0  0  0
    0.6621    0.2088   30.5190 C   0  0  0  0  0  0  0  0  0  0  0  0
  1  2  2  0
  2  3  1  0
  3  4  1  0
  4  5  1  0
  5  6  1  0
  5  7  2  0
  7  8  1  0
  8  9  2  0
  9 10  1  0
 10 11  2  0
 11 12  1  0
 12 13  2  0
 13 14  1  0
 13 15  1  0
 15 16  2  0
  2 17  1  0
 17 18  1  0
 18 19  1  0
 19 20  1  0
 20 21  1  6
 21 22  2  0
 22 23  1  0
 23 24  2  0
 24 25  1  0
 25 26  2  0
  9  4  1  0
 16 10  1  0
 20 17  1  0
 26 21  1  0
M  END
>  <ref_mols>  (2104) 
B0454b

>  <gnina_score>  (2104) 
5.562

>  <smina_score_min>  (2104) 
-5.49

>  <ref_pdb>  (2104) 
B0454b

>  <inspiration_score>  (2104) 
None

>  <inchikey>  (2104) 
AXXFARRAIZLTIX-INIZCTEOSA-N

>  <tags>  (2104) 
BulkDock Fragalysis export,openbind_d68ev3c_c2_elabs_scored,openbind_d68ev3c_c2_elabs_scored_4.5plus,openbind_d68ev3c_c2_elabs,openbind_d68ev3c_c2_elabs_scored_5plus,syndirella_product,openbind_d68ev3c_c2_elabs_scored_top80percent,syndirella_placed

>  <smiles>  (2104) 
O=C(Cn1c(S)nnc1-c1ccc(Cl)cc1)N1CC[C@H]1c1ccccc1

>  <subsites>  (2104) 
None

>  <rmsd(smina/fragmenstein)>  (2104) 
0.816

>  <alias>  (2104) 
None

>  <energy_score>  (2104) 
-16.911807

>  <HIPPO Pose ID>  (2104) 
143084

>  <distance_score>  (2104) 
0.916287

>  <HIPPO Compound ID>  (2104) 
151530

>  <gnina_score_min>  (2104) 
5.478

>  <name>  (2104) 
P143084

>  <exports>  (2104) 
['/opt/xchem-fragalysis-2/maxwin/BulkDock/OUTPUTS/openbind_d68ev3c_c2_elabs_1LOTQJ3.sdf', '/opt/xchem-fragalysis-2/maxwin/BulkDock/OUTPUTS/openbind_d68ev3c_c2_elabs_1LSYI5W.sdf']

$$$$
P143086
     RDKit          3D

 26 29  0  0  0  0  0  0  0  0999 V2000
   -1.3050    1.7906   27.4343 C   0  0  0  0  0  0  0  0  0  0  0  0
   -0.5634    0.6061   27.8329 N   0  0  0  0  0  0  0  0  0  0  0  0
    0.7713    0.9061   28.3847 C   0  0  0  0  0  0  0  0  0  0  0  0
    0.9941   -0.1381   29.4303 C   0  0  0  0  0  0  0  0  0  0  0  0
    2.1454   -0.5058   30.1015 C   0  0  0  0  0  0  0  0  0  0  0  0
    2.0675   -1.5754   31.0006 C   0  0  0  0  0  0  0  0  0  0  0  0
    0.8425   -2.2293   31.2202 C   0  0  0  0  0  0  0  0  0  0  0  0
    0.8063   -3.3894   31.9746 N   0  0  0  0  0  0  0  0  0  0  0  0
   -0.3757   -4.3699   32.2724 C   0  0  0  0  0  0  0  0  0  0  0  0
   -1.5106   -4.2997   31.9875 O   0  0  0  0  0  0  0  0  0  0  0  0
    0.2236   -5.5995   32.9639 C   0  0  1  0  0  0  0  0  0  0  0  0
    0.0851   -5.3986   34.4798 C   0  0  0  0  0  0  0  0  0  0  0  0
    1.0568   -6.2014   35.3149 C   0  0  0  0  0  0  0  0  0  0  0  0
    0.5792   -6.9882   36.3708 C   0  0  0  0  0  0  0  0  0  0  0  0
    1.4655   -7.6653   37.2085 C   0  0  0  0  0  0  0  0  0  0  0  0
    2.8384   -7.5747   36.9950 C   0  0  0  0  0  0  0  0  0  0  0  0
    3.3283   -6.7949   35.9518 C   0  0  0  0  0  0  0  0  0  0  0  0
    2.4439   -6.1015   35.1233 C   0  0  0  0  0  0  0  0  0  0  0  0
   -0.3795   -6.7800   32.3704 N   0  0  0  0  0  0  0  0  0  0  0  0
   -0.3059   -7.0970   31.0406 C   0  0  0  0  0  0  0  0  0  0  0  0
   -1.0412   -8.1530   30.7972 N   0  0  0  0  0  0  0  0  0  0  0  0
   -1.5970   -8.5416   31.9872 N   0  0  0  0  0  0  0  0  0  0  0  0
   -1.1843   -7.7174   32.9237 C   0  0  0  0  0  0  0  0  0  0  0  0
   -0.3201   -1.8015   30.5914 C   0  0  0  0  0  0  0  0  0  0  0  0
   -0.2143   -0.7767   29.6827 C   0  0  0  0  0  0  0  0  0  0  0  0
   -1.2874   -0.2138   28.8172 C   0  0  0  0  0  0  0  0  0  0  0  0
  1  2  1  0
  2  3  1  0
  3  4  1  0
  4  5  2  0
  5  6  1  0
  6  7  2  0
  7  8  1  0
  8  9  1  0
  9 10  2  0
  9 11  1  0
 11 12  1  1
 12 13  1  0
 13 14  2  0
 14 15  1  0
 15 16  2  0
 16 17  1  0
 17 18  2  0
 11 19  1  0
 19 20  1  0
 20 21  2  0
 21 22  1  0
 22 23  2  0
  7 24  1  0
 24 25  2  0
 25 26  1  0
 26  2  1  0
 25  4  1  0
 18 13  1  0
 23 19  1  0
M  END
>  <ref_mols>  (2105) 
B0454b

>  <gnina_score>  (2105) 
4.966

>  <smina_score_min>  (2105) 
-6.418

>  <ref_pdb>  (2105) 
B0454b

>  <inspiration_score>  (2105) 
None

>  <inchikey>  (2105) 
VGGQYUWRXWMOBW-LJQANCHMSA-N

>  <tags>  (2105) 
BulkDock Fragalysis export,openbind_d68ev3c_c2_elabs_scored,openbind_d68ev3c_c2_elabs_scored_4.5plus,openbind_d68ev3c_c2_elabs,openbind_d68ev3c_c2_elabs_scored_5plus,syndirella_product,openbind_d68ev3c_c2_elabs_scored_top80percent,syndirella_placed

>  <smiles>  (2105) 
CN1Cc2ccc(NC(=O)[C@@H](Cc3ccccc3)n3cnnc3)cc2C1

>  <subsites>  (2105) 
None

>  <rmsd(smina/fragmenstein)>  (2105) 
0.686

>  <alias>  (2105) 
None

>  <energy_score>  (2105) 
-25.766837

>  <HIPPO Pose ID>  (2105) 
143086

>  <distance_score>  (2105) 
1.042064

>  <HIPPO Compound ID>  (2105) 
151544

>  <gnina_score_min>  (2105) 
5.096

>  <name>  (2105) 
P143086

>  <exports>  (2105) 
['/opt/xchem-fragalysis-2/maxwin/BulkDock/OUTPUTS/openbind_d68ev3c_c2_elabs_1LOTQJ3.sdf', '/opt/xchem-fragalysis-2/maxwin/BulkDock/OUTPUTS/openbind_d68ev3c_c2_elabs_1LSYI5W.sdf']

$$$$
P143090
     RDKit          3D

 26 29  0  0  0  0  0  0  0  0999 V2000
    1.6084   -0.4983   34.8191 C   0  0  0  0  0  0  0  0  0  0  0  0
    1.4032   -0.6720   33.3180 C   0  0  1  0  0  0  0  0  0  0  0  0
    1.4576   -2.0769   32.7245 C   0  0  0  0  0  0  0  0  0  0  0  0
    0.0183   -2.2426   33.2687 N   0  0  0  0  0  0  0  0  0  0  0  0
   -0.6485   -3.4946   32.7142 C   0  0  0  0  0  0  0  0  0  0  0  0
   -1.3025   -3.6453   31.7399 O   0  0  0  0  0  0  0  0  0  0  0  0
   -0.2779   -4.7351   33.5695 C   0  0  2  0  0  0  0  0  0  0  0  0
    1.0084   -4.7318   34.3904 C   0  0  0  0  0  0  0  0  0  0  0  0
   -0.3564   -5.9655   32.7539 N   0  0  0  0  0  0  0  0  0  0  0  0
   -0.9074   -7.1582   33.1413 C   0  0  0  0  0  0  0  0  0  0  0  0
   -1.3489   -7.5185   34.7694 S   0  0  0  0  0  0  0  0  0  0  0  0
   -0.9857   -7.9776   32.1197 N   0  0  0  0  0  0  0  0  0  0  0  0
   -0.4018   -7.3510   31.0405 N   0  0  0  0  0  0  0  0  0  0  0  0
    0.0411   -6.1718   31.4418 C   0  0  0  0  0  0  0  0  0  0  0  0
    0.8008   -5.2726   30.6142 C   0  0  0  0  0  0  0  0  0  0  0  0
    0.3488   -4.5004   29.5616 C   0  0  0  0  0  0  0  0  0  0  0  0
    1.3669   -3.6780   28.9950 C   0  0  0  0  0  0  0  0  0  0  0  0
    2.5863   -3.8879   29.5910 C   0  0  0  0  0  0  0  0  0  0  0  0
    2.4688   -5.0078   30.8707 S   0  0  0  0  0  0  0  0  0  0  0  0
   -0.0392   -0.7628   32.7855 C   0  0  2  0  0  0  0  0  0  0  0  0
   -0.2539   -0.4759   31.1798 C   0  0  0  0  0  0  0  0  0  0  0  0
   -1.2941   -1.0456   30.4233 C   0  0  0  0  0  0  0  0  0  0  0  0
   -1.3561   -0.9314   29.0290 C   0  0  0  0  0  0  0  0  0  0  0  0
   -0.4150   -0.1757   28.3468 C   0  0  0  0  0  0  0  0  0  0  0  0
    0.5881    0.4645   29.0546 C   0  0  0  0  0  0  0  0  0  0  0  0
    0.6572    0.3195   30.4432 C   0  0  0  0  0  0  0  0  0  0  0  0
  2  1  1  1
  2  3  1  0
  3  4  1  0
  4  5  1  0
  5  6  2  0
  5  7  1  0
  7  8  1  6
  7  9  1  0
  9 10  1  0
 10 11  1  0
 10 12  2  0
 12 13  1  0
 13 14  2  0
 14 15  1  0
 15 16  2  0
 16 17  1  0
 17 18  2  0
 18 19  1  0
  4 20  1  0
 20 21  1  6
 21 22  2  0
 22 23  1  0
 23 24  2  0
 24 25  1  0
 25 26  2  0
 20  2  1  0
 26 21  1  0
 14  9  1  0
 19 15  1  0
M  END
>  <ref_mols>  (2106) 
B0454b

>  <gnina_score>  (2106) 
5.747

>  <smina_score_min>  (2106) 
-5.25

>  <ref_pdb>  (2106) 
B0454b

>  <inspiration_score>  (2106) 
None

>  <inchikey>  (2106) 
HTKSOADNAVCVJB-XEZPLFJOSA-N

>  <tags>  (2106) 
BulkDock Fragalysis export,openbind_d68ev3c_c2_elabs_scored,openbind_d68ev3c_c2_elabs_scored_4.5plus,openbind_d68ev3c_c2_elabs,openbind_d68ev3c_c2_elabs_scored_5plus,syndirella_product,openbind_d68ev3c_c2_elabs_scored_top80percent,syndirella_placed

>  <smiles>  (2106) 
C[C@H]1CN(C(=O)[C@H](C)n2c(S)nnc2-c2cccs2)[C@@H]1c1ccccc1

>  <subsites>  (2106) 
None

>  <rmsd(smina/fragmenstein)>  (2106) 
1.024

>  <alias>  (2106) 
None

>  <energy_score>  (2106) 
-18.427074

>  <HIPPO Pose ID>  (2106) 
143090

>  <distance_score>  (2106) 
0.952741

>  <HIPPO Compound ID>  (2106) 
151551

>  <gnina_score_min>  (2106) 
5.621

>  <name>  (2106) 
P143090

>  <exports>  (2106) 
['/opt/xchem-fragalysis-2/maxwin/BulkDock/OUTPUTS/openbind_d68ev3c_c2_elabs_1LOTQJ3.sdf', '/opt/xchem-fragalysis-2/maxwin/BulkDock/OUTPUTS/openbind_d68ev3c_c2_elabs_1LSYI5W.sdf']

$$$$
P143099
     RDKit          3D

 26 29  0  0  0  0  0  0  0  0999 V2000
    2.2299   -5.7233   33.5428 C   0  0  0  0  0  0  0  0  0  0  0  0
    1.1900   -5.7680   32.4254 C   0  0  2  0  0  0  0  0  0  0  0  0
    0.8014   -4.4500   31.7345 C   0  0  0  0  0  0  0  0  0  0  0  0
    0.5435   -4.4420   30.5827 O   0  0  0  0  0  0  0  0  0  0  0  0
    0.7281   -3.3429   32.7601 N   0  0  0  0  0  0  0  0  0  0  0  0
    2.0697   -2.5530   32.8450 C   0  0  0  0  0  0  0  0  0  0  0  0
    1.3140   -1.4907   33.5888 C   0  0  0  0  0  0  0  0  0  0  0  0
    0.2027   -1.9051   32.6458 C   0  0  1  0  0  0  0  0  0  0  0  0
    0.0172   -1.2352   31.2011 C   0  0  0  0  0  0  0  0  0  0  0  0
   -0.9187   -1.7289   30.2648 C   0  0  0  0  0  0  0  0  0  0  0  0
   -1.1990   -1.0663   29.0640 C   0  0  0  0  0  0  0  0  0  0  0  0
   -0.5602    0.1330   28.7850 C   0  0  0  0  0  0  0  0  0  0  0  0
   -1.1500    1.2205   27.3630 Br  0  0  0  0  0  0  0  0  0  0  0  0
    0.4296    0.6117   29.6312 C   0  0  0  0  0  0  0  0  0  0  0  0
    0.7099   -0.0667   30.8187 C   0  0  0  0  0  0  0  0  0  0  0  0
   -0.0049   -6.5723   32.6657 N   0  0  0  0  0  0  0  0  0  0  0  0
   -0.6313   -7.3721   31.7363 C   0  0  0  0  0  0  0  0  0  0  0  0
   -0.1932   -7.5449   30.0890 S   0  0  0  0  0  0  0  0  0  0  0  0
   -1.5884   -8.0631   32.2914 N   0  0  0  0  0  0  0  0  0  0  0  0
   -1.6174   -7.7215   33.6129 N   0  0  0  0  0  0  0  0  0  0  0  0
   -0.6869   -6.8141   33.8394 C   0  0  0  0  0  0  0  0  0  0  0  0
   -0.4199   -6.3174   35.1574 C   0  0  0  0  0  0  0  0  0  0  0  0
   -0.1215   -7.0931   36.2607 C   0  0  0  0  0  0  0  0  0  0  0  0
    0.0746   -6.3229   37.4433 C   0  0  0  0  0  0  0  0  0  0  0  0
   -0.1247   -4.9810   37.2159 C   0  0  0  0  0  0  0  0  0  0  0  0
   -0.5358   -4.6657   35.5881 S   0  0  0  0  0  0  0  0  0  0  0  0
  2  1  1  1
  2  3  1  0
  3  4  2  0
  3  5  1  0
  5  6  1  0
  6  7  1  0
  7  8  1  0
  8  9  1  6
  9 10  2  0
 10 11  1  0
 11 12  2  0
 12 13  1  0
 12 14  1  0
 14 15  2  0
  2 16  1  0
 16 17  1  0
 17 18  1  0
 17 19  2  0
 19 20  1  0
 20 21  2  0
 21 22  1  0
 22 23  2  0
 23 24  1  0
 24 25  2  0
 25 26  1  0
  8  5  1  0
 15  9  1  0
 21 16  1  0
 26 22  1  0
M  END
>  <ref_mols>  (2107) 
B0454b

>  <gnina_score>  (2107) 
6.009

>  <smina_score_min>  (2107) 
-6.015

>  <ref_pdb>  (2107) 
B0454b

>  <inspiration_score>  (2107) 
None

>  <inchikey>  (2107) 
CLNALSPJNKLCPE-RISCZKNCSA-N

>  <tags>  (2107) 
BulkDock Fragalysis export,openbind_d68ev3c_c2_elabs_scored,openbind_d68ev3c_c2_elabs_scored_4.5plus,openbind_d68ev3c_c2_elabs,openbind_d68ev3c_c2_elabs_scored_5plus,syndirella_product,openbind_d68ev3c_c2_elabs_scored_top80percent,syndirella_placed

>  <smiles>  (2107) 
C[C@H](C(=O)N1CC[C@H]1c1ccc(Br)cc1)n1c(S)nnc1-c1cccs1

>  <subsites>  (2107) 
None

>  <rmsd(smina/fragmenstein)>  (2107) 
1.072

>  <alias>  (2107) 
None

>  <energy_score>  (2107) 
-8.702162

>  <HIPPO Pose ID>  (2107) 
143099

>  <distance_score>  (2107) 
1.092907

>  <HIPPO Compound ID>  (2107) 
151552

>  <gnina_score_min>  (2107) 
6.028

>  <name>  (2107) 
P143099

>  <exports>  (2107) 
['/opt/xchem-fragalysis-2/maxwin/BulkDock/OUTPUTS/openbind_d68ev3c_c2_elabs_1LOTQJ3.sdf', '/opt/xchem-fragalysis-2/maxwin/BulkDock/OUTPUTS/openbind_d68ev3c_c2_elabs_1LSYI5W.sdf']

$$$$
P143107
     RDKit          3D

 26 29  0  0  0  0  0  0  0  0999 V2000
   -0.3137   -4.3760   34.9684 C   0  0  0  0  0  0  0  0  0  0  0  0
    0.0102   -4.6259   33.5011 C   0  0  2  0  0  0  0  0  0  0  0  0
   -0.5507   -3.4876   32.6016 C   0  0  0  0  0  0  0  0  0  0  0  0
   -1.5789   -3.5614   32.0407 O   0  0  0  0  0  0  0  0  0  0  0  0
    0.5551   -2.3766   32.5531 N   0  0  0  0  0  0  0  0  0  0  0  0
    0.6532   -1.2298   31.7634 C   0  0  0  0  0  0  0  0  0  0  0  0
    1.7620   -0.4015   32.0408 C   0  0  0  0  0  0  0  0  0  0  0  0
    2.1334    0.6559   31.1935 C   0  0  0  0  0  0  0  0  0  0  0  0
    1.4226    0.8871   30.0252 C   0  0  0  0  0  0  0  0  0  0  0  0
    0.3313    0.0768   29.7823 C   0  0  0  0  0  0  0  0  0  0  0  0
   -0.0975   -0.9536   30.6332 C   0  0  0  0  0  0  0  0  0  0  0  0
   -1.2919   -1.5984   30.0095 C   0  0  0  0  0  0  0  0  0  0  0  0
   -1.4114   -0.9276   28.7376 N   0  0  0  0  0  0  0  0  0  0  0  0
   -0.4895    0.0709   28.5691 C   0  0  0  0  0  0  0  0  0  0  0  0
   -0.3333    0.8016   27.6127 O   0  0  0  0  0  0  0  0  0  0  0  0
   -0.2497   -5.9066   32.8413 N   0  0  0  0  0  0  0  0  0  0  0  0
   -0.8556   -7.0572   33.2541 C   0  0  0  0  0  0  0  0  0  0  0  0
   -1.2655   -7.4453   34.8781 S   0  0  0  0  0  0  0  0  0  0  0  0
   -1.0043   -7.8833   32.2419 N   0  0  0  0  0  0  0  0  0  0  0  0
   -0.4094   -7.3157   31.1407 N   0  0  0  0  0  0  0  0  0  0  0  0
    0.1225   -6.1723   31.5232 C   0  0  0  0  0  0  0  0  0  0  0  0
    0.9187   -5.3124   30.6888 C   0  0  0  0  0  0  0  0  0  0  0  0
    0.5176   -4.6628   29.5426 C   0  0  0  0  0  0  0  0  0  0  0  0
    1.5234   -3.8048   29.0065 C   0  0  0  0  0  0  0  0  0  0  0  0
    2.6830   -3.8499   29.7415 C   0  0  0  0  0  0  0  0  0  0  0  0
    2.5318   -4.8893   31.0830 S   0  0  0  0  0  0  0  0  0  0  0  0
  2  1  1  1
  2  3  1  0
  3  4  2  0
  3  5  1  0
  5  6  1  0
  6  7  2  0
  7  8  1  0
  8  9  2  0
  9 10  1  0
 10 11  2  0
 11 12  1  0
 12 13  1  0
 13 14  1  0
 14 15  2  0
  2 16  1  0
 16 17  1  0
 17 18  1  0
 17 19  2  0
 19 20  1  0
 20 21  2  0
 21 22  1  0
 22 23  2  0
 23 24  1  0
 24 25  2  0
 25 26  1  0
 11  6  1  0
 21 16  1  0
 26 22  1  0
 14 10  1  0
M  END
>  <ref_mols>  (2108) 
B0454b

>  <gnina_score>  (2108) 
5.365

>  <smina_score_min>  (2108) 
-5.762

>  <ref_pdb>  (2108) 
B0454b

>  <inspiration_score>  (2108) 
None

>  <inchikey>  (2108) 
KQQVCUFMVOOAIB-SECBINFHSA-N

>  <tags>  (2108) 
BulkDock Fragalysis export,openbind_d68ev3c_c2_elabs_scored,openbind_d68ev3c_c2_elabs_scored_4.5plus,openbind_d68ev3c_c2_elabs,openbind_d68ev3c_c2_elabs_scored_5plus,syndirella_product,openbind_d68ev3c_c2_elabs_scored_top80percent,syndirella_placed

>  <smiles>  (2108) 
C[C@H](C(=O)Nc1cccc2c1CNC2=O)n1c(S)nnc1-c1cccs1

>  <subsites>  (2108) 
None

>  <rmsd(smina/fragmenstein)>  (2108) 
1.209

>  <alias>  (2108) 
None

>  <energy_score>  (2108) 
-50.361396

>  <HIPPO Pose ID>  (2108) 
143107

>  <distance_score>  (2108) 
0.957671

>  <HIPPO Compound ID>  (2108) 
151586

>  <gnina_score_min>  (2108) 
5.556

>  <name>  (2108) 
P143107

>  <exports>  (2108) 
['/opt/xchem-fragalysis-2/maxwin/BulkDock/OUTPUTS/openbind_d68ev3c_c2_elabs_1LOTQJ3.sdf', '/opt/xchem-fragalysis-2/maxwin/BulkDock/OUTPUTS/openbind_d68ev3c_c2_elabs_1LSYI5W.sdf']

$$$$
P143109
     RDKit          3D

 26 28  0  0  0  0  0  0  0  0999 V2000
    3.3856   -0.3268   32.4471 C   0  0  0  0  0  0  0  0  0  0  0  0
    2.5049   -1.1789   32.9885 C   0  0  0  0  0  0  0  0  0  0  0  0
    1.3726   -1.8297   32.2225 C   0  0  0  0  0  0  0  0  0  0  0  0
    0.1484   -2.0689   33.0910 N   0  0  0  0  0  0  0  0  0  0  0  0
   -0.1451   -0.6050   32.6986 C   0  0  0  0  0  0  0  0  0  0  0  0
   -0.3965   -0.1479   31.2555 C   0  0  0  0  0  0  0  0  0  0  0  0
   -1.3112   -0.7899   30.4123 C   0  0  0  0  0  0  0  0  0  0  0  0
   -1.3704   -0.4709   29.0537 C   0  0  0  0  0  0  0  0  0  0  0  0
   -0.5641    0.5357   28.5322 C   0  0  0  0  0  0  0  0  0  0  0  0
    0.3036    1.2298   29.3689 C   0  0  0  0  0  0  0  0  0  0  0  0
    0.3849    0.8944   30.7218 C   0  0  0  0  0  0  0  0  0  0  0  0
   -0.5047   -3.2944   32.7031 C   0  0  0  0  0  0  0  0  0  0  0  0
   -1.3862   -3.4938   31.9048 O   0  0  0  0  0  0  0  0  0  0  0  0
    0.1695   -4.5085   33.4051 C   0  0  1  0  0  0  0  0  0  0  0  0
   -0.0500   -4.4233   34.9152 C   0  0  0  0  0  0  0  0  0  0  0  0
   -0.1363   -5.7505   32.6818 N   0  0  0  0  0  0  0  0  0  0  0  0
   -0.7078   -6.9292   33.0865 C   0  0  0  0  0  0  0  0  0  0  0  0
   -1.1426   -7.3733   34.6936 S   0  0  0  0  0  0  0  0  0  0  0  0
   -0.8454   -7.7473   32.0684 N   0  0  0  0  0  0  0  0  0  0  0  0
   -0.3170   -7.1390   30.9624 N   0  0  0  0  0  0  0  0  0  0  0  0
    0.1492   -5.9627   31.3295 C   0  0  0  0  0  0  0  0  0  0  0  0
    0.8140   -5.0630   30.4271 C   0  0  0  0  0  0  0  0  0  0  0  0
    0.2347   -4.1779   29.5388 C   0  0  0  0  0  0  0  0  0  0  0  0
    1.1947   -3.3789   28.8515 C   0  0  0  0  0  0  0  0  0  0  0  0
    2.4832   -3.7372   29.1677 C   0  0  0  0  0  0  0  0  0  0  0  0
    2.5197   -4.9899   30.3261 S   0  0  0  0  0  0  0  0  0  0  0  0
  1  2  2  0
  2  3  1  0
  3  4  1  0
  4  5  1  0
  5  6  1  0
  6  7  2  0
  7  8  1  0
  8  9  2  0
  9 10  1  0
 10 11  2  0
  4 12  1  0
 12 13  2  0
 12 14  1  0
 14 15  1  1
 14 16  1  0
 16 17  1  0
 17 18  1  0
 17 19  2  0
 19 20  1  0
 20 21  2  0
 21 22  1  0
 22 23  2  0
 23 24  1  0
 24 25  2  0
 25 26  1  0
 11  6  1  0
 21 16  1  0
 26 22  1  0
M  END
>  <ref_mols>  (2109) 
B0454b

>  <gnina_score>  (2109) 
5.674

>  <smina_score_min>  (2109) 
-4.745

>  <ref_pdb>  (2109) 
B0454b

>  <inspiration_score>  (2109) 
None

>  <inchikey>  (2109) 
IIDDQECYBZTXHE-CQSZACIVSA-N

>  <tags>  (2109) 
BulkDock Fragalysis export,openbind_d68ev3c_c2_elabs_scored,openbind_d68ev3c_c2_elabs_scored_4.5plus,openbind_d68ev3c_c2_elabs,openbind_d68ev3c_c2_elabs_scored_5plus,syndirella_product,openbind_d68ev3c_c2_elabs_scored_top80percent,syndirella_placed

>  <smiles>  (2109) 
C=CCN(Cc1ccccc1)C(=O)[C@@H](C)n1c(S)nnc1-c1cccs1

>  <subsites>  (2109) 
None

>  <rmsd(smina/fragmenstein)>  (2109) 
0.541

>  <alias>  (2109) 
None

>  <energy_score>  (2109) 
-21.910778

>  <HIPPO Pose ID>  (2109) 
143109

>  <distance_score>  (2109) 
1.234705

>  <HIPPO Compound ID>  (2109) 
151594

>  <gnina_score_min>  (2109) 
5.691

>  <name>  (2109) 
P143109

>  <exports>  (2109) 
['/opt/xchem-fragalysis-2/maxwin/BulkDock/OUTPUTS/openbind_d68ev3c_c2_elabs_1LOTQJ3.sdf', '/opt/xchem-fragalysis-2/maxwin/BulkDock/OUTPUTS/openbind_d68ev3c_c2_elabs_1LSYI5W.sdf']

$$$$
P143110
     RDKit          3D

 26 29  0  0  0  0  0  0  0  0999 V2000
   -0.3555   -4.4703   35.0105 C   0  0  0  0  0  0  0  0  0  0  0  0
   -0.1141   -4.7018   33.5251 C   0  0  2  0  0  0  0  0  0  0  0  0
   -0.8486   -3.6710   32.6362 C   0  0  0  0  0  0  0  0  0  0  0  0
   -1.8962   -3.8770   32.1534 O   0  0  0  0  0  0  0  0  0  0  0  0
    0.1181   -2.4573   32.4735 N   0  0  0  0  0  0  0  0  0  0  0  0
    0.0377   -1.3495   31.6486 C   0  0  0  0  0  0  0  0  0  0  0  0
    1.0119   -0.3524   31.7728 C   0  0  0  0  0  0  0  0  0  0  0  0
    1.1859    0.5972   30.7656 C   0  0  0  0  0  0  0  0  0  0  0  0
    0.3997    0.4970   29.6359 C   0  0  0  0  0  0  0  0  0  0  0  0
   -0.5763   -0.4852   29.5270 C   0  0  0  0  0  0  0  0  0  0  0  0
   -0.8135   -1.3850   30.5456 C   0  0  0  0  0  0  0  0  0  0  0  0
   -1.1471   -0.4743   28.1526 C   0  0  0  0  0  0  0  0  0  0  0  0
   -0.6810    0.7918   27.5443 N   0  0  0  0  0  0  0  0  0  0  0  0
   -1.7589    1.7801   27.5066 C   0  0  0  0  0  0  0  0  0  0  0  0
    0.4524    1.2813   28.3675 C   0  0  0  0  0  0  0  0  0  0  0  0
   -0.2847   -6.0052   32.8863 N   0  0  0  0  0  0  0  0  0  0  0  0
   -0.8944   -7.1519   33.2941 C   0  0  0  0  0  0  0  0  0  0  0  0
   -1.3206   -7.5195   34.9175 S   0  0  0  0  0  0  0  0  0  0  0  0
   -1.0504   -7.9715   32.2788 N   0  0  0  0  0  0  0  0  0  0  0  0
   -0.4739   -7.3899   31.1724 N   0  0  0  0  0  0  0  0  0  0  0  0
    0.0586   -6.2467   31.5551 C   0  0  0  0  0  0  0  0  0  0  0  0
    0.8070   -5.3470   30.7156 C   0  0  0  0  0  0  0  0  0  0  0  0
    0.3527   -4.6376   29.6234 C   0  0  0  0  0  0  0  0  0  0  0  0
    1.3406   -3.7650   29.0766 C   0  0  0  0  0  0  0  0  0  0  0  0
    2.5305   -3.8415   29.7585 C   0  0  0  0  0  0  0  0  0  0  0  0
    2.4343   -4.9323   31.0636 S   0  0  0  0  0  0  0  0  0  0  0  0
  2  1  1  1
  2  3  1  0
  3  4  2  0
  3  5  1  0
  5  6  1  0
  6  7  2  0
  7  8  1  0
  8  9  2  0
  9 10  1  0
 10 11  2  0
 10 12  1  0
 12 13  1  0
 13 14  1  0
 13 15  1  0
  2 16  1  0
 16 17  1  0
 17 18  1  0
 17 19  2  0
 19 20  1  0
 20 21  2  0
 21 22  1  0
 22 23  2  0
 23 24  1  0
 24 25  2  0
 25 26  1  0
 11  6  1  0
 21 16  1  0
 26 22  1  0
 15  9  1  0
M  END
>  <ref_mols>  (2110) 
B0454b

>  <gnina_score>  (2110) 
5.652

>  <smina_score_min>  (2110) 
-5.335

>  <ref_pdb>  (2110) 
B0454b

>  <inspiration_score>  (2110) 
None

>  <inchikey>  (2110) 
VYXXCJHOXHLWCN-LLVKDONJSA-N

>  <tags>  (2110) 
BulkDock Fragalysis export,openbind_d68ev3c_c2_elabs_scored,openbind_d68ev3c_c2_elabs_scored_4.5plus,openbind_d68ev3c_c2_elabs,openbind_d68ev3c_c2_elabs_scored_5plus,syndirella_product,openbind_d68ev3c_c2_elabs_scored_top80percent,syndirella_placed

>  <smiles>  (2110) 
C[C@H](C(=O)Nc1ccc2c(c1)CN(C)C2)n1c(S)nnc1-c1cccs1

>  <subsites>  (2110) 
None

>  <rmsd(smina/fragmenstein)>  (2110) 
0.995

>  <alias>  (2110) 
None

>  <energy_score>  (2110) 
-45.152057

>  <HIPPO Pose ID>  (2110) 
143110

>  <distance_score>  (2110) 
1.335502

>  <HIPPO Compound ID>  (2110) 
151601

>  <gnina_score_min>  (2110) 
5.636

>  <name>  (2110) 
P143110

>  <exports>  (2110) 
['/opt/xchem-fragalysis-2/maxwin/BulkDock/OUTPUTS/openbind_d68ev3c_c2_elabs_1LOTQJ3.sdf', '/opt/xchem-fragalysis-2/maxwin/BulkDock/OUTPUTS/openbind_d68ev3c_c2_elabs_1LSYI5W.sdf']

$$$$
P143116
     RDKit          3D

 26 29  0  0  0  0  0  0  0  0999 V2000
    2.4021   -5.5823   33.1719 C   0  0  0  0  0  0  0  0  0  0  0  0
    0.9989   -5.0747   33.4491 C   0  0  1  0  0  0  0  0  0  0  0  0
    0.5012   -3.8310   32.6796 C   0  0  0  0  0  0  0  0  0  0  0  0
   -0.5136   -3.9070   32.0360 O   0  0  0  0  0  0  0  0  0  0  0  0
    1.3443   -2.7046   32.9595 N   0  0  0  0  0  0  0  0  0  0  0  0
    2.4544   -2.5800   31.8793 C   0  0  0  0  0  0  0  0  0  0  0  0
    2.0584   -2.4888   30.3862 C   0  0  0  0  0  0  0  0  0  0  0  0
    0.9553   -1.5030   30.1998 C   0  0  0  0  0  0  0  0  0  0  0  0
    0.3943   -1.2447   28.9498 C   0  0  0  0  0  0  0  0  0  0  0  0
   -0.7619   -0.4805   28.8644 C   0  0  0  0  0  0  0  0  0  0  0  0
   -1.3656   -0.0110   30.0309 C   0  0  0  0  0  0  0  0  0  0  0  0
   -0.7993   -0.2673   31.2825 C   0  0  0  0  0  0  0  0  0  0  0  0
   -1.7682    0.2496   32.8318 Br  0  0  0  0  0  0  0  0  0  0  0  0
    0.4028   -0.9676   31.3683 C   0  0  0  0  0  0  0  0  0  0  0  0
    1.1720   -1.2513   32.6372 C   0  0  0  0  0  0  0  0  0  0  0  0
    0.0225   -6.1630   33.3849 N   0  0  0  0  0  0  0  0  0  0  0  0
   -0.4128   -6.8846   32.3069 C   0  0  0  0  0  0  0  0  0  0  0  0
    0.1477   -6.7160   30.6882 S   0  0  0  0  0  0  0  0  0  0  0  0
   -1.3007   -7.7700   32.6844 N   0  0  0  0  0  0  0  0  0  0  0  0
   -1.4497   -7.6485   34.0472 N   0  0  0  0  0  0  0  0  0  0  0  0
   -0.6332   -6.7057   34.4658 C   0  0  0  0  0  0  0  0  0  0  0  0
   -0.4202   -6.3442   35.8314 C   0  0  0  0  0  0  0  0  0  0  0  0
   -0.9436   -5.2625   36.5090 C   0  0  0  0  0  0  0  0  0  0  0  0
   -0.5002   -5.2062   37.8634 C   0  0  0  0  0  0  0  0  0  0  0  0
    0.3677   -6.2323   38.1632 C   0  0  0  0  0  0  0  0  0  0  0  0
    0.6542   -7.2417   36.8131 S   0  0  0  0  0  0  0  0  0  0  0  0
  2  1  1  6
  2  3  1  0
  3  4  2  0
  3  5  1  0
  5  6  1  0
  6  7  1  0
  7  8  1  0
  8  9  2  0
  9 10  1  0
 10 11  2  0
 11 12  1  0
 12 13  1  0
 12 14  2  0
 14 15  1  0
  2 16  1  0
 16 17  1  0
 17 18  1  0
 17 19  2  0
 19 20  1  0
 20 21  2  0
 21 22  1  0
 22 23  2  0
 23 24  1  0
 24 25  2  0
 25 26  1  0
 15  5  1  0
 21 16  1  0
 26 22  1  0
 14  8  1  0
M  END
>  <ref_mols>  (2111) 
B0454b

>  <gnina_score>  (2111) 
5.76

>  <smina_score_min>  (2111) 
-5.854

>  <ref_pdb>  (2111) 
B0454b

>  <inspiration_score>  (2111) 
None

>  <inchikey>  (2111) 
VVVJPFUFIDHFMY-NSHDSACASA-N

>  <tags>  (2111) 
BulkDock Fragalysis export,openbind_d68ev3c_c2_elabs_scored,openbind_d68ev3c_c2_elabs_scored_4.5plus,openbind_d68ev3c_c2_elabs,openbind_d68ev3c_c2_elabs_scored_5plus,syndirella_product,openbind_d68ev3c_c2_elabs_scored_top80percent,syndirella_placed

>  <smiles>  (2111) 
C[C@@H](C(=O)N1CCc2cccc(Br)c2C1)n1c(S)nnc1-c1cccs1

>  <subsites>  (2111) 
None

>  <rmsd(smina/fragmenstein)>  (2111) 
0.71

>  <alias>  (2111) 
None

>  <energy_score>  (2111) 
-2.426697

>  <HIPPO Pose ID>  (2111) 
143116

>  <distance_score>  (2111) 
1.494355

>  <HIPPO Compound ID>  (2111) 
151609

>  <gnina_score_min>  (2111) 
5.788

>  <name>  (2111) 
P143116

>  <exports>  (2111) 
['/opt/xchem-fragalysis-2/maxwin/BulkDock/OUTPUTS/openbind_d68ev3c_c2_elabs_1LOTQJ3.sdf', '/opt/xchem-fragalysis-2/maxwin/BulkDock/OUTPUTS/openbind_d68ev3c_c2_elabs_1LSYI5W.sdf']

$$$$
P143126
     RDKit          3D

 26 29  0  0  0  0  0  0  0  0999 V2000
    2.7969   -1.7494   33.9800 C   0  0  0  0  0  0  0  0  0  0  0  0
    2.2755   -1.7865   32.5481 C   0  0  1  0  0  0  0  0  0  0  0  0
    2.0127   -3.1357   31.9056 C   0  0  0  0  0  0  0  0  0  0  0  0
    0.6845   -3.1549   32.6999 N   0  0  0  0  0  0  0  0  0  0  0  0
   -0.2459   -4.2580   32.2060 C   0  0  0  0  0  0  0  0  0  0  0  0
   -1.0751   -4.2378   31.3665 O   0  0  0  0  0  0  0  0  0  0  0  0
    0.1543   -5.5458   32.9535 C   0  0  1  0  0  0  0  0  0  0  0  0
   -0.1309   -5.4005   34.4613 C   0  0  0  0  0  0  0  0  0  0  0  0
    0.8716   -6.1098   35.3473 C   0  0  0  0  0  0  0  0  0  0  0  0
    2.2361   -5.7836   35.3004 C   0  0  0  0  0  0  0  0  0  0  0  0
    3.1456   -6.3981   36.1627 C   0  0  0  0  0  0  0  0  0  0  0  0
    2.6985   -7.3250   37.0994 C   0  0  0  0  0  0  0  0  0  0  0  0
    1.3437   -7.6377   37.1727 C   0  0  0  0  0  0  0  0  0  0  0  0
    0.4363   -7.0428   36.2954 C   0  0  0  0  0  0  0  0  0  0  0  0
   -0.4234   -6.7100   32.2888 N   0  0  0  0  0  0  0  0  0  0  0  0
   -1.1940   -7.7069   32.7910 C   0  0  0  0  0  0  0  0  0  0  0  0
   -1.5366   -8.5268   31.8229 N   0  0  0  0  0  0  0  0  0  0  0  0
   -0.9544   -8.0867   30.6654 N   0  0  0  0  0  0  0  0  0  0  0  0
   -0.2742   -7.0064   30.9604 C   0  0  0  0  0  0  0  0  0  0  0  0
    0.7572   -1.6443   32.3247 C   0  0  2  0  0  0  0  0  0  0  0  0
    0.2672   -1.0964   30.8826 C   0  0  0  0  0  0  0  0  0  0  0  0
    1.0433   -0.1498   30.1721 C   0  0  0  0  0  0  0  0  0  0  0  0
    0.7205    0.2818   28.8834 C   0  0  0  0  0  0  0  0  0  0  0  0
   -0.4113   -0.2137   28.2583 C   0  0  0  0  0  0  0  0  0  0  0  0
   -1.2291   -1.1063   28.9337 C   0  0  0  0  0  0  0  0  0  0  0  0
   -0.9131   -1.5043   30.2370 C   0  0  0  0  0  0  0  0  0  0  0  0
  2  1  1  1
  2  3  1  0
  3  4  1  0
  4  5  1  0
  5  6  2  0
  5  7  1  0
  7  8  1  1
  8  9  1  0
  9 10  2  0
 10 11  1  0
 11 12  2  0
 12 13  1  0
 13 14  2  0
  7 15  1  0
 15 16  1  0
 16 17  2  0
 17 18  1  0
 18 19  2  0
  4 20  1  0
 20 21  1  6
 21 22  2  0
 22 23  1  0
 23 24  2  0
 24 25  1  0
 25 26  2  0
 20  2  1  0
 26 21  1  0
 14  9  1  0
 19 15  1  0
M  END
>  <ref_mols>  (2112) 
B0454b

>  <gnina_score>  (2112) 
5.15

>  <smina_score_min>  (2112) 
-6.437

>  <ref_pdb>  (2112) 
B0454b

>  <inspiration_score>  (2112) 
None

>  <inchikey>  (2112) 
DKMYMGJADXOJFW-DBVUQKKJSA-N

>  <tags>  (2112) 
BulkDock Fragalysis export,openbind_d68ev3c_c2_elabs_scored,openbind_d68ev3c_c2_elabs_scored_4.5plus,openbind_d68ev3c_c2_elabs,openbind_d68ev3c_c2_elabs_scored_5plus,syndirella_product,openbind_d68ev3c_c2_elabs_scored_top80percent,syndirella_placed

>  <smiles>  (2112) 
C[C@H]1CN(C(=O)[C@@H](Cc2ccccc2)n2cnnc2)[C@@H]1c1ccccc1

>  <subsites>  (2112) 
None

>  <rmsd(smina/fragmenstein)>  (2112) 
1.024

>  <alias>  (2112) 
None

>  <energy_score>  (2112) 
-1.283459

>  <HIPPO Pose ID>  (2112) 
143126

>  <distance_score>  (2112) 
0.624732

>  <HIPPO Compound ID>  (2112) 
151635

>  <gnina_score_min>  (2112) 
5.216

>  <name>  (2112) 
P143126

>  <exports>  (2112) 
['/opt/xchem-fragalysis-2/maxwin/BulkDock/OUTPUTS/openbind_d68ev3c_c2_elabs_1LOTQJ3.sdf', '/opt/xchem-fragalysis-2/maxwin/BulkDock/OUTPUTS/openbind_d68ev3c_c2_elabs_1LSYI5W.sdf']

$$$$
P143138
     RDKit          3D

 26 28  0  0  0  0  0  0  0  0999 V2000
    1.6523   -2.7448   32.8459 C   0  0  0  0  0  0  0  0  0  0  0  0
    0.2194   -3.0019   32.8654 N   0  0  0  0  0  0  0  0  0  0  0  0
   -0.1073   -4.2315   32.1555 C   0  0  0  0  0  0  0  0  0  0  0  0
   -0.6093   -1.8547   32.4616 C   0  0  0  0  0  0  0  0  0  0  0  0
   -0.3916   -1.3003   31.0658 C   0  0  0  0  0  0  0  0  0  0  0  0
   -1.1244   -1.8788   30.0103 C   0  0  0  0  0  0  0  0  0  0  0  0
   -0.9883   -1.4245   28.7024 C   0  0  0  0  0  0  0  0  0  0  0  0
   -0.0981   -0.3985   28.4204 C   0  0  0  0  0  0  0  0  0  0  0  0
    0.6393    0.1904   29.4455 C   0  0  0  0  0  0  0  0  0  0  0  0
    0.4837   -0.2328   30.7694 C   0  0  0  0  0  0  0  0  0  0  0  0
    1.1529    0.4470   31.7907 N   0  0  0  0  0  0  0  0  0  0  0  0
    2.1791    1.6303   31.7225 C   0  0  0  0  0  0  0  0  0  0  0  0
    2.5538    2.2580   30.8064 O   0  0  0  0  0  0  0  0  0  0  0  0
    2.5874    1.9501   33.1719 C   0  0  1  0  0  0  0  0  0  0  0  0
    3.8037    2.8915   33.2062 C   0  0  0  0  0  0  0  0  0  0  0  0
    4.4562    2.9307   34.5693 C   0  0  0  0  0  0  0  0  0  0  0  0
    5.4215    1.9763   34.9198 C   0  0  0  0  0  0  0  0  0  0  0  0
    5.9991    1.9900   36.1901 C   0  0  0  0  0  0  0  0  0  0  0  0
    5.6161    2.9535   37.1209 C   0  0  0  0  0  0  0  0  0  0  0  0
    4.6583    3.9068   36.7816 C   0  0  0  0  0  0  0  0  0  0  0  0
    4.0810    3.8978   35.5115 C   0  0  0  0  0  0  0  0  0  0  0  0
    1.4478    2.5014   33.8890 N   0  0  0  0  0  0  0  0  0  0  0  0
    0.9588    2.0680   35.0835 C   0  0  0  0  0  0  0  0  0  0  0  0
   -0.1487    2.7163   35.3589 N   0  0  0  0  0  0  0  0  0  0  0  0
   -0.3690    3.6185   34.3436 N   0  0  0  0  0  0  0  0  0  0  0  0
    0.6072    3.4901   33.4744 C   0  0  0  0  0  0  0  0  0  0  0  0
  1  2  1  0
  2  3  1  0
  2  4  1  0
  4  5  1  0
  5  6  2  0
  6  7  1  0
  7  8  2  0
  8  9  1  0
  9 10  2  0
 10 11  1  0
 11 12  1  0
 12 13  2  0
 12 14  1  0
 14 15  1  6
 15 16  1  0
 16 17  2  0
 17 18  1  0
 18 19  2  0
 19 20  1  0
 20 21  2  0
 14 22  1  0
 22 23  1  0
 23 24  2  0
 24 25  1  0
 25 26  2  0
 10  5  1  0
 21 16  1  0
 26 22  1  0
M  END
>  <ref_mols>  (2113) 
B0454b

>  <gnina_score>  (2113) 
4.989

>  <smina_score_min>  (2113) 
-2.979

>  <ref_pdb>  (2113) 
B0454b

>  <inspiration_score>  (2113) 
None

>  <inchikey>  (2113) 
LPOBVWMPGPQQCI-LJQANCHMSA-N

>  <tags>  (2113) 
BulkDock Fragalysis export,openbind_d68ev3c_c2_elabs_scored,openbind_d68ev3c_c2_elabs_scored_4.5plus,openbind_d68ev3c_c2_elabs,openbind_d68ev3c_c2_elabs_scored_5plus,syndirella_product,openbind_d68ev3c_c2_elabs_scored_top80percent,syndirella_placed

>  <smiles>  (2113) 
CN(C)Cc1ccccc1NC(=O)[C@@H](Cc1ccccc1)n1cnnc1

>  <subsites>  (2113) 
None

>  <rmsd(smina/fragmenstein)>  (2113) 
3.54

>  <alias>  (2113) 
None

>  <energy_score>  (2113) 
-33.508474

>  <HIPPO Pose ID>  (2113) 
143138

>  <distance_score>  (2113) 
0.373595

>  <HIPPO Compound ID>  (2113) 
151645

>  <gnina_score_min>  (2113) 
5.073

>  <name>  (2113) 
P143138

>  <exports>  (2113) 
['/opt/xchem-fragalysis-2/maxwin/BulkDock/OUTPUTS/openbind_d68ev3c_c2_elabs_1LOTQJ3.sdf', '/opt/xchem-fragalysis-2/maxwin/BulkDock/OUTPUTS/openbind_d68ev3c_c2_elabs_1LSYI5W.sdf']

$$$$
P143143
     RDKit          3D

 26 29  0  0  0  0  0  0  0  0999 V2000
   -1.0758   -4.2081   31.3997 O   0  0  0  0  0  0  0  0  0  0  0  0
   -0.2523   -4.2593   32.2436 C   0  0  0  0  0  0  0  0  0  0  0  0
    0.0970   -5.5608   32.9955 C   0  0  1  0  0  0  0  0  0  0  0  0
   -0.2660   -5.4204   34.4874 C   0  0  0  0  0  0  0  0  0  0  0  0
    0.7714   -6.0147   35.4159 C   0  0  0  0  0  0  0  0  0  0  0  0
    2.0572   -5.4580   35.4977 C   0  0  0  0  0  0  0  0  0  0  0  0
    3.0009   -5.9749   36.3865 C   0  0  0  0  0  0  0  0  0  0  0  0
    2.6630   -7.0374   37.2195 C   0  0  0  0  0  0  0  0  0  0  0  0
    1.3832   -7.5831   37.1622 C   0  0  0  0  0  0  0  0  0  0  0  0
    0.4452   -7.0852   36.2564 C   0  0  0  0  0  0  0  0  0  0  0  0
   -0.4592   -6.7129   32.2918 N   0  0  0  0  0  0  0  0  0  0  0  0
   -0.2847   -6.9778   30.9598 C   0  0  0  0  0  0  0  0  0  0  0  0
   -0.9370   -8.0659   30.6320 N   0  0  0  0  0  0  0  0  0  0  0  0
   -1.5249   -8.5441   31.7708 N   0  0  0  0  0  0  0  0  0  0  0  0
   -1.2130   -7.7387   32.7609 C   0  0  0  0  0  0  0  0  0  0  0  0
    0.7170   -3.1916   32.7421 N   0  0  0  0  0  0  0  0  0  0  0  0
    2.0492   -3.2230   31.9545 C   0  0  0  0  0  0  0  0  0  0  0  0
    2.3445   -1.8986   32.6193 C   0  0  0  0  0  0  0  0  0  0  0  0
    0.8483   -1.6899   32.3680 C   0  0  1  0  0  0  0  0  0  0  0  0
    0.3986   -1.1235   30.9226 C   0  0  0  0  0  0  0  0  0  0  0  0
    1.2375   -0.2343   30.2043 C   0  0  0  0  0  0  0  0  0  0  0  0
    0.9387    0.2273   28.9180 C   0  0  0  0  0  0  0  0  0  0  0  0
   -0.2331   -0.1779   28.3032 C   0  0  0  0  0  0  0  0  0  0  0  0
   -1.0964   -1.0105   28.9903 C   0  0  0  0  0  0  0  0  0  0  0  0
   -2.2355   -1.3879   28.4050 F   0  0  0  0  0  0  0  0  0  0  0  0
   -0.8088   -1.4511   30.2824 C   0  0  0  0  0  0  0  0  0  0  0  0
  1  2  2  0
  2  3  1  0
  3  4  1  1
  4  5  1  0
  5  6  2  0
  6  7  1  0
  7  8  2  0
  8  9  1  0
  9 10  2  0
  3 11  1  0
 11 12  1  0
 12 13  2  0
 13 14  1  0
 14 15  2  0
  2 16  1  0
 16 17  1  0
 17 18  1  0
 18 19  1  0
 19 20  1  6
 20 21  2  0
 21 22  1  0
 22 23  2  0
 23 24  1  0
 24 25  1  0
 24 26  2  0
 10  5  1  0
 15 11  1  0
 19 16  1  0
 26 20  1  0
M  END
>  <ref_mols>  (2114) 
B0454b

>  <gnina_score>  (2114) 
5.297

>  <smina_score_min>  (2114) 
-6.275

>  <ref_pdb>  (2114) 
B0454b

>  <inspiration_score>  (2114) 
None

>  <inchikey>  (2114) 
OSLWQZSLZVXTHE-RBUKOAKNSA-N

>  <tags>  (2114) 
BulkDock Fragalysis export,openbind_d68ev3c_c2_elabs_scored,openbind_d68ev3c_c2_elabs_scored_4.5plus,openbind_d68ev3c_c2_elabs,openbind_d68ev3c_c2_elabs_scored_5plus,syndirella_product,openbind_d68ev3c_c2_elabs_scored_top80percent,syndirella_placed

>  <smiles>  (2114) 
O=C([C@@H](Cc1ccccc1)n1cnnc1)N1CC[C@H]1c1cccc(F)c1

>  <subsites>  (2114) 
None

>  <rmsd(smina/fragmenstein)>  (2114) 
0.741

>  <alias>  (2114) 
None

>  <energy_score>  (2114) 
-7.072277

>  <HIPPO Pose ID>  (2114) 
143143

>  <distance_score>  (2114) 
0.646074

>  <HIPPO Compound ID>  (2114) 
151662

>  <gnina_score_min>  (2114) 
5.38

>  <name>  (2114) 
P143143

>  <exports>  (2114) 
['/opt/xchem-fragalysis-2/maxwin/BulkDock/OUTPUTS/openbind_d68ev3c_c2_elabs_1LOTQJ3.sdf', '/opt/xchem-fragalysis-2/maxwin/BulkDock/OUTPUTS/openbind_d68ev3c_c2_elabs_1LSYI5W.sdf']

$$$$
P143145
     RDKit          3D

 27 30  0  0  0  0  0  0  0  0999 V2000
    0.3159   -4.4835   30.5554 O   0  0  0  0  0  0  0  0  0  0  0  0
    0.6517   -4.4794   31.6850 C   0  0  0  0  0  0  0  0  0  0  0  0
    1.0262   -5.7417   32.4360 C   0  0  0  0  0  0  0  0  0  0  0  0
   -0.1205   -6.6077   32.6031 N   0  0  0  0  0  0  0  0  0  0  0  0
   -0.6811   -7.4343   31.6715 C   0  0  0  0  0  0  0  0  0  0  0  0
   -0.1632   -7.6026   30.0511 S   0  0  0  0  0  0  0  0  0  0  0  0
   -1.6358   -8.1422   32.2095 N   0  0  0  0  0  0  0  0  0  0  0  0
   -1.6958   -7.8024   33.5351 N   0  0  0  0  0  0  0  0  0  0  0  0
   -0.7858   -6.8792   33.7805 C   0  0  0  0  0  0  0  0  0  0  0  0
   -0.4762   -6.3288   35.0974 C   0  0  0  0  0  0  0  0  0  0  0  0
   -0.5387   -4.9566   35.3644 C   0  0  0  0  0  0  0  0  0  0  0  0
   -0.2172   -4.4617   36.6321 C   0  0  0  0  0  0  0  0  0  0  0  0
    0.1671   -5.3400   37.6425 C   0  0  0  0  0  0  0  0  0  0  0  0
    0.5702   -4.7291   39.1973 Cl  0  0  0  0  0  0  0  0  0  0  0  0
    0.2164   -6.7090   37.3993 C   0  0  0  0  0  0  0  0  0  0  0  0
   -0.1198   -7.1983   36.1339 C   0  0  0  0  0  0  0  0  0  0  0  0
    0.7421   -3.3370   32.6767 N   0  0  0  0  0  0  0  0  0  0  0  0
    2.1431   -2.6639   32.6431 C   0  0  0  0  0  0  0  0  0  0  0  0
    1.5346   -1.5219   33.4032 C   0  0  0  0  0  0  0  0  0  0  0  0
    0.3295   -1.8617   32.5466 C   0  0  1  0  0  0  0  0  0  0  0  0
    0.0976   -1.2134   31.1019 C   0  0  0  0  0  0  0  0  0  0  0  0
   -0.8887   -1.6962   30.2127 C   0  0  0  0  0  0  0  0  0  0  0  0
   -1.1838   -1.0594   29.0014 C   0  0  0  0  0  0  0  0  0  0  0  0
   -0.5156    0.1081   28.6649 C   0  0  0  0  0  0  0  0  0  0  0  0
   -1.0338    1.0502   27.3290 Cl  0  0  0  0  0  0  0  0  0  0  0  0
    0.5055    0.5847   29.4745 C   0  0  0  0  0  0  0  0  0  0  0  0
    0.8038   -0.0698   30.6717 C   0  0  0  0  0  0  0  0  0  0  0  0
  1  2  2  0
  2  3  1  0
  3  4  1  0
  4  5  1  0
  5  6  1  0
  5  7  2  0
  7  8  1  0
  8  9  2  0
  9 10  1  0
 10 11  2  0
 11 12  1  0
 12 13  2  0
 13 14  1  0
 13 15  1  0
 15 16  2  0
  2 17  1  0
 17 18  1  0
 18 19  1  0
 19 20  1  0
 20 21  1  6
 21 22  2  0
 22 23  1  0
 23 24  2  0
 24 25  1  0
 24 26  1  0
 26 27  2  0
  9  4  1  0
 16 10  1  0
 20 17  1  0
 27 21  1  0
M  END
>  <ref_mols>  (2115) 
B0454b

>  <gnina_score>  (2115) 
6.011

>  <smina_score_min>  (2115) 
-6.356

>  <ref_pdb>  (2115) 
B0454b

>  <inspiration_score>  (2115) 
None

>  <inchikey>  (2115) 
BYSSTMWEDRTIMO-INIZCTEOSA-N

>  <tags>  (2115) 
BulkDock Fragalysis export,openbind_d68ev3c_c2_elabs_scored,openbind_d68ev3c_c2_elabs_scored_4.5plus,openbind_d68ev3c_c2_elabs,openbind_d68ev3c_c2_elabs_scored_5plus,syndirella_product,openbind_d68ev3c_c2_elabs_scored_top80percent,syndirella_placed

>  <smiles>  (2115) 
O=C(Cn1c(S)nnc1-c1ccc(Cl)cc1)N1CC[C@H]1c1ccc(Cl)cc1

>  <subsites>  (2115) 
None

>  <rmsd(smina/fragmenstein)>  (2115) 
1.194

>  <alias>  (2115) 
None

>  <energy_score>  (2115) 
-4.888595

>  <HIPPO Pose ID>  (2115) 
143145

>  <distance_score>  (2115) 
1.016307

>  <HIPPO Compound ID>  (2115) 
151675

>  <gnina_score_min>  (2115) 
6.111

>  <name>  (2115) 
P143145

>  <exports>  (2115) 
['/opt/xchem-fragalysis-2/maxwin/BulkDock/OUTPUTS/openbind_d68ev3c_c2_elabs_1LOTQJ3.sdf', '/opt/xchem-fragalysis-2/maxwin/BulkDock/OUTPUTS/openbind_d68ev3c_c2_elabs_1LSYI5W.sdf']

$$$$
P143148
     RDKit          3D

 27 30  0  0  0  0  0  0  0  0999 V2000
    0.9756   -1.1968   34.9371 C   0  0  0  0  0  0  0  0  0  0  0  0
    1.2537   -1.2087   33.4412 C   0  0  1  0  0  0  0  0  0  0  0  0
    1.9647   -2.4059   32.8748 C   0  0  0  0  0  0  0  0  0  0  0  0
    0.5945   -3.1382   32.7527 N   0  0  0  0  0  0  0  0  0  0  0  0
    0.6767   -4.3141   31.7954 C   0  0  0  0  0  0  0  0  0  0  0  0
    0.4892   -4.3652   30.6321 O   0  0  0  0  0  0  0  0  0  0  0  0
    1.0220   -5.5477   32.6069 C   0  0  0  0  0  0  0  0  0  0  0  0
   -0.0979   -6.4634   32.6836 N   0  0  0  0  0  0  0  0  0  0  0  0
   -0.5863   -7.2776   31.6991 C   0  0  0  0  0  0  0  0  0  0  0  0
    0.0051   -7.3800   30.0981 S   0  0  0  0  0  0  0  0  0  0  0  0
   -1.5310   -8.0448   32.1692 N   0  0  0  0  0  0  0  0  0  0  0  0
   -1.6470   -7.7689   33.5052 N   0  0  0  0  0  0  0  0  0  0  0  0
   -0.7841   -6.8233   33.8250 C   0  0  0  0  0  0  0  0  0  0  0  0
   -0.5165   -6.3414   35.1783 C   0  0  0  0  0  0  0  0  0  0  0  0
   -0.1308   -7.2586   36.1607 C   0  0  0  0  0  0  0  0  0  0  0  0
    0.1841   -6.8395   37.4562 C   0  0  0  0  0  0  0  0  0  0  0  0
    0.0719   -5.4939   37.7880 C   0  0  0  0  0  0  0  0  0  0  0  0
    0.4393   -4.9684   39.3823 Cl  0  0  0  0  0  0  0  0  0  0  0  0
   -0.3459   -4.5705   36.8332 C   0  0  0  0  0  0  0  0  0  0  0  0
   -0.6319   -4.9926   35.5302 C   0  0  0  0  0  0  0  0  0  0  0  0
    0.1430   -1.6782   32.5188 C   0  0  2  0  0  0  0  0  0  0  0  0
    0.0140   -1.1807   31.0033 C   0  0  0  0  0  0  0  0  0  0  0  0
    0.8536   -0.2001   30.4342 C   0  0  0  0  0  0  0  0  0  0  0  0
    0.7153    0.2211   29.1091 C   0  0  0  0  0  0  0  0  0  0  0  0
   -0.2776   -0.3267   28.3090 C   0  0  0  0  0  0  0  0  0  0  0  0
   -1.1240   -1.2972   28.8252 C   0  0  0  0  0  0  0  0  0  0  0  0
   -0.9839   -1.7049   30.1529 C   0  0  0  0  0  0  0  0  0  0  0  0
  2  1  1  1
  2  3  1  0
  3  4  1  0
  4  5  1  0
  5  6  2  0
  5  7  1  0
  7  8  1  0
  8  9  1  0
  9 10  1  0
  9 11  2  0
 11 12  1  0
 12 13  2  0
 13 14  1  0
 14 15  2  0
 15 16  1  0
 16 17  2  0
 17 18  1  0
 17 19  1  0
 19 20  2  0
  4 21  1  0
 21 22  1  6
 22 23  2  0
 23 24  1  0
 24 25  2  0
 25 26  1  0
 26 27  2  0
 21  2  1  0
 27 22  1  0
 13  8  1  0
 20 14  1  0
M  END
>  <ref_mols>  (2116) 
B0454b

>  <gnina_score>  (2116) 
5.833

>  <smina_score_min>  (2116) 
-5.991

>  <ref_pdb>  (2116) 
B0454b

>  <inspiration_score>  (2116) 
None

>  <inchikey>  (2116) 
GCTKPVWVKQVQDJ-UGSOOPFHSA-N

>  <tags>  (2116) 
BulkDock Fragalysis export,openbind_d68ev3c_c2_elabs_scored,openbind_d68ev3c_c2_elabs_scored_4.5plus,openbind_d68ev3c_c2_elabs,openbind_d68ev3c_c2_elabs_scored_5plus,syndirella_product,openbind_d68ev3c_c2_elabs_scored_top80percent,syndirella_placed

>  <smiles>  (2116) 
C[C@H]1CN(C(=O)Cn2c(S)nnc2-c2ccc(Cl)cc2)[C@@H]1c1ccccc1

>  <subsites>  (2116) 
None

>  <rmsd(smina/fragmenstein)>  (2116) 
0.849

>  <alias>  (2116) 
None

>  <energy_score>  (2116) 
-26.251729

>  <HIPPO Pose ID>  (2116) 
143148

>  <distance_score>  (2116) 
0.946774

>  <HIPPO Compound ID>  (2116) 
151678

>  <gnina_score_min>  (2116) 
6.005

>  <name>  (2116) 
P143148

>  <exports>  (2116) 
['/opt/xchem-fragalysis-2/maxwin/BulkDock/OUTPUTS/openbind_d68ev3c_c2_elabs_1LOTQJ3.sdf', '/opt/xchem-fragalysis-2/maxwin/BulkDock/OUTPUTS/openbind_d68ev3c_c2_elabs_1LSYI5W.sdf']

$$$$
P143153
     RDKit          3D

 27 30  0  0  0  0  0  0  0  0999 V2000
   -1.7323   -3.5646   31.8203 O   0  0  0  0  0  0  0  0  0  0  0  0
   -0.7612   -3.4932   32.4747 C   0  0  0  0  0  0  0  0  0  0  0  0
   -0.3519   -4.5873   33.4682 C   0  0  0  0  0  0  0  0  0  0  0  0
   -0.3999   -5.8902   32.8229 N   0  0  0  0  0  0  0  0  0  0  0  0
   -0.9496   -7.0534   33.2681 C   0  0  0  0  0  0  0  0  0  0  0  0
   -1.3491   -7.3559   34.9168 S   0  0  0  0  0  0  0  0  0  0  0  0
   -1.0026   -7.9166   32.2807 N   0  0  0  0  0  0  0  0  0  0  0  0
   -0.3404   -7.3618   31.2048 N   0  0  0  0  0  0  0  0  0  0  0  0
    0.1460   -6.1976   31.5908 C   0  0  0  0  0  0  0  0  0  0  0  0
    1.1126   -5.3524   30.8961 C   0  0  0  0  0  0  0  0  0  0  0  0
    0.7929   -4.7516   29.6805 C   0  0  0  0  0  0  0  0  0  0  0  0
    1.6895   -3.8740   29.0615 C   0  0  0  0  0  0  0  0  0  0  0  0
    2.9171   -3.5995   29.6538 C   0  0  0  0  0  0  0  0  0  0  0  0
    4.0103   -2.5093   28.9019 Cl  0  0  0  0  0  0  0  0  0  0  0  0
    3.2542   -4.1925   30.8662 C   0  0  0  0  0  0  0  0  0  0  0  0
    2.3520   -5.0624   31.4868 C   0  0  0  0  0  0  0  0  0  0  0  0
    0.3852   -2.4266   32.4754 N   0  0  0  0  0  0  0  0  0  0  0  0
    0.6040   -1.3314   31.6387 C   0  0  0  0  0  0  0  0  0  0  0  0
    1.7240   -0.5361   31.9633 C   0  0  0  0  0  0  0  0  0  0  0  0
    2.1602    0.5109   31.1342 C   0  0  0  0  0  0  0  0  0  0  0  0
    1.4959    0.7744   29.9457 C   0  0  0  0  0  0  0  0  0  0  0  0
    0.3972   -0.0083   29.6528 C   0  0  0  0  0  0  0  0  0  0  0  0
   -0.0789   -1.0437   30.4705 C   0  0  0  0  0  0  0  0  0  0  0  0
   -1.2461   -1.6754   29.7846 C   0  0  0  0  0  0  0  0  0  0  0  0
   -1.3386   -0.9524   28.5404 N   0  0  0  0  0  0  0  0  0  0  0  0
   -0.3993    0.0382   28.4254 C   0  0  0  0  0  0  0  0  0  0  0  0
   -0.2229    0.8081   27.5039 O   0  0  0  0  0  0  0  0  0  0  0  0
  1  2  2  0
  2  3  1  0
  3  4  1  0
  4  5  1  0
  5  6  1  0
  5  7  2  0
  7  8  1  0
  8  9  2  0
  9 10  1  0
 10 11  2  0
 11 12  1  0
 12 13  2  0
 13 14  1  0
 13 15  1  0
 15 16  2  0
  2 17  1  0
 17 18  1  0
 18 19  2  0
 19 20  1  0
 20 21  2  0
 21 22  1  0
 22 23  2  0
 23 24  1  0
 24 25  1  0
 25 26  1  0
 26 27  2  0
  9  4  1  0
 16 10  1  0
 23 18  1  0
 26 22  1  0
M  END
>  <ref_mols>  (2117) 
B0454b

>  <gnina_score>  (2117) 
5.471

>  <smina_score_min>  (2117) 
-6.063

>  <ref_pdb>  (2117) 
B0454b

>  <inspiration_score>  (2117) 
None

>  <inchikey>  (2117) 
HUGDVQCYKWFRHO-UHFFFAOYSA-N

>  <tags>  (2117) 
BulkDock Fragalysis export,openbind_d68ev3c_c2_elabs_scored,openbind_d68ev3c_c2_elabs_scored_4.5plus,openbind_d68ev3c_c2_elabs,openbind_d68ev3c_c2_elabs_scored_5plus,syndirella_product,openbind_d68ev3c_c2_elabs_scored_top80percent,syndirella_placed

>  <smiles>  (2117) 
O=C(Cn1c(S)nnc1-c1ccc(Cl)cc1)Nc1cccc2c1CNC2=O

>  <subsites>  (2117) 
None

>  <rmsd(smina/fragmenstein)>  (2117) 
1.104

>  <alias>  (2117) 
None

>  <energy_score>  (2117) 
-19.222428

>  <HIPPO Pose ID>  (2117) 
143153

>  <distance_score>  (2117) 
0.950534

>  <HIPPO Compound ID>  (2117) 
151689

>  <gnina_score_min>  (2117) 
5.53

>  <name>  (2117) 
P143153

>  <exports>  (2117) 
['/opt/xchem-fragalysis-2/maxwin/BulkDock/OUTPUTS/openbind_d68ev3c_c2_elabs_1LOTQJ3.sdf', '/opt/xchem-fragalysis-2/maxwin/BulkDock/OUTPUTS/openbind_d68ev3c_c2_elabs_1LSYI5W.sdf']

$$$$
P143157
     RDKit          3D

 27 30  0  0  0  0  0  0  0  0999 V2000
    0.7071   -4.4006   30.6013 O   0  0  0  0  0  0  0  0  0  0  0  0
    0.7636   -4.3914   31.7791 C   0  0  0  0  0  0  0  0  0  0  0  0
    1.0723   -5.6370   32.5827 C   0  0  0  0  0  0  0  0  0  0  0  0
   -0.0813   -6.5068   32.6787 N   0  0  0  0  0  0  0  0  0  0  0  0
   -0.6064   -7.3110   31.7058 C   0  0  0  0  0  0  0  0  0  0  0  0
   -0.0460   -7.4328   30.0953 S   0  0  0  0  0  0  0  0  0  0  0  0
   -1.5579   -8.0568   32.1974 N   0  0  0  0  0  0  0  0  0  0  0  0
   -1.6534   -7.7642   33.5320 N   0  0  0  0  0  0  0  0  0  0  0  0
   -0.7707   -6.8301   33.8297 C   0  0  0  0  0  0  0  0  0  0  0  0
   -0.4924   -6.3228   35.1716 C   0  0  0  0  0  0  0  0  0  0  0  0
   -0.5989   -4.9651   35.4923 C   0  0  0  0  0  0  0  0  0  0  0  0
   -0.2935   -4.5094   36.7785 C   0  0  0  0  0  0  0  0  0  0  0  0
    0.1199   -5.4132   37.7541 C   0  0  0  0  0  0  0  0  0  0  0  0
    0.5065   -4.8511   39.3312 Cl  0  0  0  0  0  0  0  0  0  0  0  0
    0.2120   -6.7694   37.4578 C   0  0  0  0  0  0  0  0  0  0  0  0
   -0.1103   -7.2195   36.1743 C   0  0  0  0  0  0  0  0  0  0  0  0
    0.4699   -3.2771   32.7676 N   0  0  0  0  0  0  0  0  0  0  0  0
    1.7441   -2.4336   33.0702 C   0  0  0  0  0  0  0  0  0  0  0  0
    0.8603   -1.3506   33.6012 C   0  0  0  0  0  0  0  0  0  0  0  0
   -0.0869   -1.8581   32.5448 C   0  0  1  0  0  0  0  0  0  0  0  0
   -0.1198   -1.3159   31.0530 C   0  0  0  0  0  0  0  0  0  0  0  0
    0.7600   -0.3365   30.5474 C   0  0  0  0  0  0  0  0  0  0  0  0
    0.6918    0.1034   29.2217 C   0  0  0  0  0  0  0  0  0  0  0  0
   -0.2671   -0.4218   28.3625 C   0  0  0  0  0  0  0  0  0  0  0  0
   -1.1526   -1.3883   28.8214 C   0  0  0  0  0  0  0  0  0  0  0  0
   -1.0761   -1.8121   30.1443 C   0  0  0  0  0  0  0  0  0  0  0  0
   -1.9541   -2.7324   30.5781 F   0  0  0  0  0  0  0  0  0  0  0  0
  1  2  2  0
  2  3  1  0
  3  4  1  0
  4  5  1  0
  5  6  1  0
  5  7  2  0
  7  8  1  0
  8  9  2  0
  9 10  1  0
 10 11  2  0
 11 12  1  0
 12 13  2  0
 13 14  1  0
 13 15  1  0
 15 16  2  0
  2 17  1  0
 17 18  1  0
 18 19  1  0
 19 20  1  0
 20 21  1  6
 21 22  2  0
 22 23  1  0
 23 24  2  0
 24 25  1  0
 25 26  2  0
 26 27  1  0
  9  4  1  0
 16 10  1  0
 20 17  1  0
 26 21  1  0
M  END
>  <ref_mols>  (2118) 
B0454b

>  <gnina_score>  (2118) 
5.931

>  <smina_score_min>  (2118) 
-6.021

>  <ref_pdb>  (2118) 
B0454b

>  <inspiration_score>  (2118) 
None

>  <inchikey>  (2118) 
ITWFUGRSYBFVRF-INIZCTEOSA-N

>  <tags>  (2118) 
BulkDock Fragalysis export,openbind_d68ev3c_c2_elabs_scored,openbind_d68ev3c_c2_elabs_scored_4.5plus,openbind_d68ev3c_c2_elabs,openbind_d68ev3c_c2_elabs_scored_5plus,syndirella_product,openbind_d68ev3c_c2_elabs_scored_top80percent,syndirella_placed

>  <smiles>  (2118) 
O=C(Cn1c(S)nnc1-c1ccc(Cl)cc1)N1CC[C@H]1c1ccccc1F

>  <subsites>  (2118) 
None

>  <rmsd(smina/fragmenstein)>  (2118) 
0.738

>  <alias>  (2118) 
None

>  <energy_score>  (2118) 
-3.939232

>  <HIPPO Pose ID>  (2118) 
143157

>  <distance_score>  (2118) 
0.971661

>  <HIPPO Compound ID>  (2118) 
151717

>  <gnina_score_min>  (2118) 
6.047

>  <name>  (2118) 
P143157

>  <exports>  (2118) 
['/opt/xchem-fragalysis-2/maxwin/BulkDock/OUTPUTS/openbind_d68ev3c_c2_elabs_1LOTQJ3.sdf', '/opt/xchem-fragalysis-2/maxwin/BulkDock/OUTPUTS/openbind_d68ev3c_c2_elabs_1LSYI5W.sdf']

$$$$
P143158
     RDKit          3D

 27 30  0  0  0  0  0  0  0  0999 V2000
    3.3778   -4.9482   33.5241 C   0  0  0  0  0  0  0  0  0  0  0  0
    2.1637   -5.3182   32.6541 C   0  0  0  0  0  0  0  0  0  0  0  0
    2.2983   -4.6515   31.2784 C   0  0  0  0  0  0  0  0  0  0  0  0
    0.8453   -5.0641   33.4365 C   0  0  1  0  0  0  0  0  0  0  0  0
   -0.0512   -3.9052   32.9780 C   0  0  0  0  0  0  0  0  0  0  0  0
   -0.8251   -4.0837   32.0708 O   0  0  0  0  0  0  0  0  0  0  0  0
    0.1418   -2.7689   33.8255 N   0  0  0  0  0  0  0  0  0  0  0  0
    1.2119   -1.8134   33.2115 C   0  0  0  0  0  0  0  0  0  0  0  0
    0.5886   -1.0419   32.1077 C   0  0  0  0  0  0  0  0  0  0  0  0
    0.9451   -0.6574   30.8351 C   0  0  0  0  0  0  0  0  0  0  0  0
   -0.0581   -0.0955   30.0380 C   0  0  0  0  0  0  0  0  0  0  0  0
   -1.3691    0.0642   30.5356 C   0  0  0  0  0  0  0  0  0  0  0  0
   -1.6773   -0.3107   31.8419 C   0  0  0  0  0  0  0  0  0  0  0  0
   -3.2444   -0.1985   32.5190 Cl  0  0  0  0  0  0  0  0  0  0  0  0
   -0.6727   -0.8457   32.5979 C   0  0  0  0  0  0  0  0  0  0  0  0
   -0.6314   -1.4783   33.9313 C   0  0  0  0  0  0  0  0  0  0  0  0
   -0.0158   -6.2467   33.5883 N   0  0  0  0  0  0  0  0  0  0  0  0
   -0.5690   -7.0589   32.6265 C   0  0  0  0  0  0  0  0  0  0  0  0
   -0.2988   -6.9839   30.9265 S   0  0  0  0  0  0  0  0  0  0  0  0
   -1.3587   -7.9417   33.1809 N   0  0  0  0  0  0  0  0  0  0  0  0
   -1.3531   -7.7168   34.5309 N   0  0  0  0  0  0  0  0  0  0  0  0
   -0.5489   -6.7061   34.7796 C   0  0  0  0  0  0  0  0  0  0  0  0
   -0.2738   -6.2503   36.1091 C   0  0  0  0  0  0  0  0  0  0  0  0
    0.2909   -6.9986   37.1234 C   0  0  0  0  0  0  0  0  0  0  0  0
    0.3829   -6.2774   38.3496 C   0  0  0  0  0  0  0  0  0  0  0  0
   -0.1342   -5.0070   38.2368 C   0  0  0  0  0  0  0  0  0  0  0  0
   -0.7194   -4.6926   36.6619 S   0  0  0  0  0  0  0  0  0  0  0  0
  1  2  1  0
  2  3  1  0
  4  2  1  6
  4  5  1  0
  5  6  2  0
  5  7  1  0
  7  8  1  0
  8  9  1  0
  9 10  2  0
 10 11  1  0
 11 12  2  0
 12 13  1  0
 13 14  1  0
 13 15  2  0
 15 16  1  0
  4 17  1  0
 17 18  1  0
 18 19  1  0
 18 20  2  0
 20 21  1  0
 21 22  2  0
 22 23  1  0
 23 24  2  0
 24 25  1  0
 25 26  2  0
 26 27  1  0
 16  7  1  0
 22 17  1  0
 27 23  1  0
 15  9  1  0
M  END
>  <ref_mols>  (2119) 
B0454b

>  <gnina_score>  (2119) 
5.841

>  <smina_score_min>  (2119) 
-5.307

>  <ref_pdb>  (2119) 
B0454b

>  <inspiration_score>  (2119) 
None

>  <inchikey>  (2119) 
VELDNZGCKHTSJH-INIZCTEOSA-N

>  <tags>  (2119) 
BulkDock Fragalysis export,openbind_d68ev3c_c2_elabs_scored,openbind_d68ev3c_c2_elabs_scored_4.5plus,openbind_d68ev3c_c2_elabs,openbind_d68ev3c_c2_elabs_scored_5plus,syndirella_product,openbind_d68ev3c_c2_elabs_scored_top80percent,syndirella_placed

>  <smiles>  (2119) 
CC(C)[C@@H](C(=O)N1Cc2cccc(Cl)c2C1)n1c(S)nnc1-c1cccs1

>  <subsites>  (2119) 
None

>  <rmsd(smina/fragmenstein)>  (2119) 
0.37

>  <alias>  (2119) 
None

>  <energy_score>  (2119) 
-5.572418

>  <HIPPO Pose ID>  (2119) 
143158

>  <distance_score>  (2119) 
1.7774

>  <HIPPO Compound ID>  (2119) 
151720

>  <gnina_score_min>  (2119) 
6.02

>  <name>  (2119) 
P143158

>  <exports>  (2119) 
['/opt/xchem-fragalysis-2/maxwin/BulkDock/OUTPUTS/openbind_d68ev3c_c2_elabs_1LOTQJ3.sdf', '/opt/xchem-fragalysis-2/maxwin/BulkDock/OUTPUTS/openbind_d68ev3c_c2_elabs_1LSYI5W.sdf']

$$$$
P143159
     RDKit          3D

 27 30  0  0  0  0  0  0  0  0999 V2000
    2.3046   -3.5640   35.6993 C   0  0  0  0  0  0  0  0  0  0  0  0
    2.6230   -4.3083   34.4066 C   0  0  0  0  0  0  0  0  0  0  0  0
    3.3839   -5.5994   34.7043 C   0  0  0  0  0  0  0  0  0  0  0  0
    1.4692   -4.4997   33.3707 C   0  0  2  0  0  0  0  0  0  0  0  0
    0.6597   -3.2277   33.0184 C   0  0  0  0  0  0  0  0  0  0  0  0
   -0.5399   -3.2871   32.9526 O   0  0  0  0  0  0  0  0  0  0  0  0
    1.5512   -2.1329   32.7789 N   0  0  0  0  0  0  0  0  0  0  0  0
    1.9988   -2.1231   31.2880 C   0  0  0  0  0  0  0  0  0  0  0  0
    0.9965   -1.4863   30.4134 C   0  0  0  0  0  0  0  0  0  0  0  0
    0.5718   -1.6903   29.1188 C   0  0  0  0  0  0  0  0  0  0  0  0
   -0.4410   -0.8602   28.6389 C   0  0  0  0  0  0  0  0  0  0  0  0
   -0.9798    0.1463   29.4537 C   0  0  0  0  0  0  0  0  0  0  0  0
   -0.5119    0.3292   30.7565 C   0  0  0  0  0  0  0  0  0  0  0  0
    0.4855   -0.5034   31.2079 C   0  0  0  0  0  0  0  0  0  0  0  0
    1.2614   -0.6435   32.4714 C   0  0  1  0  0  0  0  0  0  0  0  0
    0.4981   -0.0637   33.6705 C   0  0  0  0  0  0  0  0  0  0  0  0
    0.5920   -5.6708   33.4047 N   0  0  0  0  0  0  0  0  0  0  0  0
    0.1943   -6.3794   32.2853 C   0  0  0  0  0  0  0  0  0  0  0  0
    0.4370   -5.8825   30.6477 S   0  0  0  0  0  0  0  0  0  0  0  0
   -0.3998   -7.4901   32.6357 N   0  0  0  0  0  0  0  0  0  0  0  0
   -0.5223   -7.4639   33.9981 N   0  0  0  0  0  0  0  0  0  0  0  0
   -0.0219   -6.3263   34.4475 C   0  0  0  0  0  0  0  0  0  0  0  0
   -0.1247   -5.9559   35.8243 C   0  0  0  0  0  0  0  0  0  0  0  0
    0.2557   -6.7288   36.9057 C   0  0  0  0  0  0  0  0  0  0  0  0
   -0.0295   -6.1015   38.1538 C   0  0  0  0  0  0  0  0  0  0  0  0
   -0.6661   -4.8928   37.9859 C   0  0  0  0  0  0  0  0  0  0  0  0
   -0.9038   -4.5197   36.3342 S   0  0  0  0  0  0  0  0  0  0  0  0
  1  2  1  0
  2  3  1  0
  4  2  1  1
  4  5  1  0
  5  6  2  0
  5  7  1  0
  7  8  1  0
  8  9  1  0
  9 10  2  0
 10 11  1  0
 11 12  2  0
 12 13  1  0
 13 14  2  0
 14 15  1  0
 15 16  1  1
  4 17  1  0
 17 18  1  0
 18 19  1  0
 18 20  2  0
 20 21  1  0
 21 22  2  0
 22 23  1  0
 23 24  2  0
 24 25  1  0
 25 26  2  0
 26 27  1  0
 15  7  1  0
 22 17  1  0
 27 23  1  0
 14  9  1  0
M  END
>  <ref_mols>  (2120) 
B0454b

>  <gnina_score>  (2120) 
5.528

>  <smina_score_min>  (2120) 
-5.295

>  <ref_pdb>  (2120) 
B0454b

>  <inspiration_score>  (2120) 
None

>  <inchikey>  (2120) 
MVODMZHUIUFYTC-CXAGYDPISA-N

>  <tags>  (2120) 
BulkDock Fragalysis export,openbind_d68ev3c_c2_elabs_scored,openbind_d68ev3c_c2_elabs_scored_4.5plus,openbind_d68ev3c_c2_elabs,openbind_d68ev3c_c2_elabs_scored_5plus,syndirella_product,openbind_d68ev3c_c2_elabs_scored_top80percent,syndirella_placed

>  <smiles>  (2120) 
CC(C)[C@H](C(=O)N1Cc2ccccc2[C@H]1C)n1c(S)nnc1-c1cccs1

>  <subsites>  (2120) 
None

>  <rmsd(smina/fragmenstein)>  (2120) 
0.697

>  <alias>  (2120) 
None

>  <energy_score>  (2120) 
-0.722505

>  <HIPPO Pose ID>  (2120) 
143159

>  <distance_score>  (2120) 
1.804845

>  <HIPPO Compound ID>  (2120) 
151723

>  <gnina_score_min>  (2120) 
5.549

>  <name>  (2120) 
P143159

>  <exports>  (2120) 
['/opt/xchem-fragalysis-2/maxwin/BulkDock/OUTPUTS/openbind_d68ev3c_c2_elabs_1LOTQJ3.sdf', '/opt/xchem-fragalysis-2/maxwin/BulkDock/OUTPUTS/openbind_d68ev3c_c2_elabs_1LSYI5W.sdf']

$$$$
P143163
     RDKit          3D

 27 29  0  0  0  0  0  0  0  0999 V2000
    0.3330   -7.2833   30.2711 C   0  0  0  0  0  0  0  0  0  0  0  0
    0.5765   -6.0251   31.0816 C   0  0  0  0  0  0  0  0  0  0  0  0
   -0.3106   -4.8891   30.6028 C   0  0  0  0  0  0  0  0  0  0  0  0
    0.7613   -6.1398   32.6386 C   0  0  1  0  0  0  0  0  0  0  0  0
    1.4453   -4.8051   33.0161 C   0  0  0  0  0  0  0  0  0  0  0  0
    2.6188   -4.7336   33.0297 O   0  0  0  0  0  0  0  0  0  0  0  0
    0.3547   -3.6925   33.2315 N   0  0  0  0  0  0  0  0  0  0  0  0
    0.4881   -2.3614   33.5825 N   0  0  0  0  0  0  0  0  0  0  0  0
    1.8766   -1.9224   33.6175 C   0  0  0  0  0  0  0  0  0  0  0  0
   -0.4217   -1.4366   32.8731 C   0  0  0  0  0  0  0  0  0  0  0  0
   -0.2393   -1.2105   31.3820 C   0  0  0  0  0  0  0  0  0  0  0  0
   -1.1978   -1.6771   30.4659 C   0  0  0  0  0  0  0  0  0  0  0  0
   -1.0622   -1.4365   29.0954 C   0  0  0  0  0  0  0  0  0  0  0  0
    0.0202   -0.7014   28.6232 C   0  0  0  0  0  0  0  0  0  0  0  0
    0.9670   -0.2083   29.5152 C   0  0  0  0  0  0  0  0  0  0  0  0
    0.8340   -0.4552   30.8841 C   0  0  0  0  0  0  0  0  0  0  0  0
   -0.2534   -6.5834   33.5875 N   0  0  0  0  0  0  0  0  0  0  0  0
   -1.3238   -7.4242   33.4291 C   0  0  0  0  0  0  0  0  0  0  0  0
   -1.8026   -8.2340   32.0078 S   0  0  0  0  0  0  0  0  0  0  0  0
   -1.9672   -7.5821   34.5581 N   0  0  0  0  0  0  0  0  0  0  0  0
   -1.2669   -6.9392   35.5245 N   0  0  0  0  0  0  0  0  0  0  0  0
   -0.1913   -6.4191   34.9737 C   0  0  0  0  0  0  0  0  0  0  0  0
    0.8566   -5.8494   35.7656 C   0  0  0  0  0  0  0  0  0  0  0  0
    2.1791   -6.2412   35.8365 C   0  0  0  0  0  0  0  0  0  0  0  0
    2.9306   -5.4478   36.7537 C   0  0  0  0  0  0  0  0  0  0  0  0
    2.1508   -4.4957   37.3701 C   0  0  0  0  0  0  0  0  0  0  0  0
    0.5233   -4.5670   36.8527 S   0  0  0  0  0  0  0  0  0  0  0  0
  1  2  1  0
  2  3  1  0
  4  2  1  6
  4  5  1  0
  5  6  2  0
  5  7  1  0
  7  8  1  0
  8  9  1  0
  8 10  1  0
 10 11  1  0
 11 12  2  0
 12 13  1  0
 13 14  2  0
 14 15  1  0
 15 16  2  0
  4 17  1  0
 17 18  1  0
 18 19  1  0
 18 20  2  0
 20 21  1  0
 21 22  2  0
 22 23  1  0
 23 24  2  0
 24 25  1  0
 25 26  2  0
 26 27  1  0
 16 11  1  0
 22 17  1  0
 27 23  1  0
M  END
>  <ref_mols>  (2121) 
B0454b

>  <gnina_score>  (2121) 
5.549

>  <smina_score_min>  (2121) 
-5.025

>  <ref_pdb>  (2121) 
B0454b

>  <inspiration_score>  (2121) 
None

>  <inchikey>  (2121) 
UJGASBJAOJIGIE-INIZCTEOSA-N

>  <tags>  (2121) 
BulkDock Fragalysis export,openbind_d68ev3c_c2_elabs_scored,openbind_d68ev3c_c2_elabs_scored_4.5plus,openbind_d68ev3c_c2_elabs,openbind_d68ev3c_c2_elabs_scored_5plus,syndirella_product,openbind_d68ev3c_c2_elabs_scored_top80percent,syndirella_placed

>  <smiles>  (2121) 
CC(C)[C@@H](C(=O)NN(C)Cc1ccccc1)n1c(S)nnc1-c1cccs1

>  <subsites>  (2121) 
None

>  <rmsd(smina/fragmenstein)>  (2121) 
1.615

>  <alias>  (2121) 
None

>  <energy_score>  (2121) 
-17.910591

>  <HIPPO Pose ID>  (2121) 
143163

>  <distance_score>  (2121) 
1.205712

>  <HIPPO Compound ID>  (2121) 
151740

>  <gnina_score_min>  (2121) 
5.813

>  <name>  (2121) 
P143163

>  <exports>  (2121) 
['/opt/xchem-fragalysis-2/maxwin/BulkDock/OUTPUTS/openbind_d68ev3c_c2_elabs_1LOTQJ3.sdf', '/opt/xchem-fragalysis-2/maxwin/BulkDock/OUTPUTS/openbind_d68ev3c_c2_elabs_1LSYI5W.sdf']

$$$$
P143167
     RDKit          3D

 27 30  0  0  0  0  0  0  0  0999 V2000
    0.9504   -3.9403   35.6947 C   0  0  0  0  0  0  0  0  0  0  0  0
    1.1322   -4.6531   34.3431 C   0  0  0  0  0  0  0  0  0  0  0  0
    1.8722   -5.9713   34.6232 C   0  0  0  0  0  0  0  0  0  0  0  0
   -0.2366   -4.7747   33.6055 C   0  0  1  0  0  0  0  0  0  0  0  0
   -0.7444   -3.5647   32.7452 C   0  0  0  0  0  0  0  0  0  0  0  0
   -1.4920   -3.7767   31.8521 O   0  0  0  0  0  0  0  0  0  0  0  0
   -0.0774   -2.2824   33.1755 N   0  0  0  0  0  0  0  0  0  0  0  0
    1.1731   -1.7887   32.7392 C   0  0  2  0  0  0  0  0  0  0  0  0
    2.2028   -1.3015   33.6988 C   0  0  0  0  0  0  0  0  0  0  0  0
   -0.0801   -0.9753   32.5754 C   0  0  1  0  0  0  0  0  0  0  0  0
   -0.2943   -0.6592   31.1051 C   0  0  0  0  0  0  0  0  0  0  0  0
   -1.3236   -1.1890   30.3190 C   0  0  0  0  0  0  0  0  0  0  0  0
   -1.3678   -0.9780   28.9365 C   0  0  0  0  0  0  0  0  0  0  0  0
   -0.4144   -0.1794   28.3173 C   0  0  0  0  0  0  0  0  0  0  0  0
    0.5928    0.4021   29.0722 C   0  0  0  0  0  0  0  0  0  0  0  0
    0.6460    0.1643   30.4459 C   0  0  0  0  0  0  0  0  0  0  0  0
   -0.3354   -5.9954   32.7783 N   0  0  0  0  0  0  0  0  0  0  0  0
   -0.9374   -7.1732   33.1332 C   0  0  0  0  0  0  0  0  0  0  0  0
   -1.4454   -7.5401   34.7398 S   0  0  0  0  0  0  0  0  0  0  0  0
   -1.0109   -7.9797   32.1013 N   0  0  0  0  0  0  0  0  0  0  0  0
   -0.4032   -7.3475   31.0387 N   0  0  0  0  0  0  0  0  0  0  0  0
    0.0520   -6.1801   31.4605 C   0  0  0  0  0  0  0  0  0  0  0  0
    0.7995   -5.2583   30.6486 C   0  0  0  0  0  0  0  0  0  0  0  0
    0.3350   -4.4834   29.6043 C   0  0  0  0  0  0  0  0  0  0  0  0
    1.3428   -3.6461   29.0415 C   0  0  0  0  0  0  0  0  0  0  0  0
    2.5626   -3.8345   29.6440 C   0  0  0  0  0  0  0  0  0  0  0  0
    2.4619   -4.9655   30.9152 S   0  0  0  0  0  0  0  0  0  0  0  0
  1  2  1  0
  2  3  1  0
  4  2  1  6
  4  5  1  0
  5  6  2  0
  5  7  1  0
  7  8  1  0
  8  9  1  1
  8 10  1  0
 10 11  1  6
 11 12  2  0
 12 13  1  0
 13 14  2  0
 14 15  1  0
 15 16  2  0
  4 17  1  0
 17 18  1  0
 18 19  1  0
 18 20  2  0
 20 21  1  0
 21 22  2  0
 22 23  1  0
 23 24  2  0
 24 25  1  0
 25 26  2  0
 26 27  1  0
 10  7  1  0
 16 11  1  0
 22 17  1  0
 27 23  1  0
M  END
>  <ref_mols>  (2122) 
B0454b

>  <gnina_score>  (2122) 
5.878

>  <smina_score_min>  (2122) 
-5.325

>  <ref_pdb>  (2122) 
B0454b

>  <inspiration_score>  (2122) 
None

>  <inchikey>  (2122) 
ZREASBWLZQTQRL-MPGFHIMYSA-N

>  <tags>  (2122) 
BulkDock Fragalysis export,openbind_d68ev3c_c2_elabs_scored,openbind_d68ev3c_c2_elabs_scored_4.5plus,openbind_d68ev3c_c2_elabs,openbind_d68ev3c_c2_elabs_scored_5plus,syndirella_product,openbind_d68ev3c_c2_elabs_scored_top80percent,syndirella_placed

>  <smiles>  (2122) 
CC(C)[C@@H](C(=O)N1[C@H](C)[C@H]1c1ccccc1)n1c(S)nnc1-c1cccs1

>  <subsites>  (2122) 
None

>  <rmsd(smina/fragmenstein)>  (2122) 
0.533

>  <alias>  (2122) 
None

>  <energy_score>  (2122) 
-53.545358

>  <HIPPO Pose ID>  (2122) 
143167

>  <distance_score>  (2122) 
0.909336

>  <HIPPO Compound ID>  (2122) 
151741

>  <gnina_score_min>  (2122) 
5.838

>  <name>  (2122) 
P143167

>  <exports>  (2122) 
['/opt/xchem-fragalysis-2/maxwin/BulkDock/OUTPUTS/openbind_d68ev3c_c2_elabs_1LOTQJ3.sdf', '/opt/xchem-fragalysis-2/maxwin/BulkDock/OUTPUTS/openbind_d68ev3c_c2_elabs_1LSYI5W.sdf']

$$$$
P143174
     RDKit          3D

 27 30  0  0  0  0  0  0  0  0999 V2000
    1.3920   -5.6550   35.6168 C   0  0  0  0  0  0  0  0  0  0  0  0
    0.4839   -4.6021   34.9742 C   0  0  0  0  0  0  0  0  0  0  0  0
   -0.7625   -4.2985   35.7984 C   0  0  0  0  0  0  0  0  0  0  0  0
    0.2895   -4.7751   33.4368 C   0  0  2  0  0  0  0  0  0  0  0  0
   -0.3162   -3.5447   32.7006 C   0  0  0  0  0  0  0  0  0  0  0  0
   -1.1571   -3.6758   31.8803 O   0  0  0  0  0  0  0  0  0  0  0  0
    0.4282   -2.2957   33.1581 N   0  0  0  0  0  0  0  0  0  0  0  0
    1.7093   -2.0693   32.3368 C   0  0  0  0  0  0  0  0  0  0  0  0
    1.7503   -0.7211   33.0476 C   0  0  0  0  0  0  0  0  0  0  0  0
    0.2405   -0.7992   32.7630 C   0  0  1  0  0  0  0  0  0  0  0  0
   -0.1924   -0.4332   31.2070 C   0  0  0  0  0  0  0  0  0  0  0  0
    0.5819    0.4727   30.4402 C   0  0  0  0  0  0  0  0  0  0  0  0
    0.4125    0.6403   29.0626 C   0  0  0  0  0  0  0  0  0  0  0  0
   -0.5632   -0.0825   28.3976 C   0  0  0  0  0  0  0  0  0  0  0  0
   -1.3894   -0.9313   29.1192 C   0  0  0  0  0  0  0  0  0  0  0  0
   -1.2316   -1.0695   30.5051 C   0  0  0  0  0  0  0  0  0  0  0  0
   -0.1032   -6.0020   32.7234 N   0  0  0  0  0  0  0  0  0  0  0  0
   -0.8202   -7.1103   33.0811 C   0  0  0  0  0  0  0  0  0  0  0  0
   -1.4032   -7.4949   34.6478 S   0  0  0  0  0  0  0  0  0  0  0  0
   -0.9964   -7.9061   32.0498 N   0  0  0  0  0  0  0  0  0  0  0  0
   -0.3974   -7.3345   30.9609 N   0  0  0  0  0  0  0  0  0  0  0  0
    0.1603   -6.2065   31.3538 C   0  0  0  0  0  0  0  0  0  0  0  0
    0.8497   -5.3052   30.4583 C   0  0  0  0  0  0  0  0  0  0  0  0
    0.2861   -4.4628   29.5183 C   0  0  0  0  0  0  0  0  0  0  0  0
    1.2434   -3.6376   28.8585 C   0  0  0  0  0  0  0  0  0  0  0  0
    2.5266   -3.9230   29.2535 C   0  0  0  0  0  0  0  0  0  0  0  0
    2.5470   -5.1068   30.4774 S   0  0  0  0  0  0  0  0  0  0  0  0
  1  2  1  0
  2  3  1  0
  4  2  1  1
  4  5  1  0
  5  6  2  0
  5  7  1  0
  7  8  1  0
  8  9  1  0
  9 10  1  0
 10 11  1  6
 11 12  2  0
 12 13  1  0
 13 14  2  0
 14 15  1  0
 15 16  2  0
  4 17  1  0
 17 18  1  0
 18 19  1  0
 18 20  2  0
 20 21  1  0
 21 22  2  0
 22 23  1  0
 23 24  2  0
 24 25  1  0
 25 26  2  0
 26 27  1  0
 10  7  1  0
 16 11  1  0
 22 17  1  0
 27 23  1  0
M  END
>  <ref_mols>  (2123) 
B0454b

>  <gnina_score>  (2123) 
5.886

>  <smina_score_min>  (2123) 
-5.131

>  <ref_pdb>  (2123) 
B0454b

>  <inspiration_score>  (2123) 
None

>  <inchikey>  (2123) 
BLGQRRACKKRRHT-DOTOQJQBSA-N

>  <tags>  (2123) 
BulkDock Fragalysis export,openbind_d68ev3c_c2_elabs_scored,openbind_d68ev3c_c2_elabs_scored_4.5plus,openbind_d68ev3c_c2_elabs,openbind_d68ev3c_c2_elabs_scored_5plus,syndirella_product,openbind_d68ev3c_c2_elabs_scored_top80percent,syndirella_placed

>  <smiles>  (2123) 
CC(C)[C@H](C(=O)N1CC[C@H]1c1ccccc1)n1c(S)nnc1-c1cccs1

>  <subsites>  (2123) 
None

>  <rmsd(smina/fragmenstein)>  (2123) 
0.974

>  <alias>  (2123) 
None

>  <energy_score>  (2123) 
-52.250181

>  <HIPPO Pose ID>  (2123) 
143174

>  <distance_score>  (2123) 
0.992549

>  <HIPPO Compound ID>  (2123) 
151742

>  <gnina_score_min>  (2123) 
5.714

>  <name>  (2123) 
P143174

>  <exports>  (2123) 
['/opt/xchem-fragalysis-2/maxwin/BulkDock/OUTPUTS/openbind_d68ev3c_c2_elabs_1LOTQJ3.sdf', '/opt/xchem-fragalysis-2/maxwin/BulkDock/OUTPUTS/openbind_d68ev3c_c2_elabs_1LSYI5W.sdf']

$$$$
P143176
     RDKit          3D

 27 29  0  0  0  0  0  0  0  0999 V2000
    2.9040   -5.7547   34.4739 C   0  0  0  0  0  0  0  0  0  0  0  0
    2.2293   -4.4778   33.9699 C   0  0  0  0  0  0  0  0  0  0  0  0
    2.0234   -3.4951   35.1210 C   0  0  0  0  0  0  0  0  0  0  0  0
    1.0201   -4.7680   33.0192 C   0  0  2  0  0  0  0  0  0  0  0  0
    0.2430   -3.5552   32.4306 C   0  0  0  0  0  0  0  0  0  0  0  0
   -0.9048   -3.6968   32.0924 O   0  0  0  0  0  0  0  0  0  0  0  0
    1.1174   -2.4262   32.3075 N   0  0  0  0  0  0  0  0  0  0  0  0
    1.8837   -2.4994   31.0073 C   0  0  0  0  0  0  0  0  0  0  0  0
    0.8472   -0.9996   31.8135 C   0  0  0  0  0  0  0  0  0  0  0  0
    0.2143   -0.5873   30.4812 C   0  0  0  0  0  0  0  0  0  0  0  0
   -0.8806   -1.3046   29.9642 C   0  0  0  0  0  0  0  0  0  0  0  0
   -1.4155   -1.0106   28.7107 C   0  0  0  0  0  0  0  0  0  0  0  0
   -0.9288    0.0610   27.9785 C   0  0  0  0  0  0  0  0  0  0  0  0
    0.1094    0.8309   28.4887 C   0  0  0  0  0  0  0  0  0  0  0  0
    0.6808    0.5135   29.7287 C   0  0  0  0  0  0  0  0  0  0  0  0
    2.2390    1.7915   30.3447 I   0  0  0  0  0  0  0  0  0  0  0  0
    0.1031   -5.8645   33.3344 N   0  0  0  0  0  0  0  0  0  0  0  0
   -0.3211   -6.8288   32.4434 C   0  0  0  0  0  0  0  0  0  0  0  0
    0.0417   -6.8856   30.7580 S   0  0  0  0  0  0  0  0  0  0  0  0
   -1.0464   -7.7299   33.0505 N   0  0  0  0  0  0  0  0  0  0  0  0
   -1.1755   -7.3319   34.3527 N   0  0  0  0  0  0  0  0  0  0  0  0
   -0.5378   -6.1853   34.5101 C   0  0  0  0  0  0  0  0  0  0  0  0
   -0.5723   -5.4549   35.7393 C   0  0  0  0  0  0  0  0  0  0  0  0
   -1.0329   -4.1710   35.9569 C   0  0  0  0  0  0  0  0  0  0  0  0
   -0.9935   -3.8018   37.3343 C   0  0  0  0  0  0  0  0  0  0  0  0
   -0.4965   -4.8142   38.1233 C   0  0  0  0  0  0  0  0  0  0  0  0
   -0.0784   -6.1947   37.2061 S   0  0  0  0  0  0  0  0  0  0  0  0
  1  2  1  0
  2  3  1  0
  4  2  1  1
  4  5  1  0
  5  6  2  0
  5  7  1  0
  7  8  1  0
  7  9  1  0
  9 10  1  0
 10 11  2  0
 11 12  1  0
 12 13  2  0
 13 14  1  0
 14 15  2  0
 15 16  1  0
  4 17  1  0
 17 18  1  0
 18 19  1  0
 18 20  2  0
 20 21  1  0
 21 22  2  0
 22 23  1  0
 23 24  2  0
 24 25  1  0
 25 26  2  0
 26 27  1  0
 15 10  1  0
 22 17  1  0
 27 23  1  0
M  END
>  <ref_mols>  (2124) 
B0454b

>  <gnina_score>  (2124) 
5.817

>  <smina_score_min>  (2124) 
-4.982

>  <ref_pdb>  (2124) 
B0454b

>  <inspiration_score>  (2124) 
None

>  <inchikey>  (2124) 
AHLKRFHGFFZAMB-MRXNPFEDSA-N

>  <tags>  (2124) 
BulkDock Fragalysis export,openbind_d68ev3c_c2_elabs_scored,openbind_d68ev3c_c2_elabs_scored_4.5plus,openbind_d68ev3c_c2_elabs,openbind_d68ev3c_c2_elabs_scored_5plus,syndirella_product,openbind_d68ev3c_c2_elabs_scored_top80percent,syndirella_placed

>  <smiles>  (2124) 
CC(C)[C@H](C(=O)N(C)Cc1ccccc1I)n1c(S)nnc1-c1cccs1

>  <subsites>  (2124) 
None

>  <rmsd(smina/fragmenstein)>  (2124) 
1.13

>  <alias>  (2124) 
None

>  <energy_score>  (2124) 
-3.466607

>  <HIPPO Pose ID>  (2124) 
143176

>  <distance_score>  (2124) 
1.493839

>  <HIPPO Compound ID>  (2124) 
151745

>  <gnina_score_min>  (2124) 
5.603

>  <name>  (2124) 
P143176

>  <exports>  (2124) 
['/opt/xchem-fragalysis-2/maxwin/BulkDock/OUTPUTS/openbind_d68ev3c_c2_elabs_1LOTQJ3.sdf', '/opt/xchem-fragalysis-2/maxwin/BulkDock/OUTPUTS/openbind_d68ev3c_c2_elabs_1LSYI5W.sdf']

$$$$
P143178
     RDKit          3D

 27 30  0  0  0  0  0  0  0  0999 V2000
   -0.5226   -4.3366   39.4797 C   0  0  0  0  0  0  0  0  0  0  0  0
    0.5153   -5.0578   38.8156 O   0  0  0  0  0  0  0  0  0  0  0  0
    0.1475   -5.4459   37.5577 C   0  0  0  0  0  0  0  0  0  0  0  0
   -0.2379   -4.5382   36.5738 C   0  0  0  0  0  0  0  0  0  0  0  0
   -0.5675   -4.9978   35.2945 C   0  0  0  0  0  0  0  0  0  0  0  0
   -0.5061   -6.3604   34.9863 C   0  0  0  0  0  0  0  0  0  0  0  0
   -0.8064   -6.8822   33.6544 C   0  0  0  0  0  0  0  0  0  0  0  0
   -1.6853   -7.8307   33.3883 N   0  0  0  0  0  0  0  0  0  0  0  0
   -1.5796   -8.1813   32.0699 N   0  0  0  0  0  0  0  0  0  0  0  0
   -0.6218   -7.4591   31.5593 C   0  0  0  0  0  0  0  0  0  0  0  0
    0.0095   -7.7108   29.9928 S   0  0  0  0  0  0  0  0  0  0  0  0
   -0.1312   -6.5849   32.4876 N   0  0  0  0  0  0  0  0  0  0  0  0
    0.9904   -5.6826   32.3435 C   0  0  0  0  0  0  0  0  0  0  0  0
    0.6060   -4.4305   31.5807 C   0  0  0  0  0  0  0  0  0  0  0  0
    0.4137   -4.4282   30.4184 O   0  0  0  0  0  0  0  0  0  0  0  0
    0.5123   -3.3028   32.5940 N   0  0  0  0  0  0  0  0  0  0  0  0
    1.8702   -2.5593   32.7450 C   0  0  0  0  0  0  0  0  0  0  0  0
    1.1203   -1.4462   33.4150 C   0  0  0  0  0  0  0  0  0  0  0  0
    0.0408   -1.8438   32.4328 C   0  0  1  0  0  0  0  0  0  0  0  0
   -0.0497   -1.2414   30.9574 C   0  0  0  0  0  0  0  0  0  0  0  0
   -0.9970   -1.7304   30.0329 C   0  0  0  0  0  0  0  0  0  0  0  0
   -1.0957   -1.2355   28.7315 C   0  0  0  0  0  0  0  0  0  0  0  0
   -0.2539   -0.2135   28.3162 C   0  0  0  0  0  0  0  0  0  0  0  0
    0.6876    0.3054   29.1945 C   0  0  0  0  0  0  0  0  0  0  0  0
    0.7813   -0.1996   30.4942 C   0  0  0  0  0  0  0  0  0  0  0  0
   -0.1358   -7.2568   35.9933 C   0  0  0  0  0  0  0  0  0  0  0  0
    0.2186   -6.8035   37.2652 C   0  0  0  0  0  0  0  0  0  0  0  0
  1  2  1  0
  2  3  1  0
  3  4  2  0
  4  5  1  0
  5  6  2  0
  6  7  1  0
  7  8  2  0
  8  9  1  0
  9 10  2  0
 10 11  1  0
 10 12  1  0
 12 13  1  0
 13 14  1  0
 14 15  2  0
 14 16  1  0
 16 17  1  0
 17 18  1  0
 18 19  1  0
 19 20  1  6
 20 21  2  0
 21 22  1  0
 22 23  2  0
 23 24  1  0
 24 25  2  0
  6 26  1  0
 26 27  2  0
 27  3  1  0
 12  7  1  0
 19 16  1  0
 25 20  1  0
M  END
>  <ref_mols>  (2125) 
B0454b

>  <gnina_score>  (2125) 
5.804

>  <smina_score_min>  (2125) 
-5.942

>  <ref_pdb>  (2125) 
B0454b

>  <inspiration_score>  (2125) 
None

>  <inchikey>  (2125) 
GNMMCEFIJSNMMW-KRWDZBQOSA-N

>  <tags>  (2125) 
BulkDock Fragalysis export,openbind_d68ev3c_c2_elabs_scored,openbind_d68ev3c_c2_elabs_scored_4.5plus,openbind_d68ev3c_c2_elabs,openbind_d68ev3c_c2_elabs_scored_5plus,syndirella_product,openbind_d68ev3c_c2_elabs_scored_top80percent,syndirella_placed

>  <smiles>  (2125) 
COc1ccc(-c2nnc(S)n2CC(=O)N2CC[C@H]2c2ccccc2)cc1

>  <subsites>  (2125) 
None

>  <rmsd(smina/fragmenstein)>  (2125) 
1.04

>  <alias>  (2125) 
None

>  <energy_score>  (2125) 
-5.957685

>  <HIPPO Pose ID>  (2125) 
143178

>  <distance_score>  (2125) 
0.915371

>  <HIPPO Compound ID>  (2125) 
151769

>  <gnina_score_min>  (2125) 
5.967

>  <name>  (2125) 
P143178

>  <exports>  (2125) 
['/opt/xchem-fragalysis-2/maxwin/BulkDock/OUTPUTS/openbind_d68ev3c_c2_elabs_1LOTQJ3.sdf', '/opt/xchem-fragalysis-2/maxwin/BulkDock/OUTPUTS/openbind_d68ev3c_c2_elabs_1LSYI5W.sdf']

$$$$
P143179
     RDKit          3D

 27 29  0  0  0  0  0  0  0  0999 V2000
    0.7225   -3.3901   35.9143 C   0  0  0  0  0  0  0  0  0  0  0  0
    1.0787   -4.2992   34.7254 C   0  0  0  0  0  0  0  0  0  0  0  0
    1.7447   -5.5600   35.3029 C   0  0  0  0  0  0  0  0  0  0  0  0
   -0.1715   -4.5762   33.8323 C   0  0  1  0  0  0  0  0  0  0  0  0
   -0.7442   -3.4609   32.8659 C   0  0  0  0  0  0  0  0  0  0  0  0
   -1.5287   -3.8280   32.0225 O   0  0  0  0  0  0  0  0  0  0  0  0
   -0.2956   -2.1460   33.2073 N   0  0  0  0  0  0  0  0  0  0  0  0
    0.9363   -1.7964   32.4169 C   0  0  0  0  0  0  0  0  0  0  0  0
   -0.7519   -0.7510   32.6900 C   0  0  1  0  0  0  0  0  0  0  0  0
   -0.4494    0.3704   33.7144 C   0  0  0  0  0  0  0  0  0  0  0  0
   -0.7463   -0.3498   31.1955 C   0  0  0  0  0  0  0  0  0  0  0  0
   -1.4384   -1.1298   30.2529 C   0  0  0  0  0  0  0  0  0  0  0  0
   -1.3473   -0.8582   28.8869 C   0  0  0  0  0  0  0  0  0  0  0  0
   -0.5894    0.2182   28.4412 C   0  0  0  0  0  0  0  0  0  0  0  0
    0.0844    1.0195   29.3579 C   0  0  0  0  0  0  0  0  0  0  0  0
    0.0099    0.7386   30.7249 C   0  0  0  0  0  0  0  0  0  0  0  0
   -0.0828   -5.8309   33.0651 N   0  0  0  0  0  0  0  0  0  0  0  0
   -0.6961   -7.0234   33.3539 C   0  0  0  0  0  0  0  0  0  0  0  0
   -1.3585   -7.4445   34.8871 S   0  0  0  0  0  0  0  0  0  0  0  0
   -0.6325   -7.8301   32.3234 N   0  0  0  0  0  0  0  0  0  0  0  0
    0.0972   -7.1975   31.3500 N   0  0  0  0  0  0  0  0  0  0  0  0
    0.4838   -6.0272   31.8206 C   0  0  0  0  0  0  0  0  0  0  0  0
    1.3758   -5.1542   31.1212 C   0  0  0  0  0  0  0  0  0  0  0  0
    2.6419   -4.7576   31.5034 C   0  0  0  0  0  0  0  0  0  0  0  0
    3.2717   -3.9225   30.5312 C   0  0  0  0  0  0  0  0  0  0  0  0
    2.4588   -3.7008   29.4430 C   0  0  0  0  0  0  0  0  0  0  0  0
    0.9623   -4.5106   29.5927 S   0  0  0  0  0  0  0  0  0  0  0  0
  1  2  1  0
  2  3  1  0
  4  2  1  6
  4  5  1  0
  5  6  2  0
  5  7  1  0
  7  8  1  0
  7  9  1  0
  9 10  1  1
  9 11  1  0
 11 12  2  0
 12 13  1  0
 13 14  2  0
 14 15  1  0
 15 16  2  0
  4 17  1  0
 17 18  1  0
 18 19  1  0
 18 20  2  0
 20 21  1  0
 21 22  2  0
 22 23  1  0
 23 24  2  0
 24 25  1  0
 25 26  2  0
 26 27  1  0
 16 11  1  0
 22 17  1  0
 27 23  1  0
M  END
>  <ref_mols>  (2126) 
B0454b

>  <gnina_score>  (2126) 
5.775

>  <smina_score_min>  (2126) 
-5.216

>  <ref_pdb>  (2126) 
B0454b

>  <inspiration_score>  (2126) 
None

>  <inchikey>  (2126) 
SKNGUVHQUNISKE-YOEHRIQHSA-N

>  <tags>  (2126) 
BulkDock Fragalysis export,openbind_d68ev3c_c2_elabs_scored,openbind_d68ev3c_c2_elabs_scored_4.5plus,openbind_d68ev3c_c2_elabs,openbind_d68ev3c_c2_elabs_scored_5plus,syndirella_product,openbind_d68ev3c_c2_elabs_scored_top80percent,syndirella_placed

>  <smiles>  (2126) 
CC(C)[C@@H](C(=O)N(C)[C@@H](C)c1ccccc1)n1c(S)nnc1-c1cccs1

>  <subsites>  (2126) 
None

>  <rmsd(smina/fragmenstein)>  (2126) 
0.691

>  <alias>  (2126) 
None

>  <energy_score>  (2126) 
-3.97156

>  <HIPPO Pose ID>  (2126) 
143179

>  <distance_score>  (2126) 
1.252811

>  <HIPPO Compound ID>  (2126) 
151770

>  <gnina_score_min>  (2126) 
5.881

>  <name>  (2126) 
P143179

>  <exports>  (2126) 
['/opt/xchem-fragalysis-2/maxwin/BulkDock/OUTPUTS/openbind_d68ev3c_c2_elabs_1LOTQJ3.sdf', '/opt/xchem-fragalysis-2/maxwin/BulkDock/OUTPUTS/openbind_d68ev3c_c2_elabs_1LSYI5W.sdf']

$$$$
P143180
     RDKit          3D

 27 29  0  0  0  0  0  0  0  0999 V2000
    1.5454   -5.4331   35.5207 C   0  0  0  0  0  0  0  0  0  0  0  0
    0.5766   -4.4067   34.9274 C   0  0  0  0  0  0  0  0  0  0  0  0
   -0.6649   -4.1873   35.7885 C   0  0  0  0  0  0  0  0  0  0  0  0
    0.3506   -4.5610   33.3929 C   0  0  2  0  0  0  0  0  0  0  0  0
   -0.4232   -3.3671   32.7377 C   0  0  0  0  0  0  0  0  0  0  0  0
   -1.3230   -3.6079   31.9705 O   0  0  0  0  0  0  0  0  0  0  0  0
    0.1702   -2.1114   33.1191 N   0  0  0  0  0  0  0  0  0  0  0  0
    1.3300   -1.7886   32.2178 C   0  0  0  0  0  0  0  0  0  0  0  0
   -0.2247   -0.6598   32.7611 C   0  0  0  0  0  0  0  0  0  0  0  0
   -0.4561   -0.1946   31.3098 C   0  0  0  0  0  0  0  0  0  0  0  0
   -1.3530   -0.8909   30.4807 C   0  0  0  0  0  0  0  0  0  0  0  0
   -1.4228   -0.6274   29.1102 C   0  0  0  0  0  0  0  0  0  0  0  0
   -0.6502    0.3817   28.5499 C   0  0  0  0  0  0  0  0  0  0  0  0
    0.1920    1.1343   29.3623 C   0  0  0  0  0  0  0  0  0  0  0  0
    0.2882    0.8539   30.7306 C   0  0  0  0  0  0  0  0  0  0  0  0
    1.3653    1.8411   31.6553 Cl  0  0  0  0  0  0  0  0  0  0  0  0
    0.0190   -5.8084   32.6917 N   0  0  0  0  0  0  0  0  0  0  0  0
   -0.6486   -6.9490   33.0473 C   0  0  0  0  0  0  0  0  0  0  0  0
   -1.2457   -7.3788   34.5979 S   0  0  0  0  0  0  0  0  0  0  0  0
   -0.7713   -7.7565   32.0183 N   0  0  0  0  0  0  0  0  0  0  0  0
   -0.1902   -7.1604   30.9367 N   0  0  0  0  0  0  0  0  0  0  0  0
    0.3005   -6.0039   31.3291 C   0  0  0  0  0  0  0  0  0  0  0  0
    0.9434   -5.0819   30.4312 C   0  0  0  0  0  0  0  0  0  0  0  0
    0.3315   -4.2407   29.5225 C   0  0  0  0  0  0  0  0  0  0  0  0
    1.2597   -3.4087   28.8305 C   0  0  0  0  0  0  0  0  0  0  0  0
    2.5600   -3.6894   29.1760 C   0  0  0  0  0  0  0  0  0  0  0  0
    2.6426   -4.9059   30.3695 S   0  0  0  0  0  0  0  0  0  0  0  0
  1  2  1  0
  2  3  1  0
  4  2  1  1
  4  5  1  0
  5  6  2  0
  5  7  1  0
  7  8  1  0
  7  9  1  0
  9 10  1  0
 10 11  2  0
 11 12  1  0
 12 13  2  0
 13 14  1  0
 14 15  2  0
 15 16  1  0
  4 17  1  0
 17 18  1  0
 18 19  1  0
 18 20  2  0
 20 21  1  0
 21 22  2  0
 22 23  1  0
 23 24  2  0
 24 25  1  0
 25 26  2  0
 26 27  1  0
 15 10  1  0
 22 17  1  0
 27 23  1  0
M  END
>  <ref_mols>  (2127) 
B0454b

>  <gnina_score>  (2127) 
5.941

>  <smina_score_min>  (2127) 
-4.98

>  <ref_pdb>  (2127) 
B0454b

>  <inspiration_score>  (2127) 
None

>  <inchikey>  (2127) 
YIGHDGBBCKNKGP-MRXNPFEDSA-N

>  <tags>  (2127) 
BulkDock Fragalysis export,openbind_d68ev3c_c2_elabs_scored,openbind_d68ev3c_c2_elabs_scored_4.5plus,openbind_d68ev3c_c2_elabs,openbind_d68ev3c_c2_elabs_scored_5plus,syndirella_product,openbind_d68ev3c_c2_elabs_scored_top80percent,syndirella_placed

>  <smiles>  (2127) 
CC(C)[C@H](C(=O)N(C)Cc1ccccc1Cl)n1c(S)nnc1-c1cccs1

>  <subsites>  (2127) 
None

>  <rmsd(smina/fragmenstein)>  (2127) 
0.594

>  <alias>  (2127) 
None

>  <energy_score>  (2127) 
-0.097337

>  <HIPPO Pose ID>  (2127) 
143180

>  <distance_score>  (2127) 
1.226723

>  <HIPPO Compound ID>  (2127) 
151772

>  <gnina_score_min>  (2127) 
5.974

>  <name>  (2127) 
P143180

>  <exports>  (2127) 
['/opt/xchem-fragalysis-2/maxwin/BulkDock/OUTPUTS/openbind_d68ev3c_c2_elabs_1LOTQJ3.sdf', '/opt/xchem-fragalysis-2/maxwin/BulkDock/OUTPUTS/openbind_d68ev3c_c2_elabs_1LSYI5W.sdf']

$$$$
P143182
     RDKit          3D

 27 30  0  0  0  0  0  0  0  0999 V2000
    4.9361   -1.4635   30.0455 C   0  0  0  0  0  0  0  0  0  0  0  0
    4.7832   -2.5733   29.0198 C   0  0  0  0  0  0  0  0  0  0  0  0
    3.4076   -2.7902   28.7162 O   0  0  0  0  0  0  0  0  0  0  0  0
    2.6804   -3.6546   29.4792 C   0  0  0  0  0  0  0  0  0  0  0  0
    1.3592   -3.8162   29.0667 C   0  0  0  0  0  0  0  0  0  0  0  0
    0.4935   -4.6857   29.7360 C   0  0  0  0  0  0  0  0  0  0  0  0
    0.9239   -5.3885   30.8579 C   0  0  0  0  0  0  0  0  0  0  0  0
    0.0226   -6.2707   31.5971 C   0  0  0  0  0  0  0  0  0  0  0  0
   -0.4506   -7.4425   31.2067 N   0  0  0  0  0  0  0  0  0  0  0  0
   -1.0718   -8.0334   32.2870 N   0  0  0  0  0  0  0  0  0  0  0  0
   -0.9927   -7.1929   33.2900 C   0  0  0  0  0  0  0  0  0  0  0  0
   -1.3864   -7.5197   34.9316 S   0  0  0  0  0  0  0  0  0  0  0  0
   -0.4540   -6.0163   32.8710 N   0  0  0  0  0  0  0  0  0  0  0  0
   -0.3997   -4.7496   33.5895 C   0  0  0  0  0  0  0  0  0  0  0  0
   -0.8618   -3.6054   32.6995 C   0  0  0  0  0  0  0  0  0  0  0  0
   -1.5814   -3.7650   31.7762 O   0  0  0  0  0  0  0  0  0  0  0  0
   -0.1520   -2.3627   33.1818 N   0  0  0  0  0  0  0  0  0  0  0  0
    1.1330   -1.9500   32.7858 C   0  0  0  0  0  0  0  0  0  0  0  0
   -0.0706   -1.0521   32.6109 C   0  0  1  0  0  0  0  0  0  0  0  0
   -0.2451   -0.7071   31.1416 C   0  0  0  0  0  0  0  0  0  0  0  0
   -1.3061   -1.1525   30.3442 C   0  0  0  0  0  0  0  0  0  0  0  0
   -1.3213   -0.9357   28.9623 C   0  0  0  0  0  0  0  0  0  0  0  0
   -0.3017   -0.2136   28.3549 C   0  0  0  0  0  0  0  0  0  0  0  0
    0.7407    0.2857   29.1209 C   0  0  0  0  0  0  0  0  0  0  0  0
    0.7626    0.0424   30.4946 C   0  0  0  0  0  0  0  0  0  0  0  0
    2.2358   -5.1868   31.3019 C   0  0  0  0  0  0  0  0  0  0  0  0
    3.1166   -4.3431   30.6070 C   0  0  0  0  0  0  0  0  0  0  0  0
  1  2  1  0
  2  3  1  0
  3  4  1  0
  4  5  2  0
  5  6  1  0
  6  7  2  0
  7  8  1  0
  8  9  2  0
  9 10  1  0
 10 11  2  0
 11 12  1  0
 11 13  1  0
 13 14  1  0
 14 15  1  0
 15 16  2  0
 15 17  1  0
 17 18  1  0
 18 19  1  0
 19 20  1  6
 20 21  2  0
 21 22  1  0
 22 23  2  0
 23 24  1  0
 24 25  2  0
  7 26  1  0
 26 27  2  0
 27  4  1  0
 13  8  1  0
 19 17  1  0
 25 20  1  0
M  END
>  <ref_mols>  (2128) 
B0454b

>  <gnina_score>  (2128) 
5.459

>  <smina_score_min>  (2128) 
-5.307

>  <ref_pdb>  (2128) 
B0454b

>  <inspiration_score>  (2128) 
None

>  <inchikey>  (2128) 
ULKHSVBXCRKRRS-SBUREZEXSA-N

>  <tags>  (2128) 
BulkDock Fragalysis export,openbind_d68ev3c_c2_elabs_scored,openbind_d68ev3c_c2_elabs_scored_4.5plus,openbind_d68ev3c_c2_elabs,openbind_d68ev3c_c2_elabs_scored_5plus,syndirella_product,openbind_d68ev3c_c2_elabs_scored_top80percent,syndirella_placed

>  <smiles>  (2128) 
CCOc1ccc(-c2nnc(S)n2CC(=O)N2C[C@H]2c2ccccc2)cc1

>  <subsites>  (2128) 
None

>  <rmsd(smina/fragmenstein)>  (2128) 
0.602

>  <alias>  (2128) 
None

>  <energy_score>  (2128) 
-40.664124

>  <HIPPO Pose ID>  (2128) 
143182

>  <distance_score>  (2128) 
0.874313

>  <HIPPO Compound ID>  (2128) 
151774

>  <gnina_score_min>  (2128) 
5.451

>  <name>  (2128) 
P143182

>  <exports>  (2128) 
['/opt/xchem-fragalysis-2/maxwin/BulkDock/OUTPUTS/openbind_d68ev3c_c2_elabs_1LOTQJ3.sdf', '/opt/xchem-fragalysis-2/maxwin/BulkDock/OUTPUTS/openbind_d68ev3c_c2_elabs_1LSYI5W.sdf']

$$$$
P143183
     RDKit          3D

 27 30  0  0  0  0  0  0  0  0999 V2000
    4.7124   -3.6149   27.1533 C   0  0  0  0  0  0  0  0  0  0  0  0
    4.1133   -3.0609   28.3198 O   0  0  0  0  0  0  0  0  0  0  0  0
    3.1976   -3.8285   28.9775 C   0  0  0  0  0  0  0  0  0  0  0  0
    2.6278   -3.2396   30.1019 C   0  0  0  0  0  0  0  0  0  0  0  0
    1.6693   -3.9114   30.8811 C   0  0  0  0  0  0  0  0  0  0  0  0
    1.2564   -5.2072   30.5702 C   0  0  0  0  0  0  0  0  0  0  0  0
    0.3211   -6.0533   31.3603 C   0  0  0  0  0  0  0  0  0  0  0  0
   -0.0710   -7.2698   30.9854 N   0  0  0  0  0  0  0  0  0  0  0  0
   -0.7241   -7.8803   32.0267 N   0  0  0  0  0  0  0  0  0  0  0  0
   -0.7473   -7.0264   33.0170 C   0  0  0  0  0  0  0  0  0  0  0  0
   -1.2332   -7.3861   34.6318 S   0  0  0  0  0  0  0  0  0  0  0  0
   -0.2423   -5.8199   32.6096 N   0  0  0  0  0  0  0  0  0  0  0  0
   -0.3946   -4.5500   33.3011 C   0  0  0  0  0  0  0  0  0  0  0  0
   -1.3096   -3.6223   32.5000 C   0  0  0  0  0  0  0  0  0  0  0  0
   -2.0856   -4.0362   31.7301 O   0  0  0  0  0  0  0  0  0  0  0  0
   -0.9583   -2.1563   32.8887 N   0  0  0  0  0  0  0  0  0  0  0  0
   -1.4110   -0.9381   32.3549 N   0  0  0  0  0  0  0  0  0  0  0  0
   -0.2989    0.0567   32.3634 C   0  0  0  0  0  0  0  0  0  0  0  0
    0.3313   -0.0214   31.0164 C   0  0  0  0  0  0  0  0  0  0  0  0
    1.5424    0.5010   30.6073 C   0  0  0  0  0  0  0  0  0  0  0  0
    1.8931    0.3315   29.2748 C   0  0  0  0  0  0  0  0  0  0  0  0
    1.0323   -0.3296   28.3860 C   0  0  0  0  0  0  0  0  0  0  0  0
   -0.1975   -0.8357   28.8079 C   0  0  0  0  0  0  0  0  0  0  0  0
   -0.5274   -0.6764   30.1376 C   0  0  0  0  0  0  0  0  0  0  0  0
   -1.7629   -1.0496   30.8885 C   0  0  0  0  0  0  0  0  0  0  0  0
    1.8483   -5.7738   29.4278 C   0  0  0  0  0  0  0  0  0  0  0  0
    2.8002   -5.1098   28.6374 C   0  0  0  0  0  0  0  0  0  0  0  0
  1  2  1  0
  2  3  1  0
  3  4  2  0
  4  5  1  0
  5  6  2  0
  6  7  1  0
  7  8  2  0
  8  9  1  0
  9 10  2  0
 10 11  1  0
 10 12  1  0
 12 13  1  0
 13 14  1  0
 14 15  2  0
 14 16  1  0
 16 17  1  0
 17 18  1  0
 18 19  1  0
 19 20  2  0
 20 21  1  0
 21 22  2  0
 22 23  1  0
 23 24  2  0
 24 25  1  0
  6 26  1  0
 26 27  2  0
 27  3  1  0
 12  7  1  0
 25 17  1  0
 24 19  1  0
M  END
>  <ref_mols>  (2129) 
B0454b

>  <gnina_score>  (2129) 
5.465

>  <smina_score_min>  (2129) 
-6.057

>  <ref_pdb>  (2129) 
B0454b

>  <inspiration_score>  (2129) 
None

>  <inchikey>  (2129) 
ULHTXUJULCWILL-UHFFFAOYSA-N

>  <tags>  (2129) 
BulkDock Fragalysis export,openbind_d68ev3c_c2_elabs_scored,openbind_d68ev3c_c2_elabs_scored_4.5plus,openbind_d68ev3c_c2_elabs,openbind_d68ev3c_c2_elabs_scored_5plus,syndirella_product,openbind_d68ev3c_c2_elabs_scored_top80percent,syndirella_placed

>  <smiles>  (2129) 
COc1ccc(-c2nnc(S)n2CC(=O)NN2Cc3ccccc3C2)cc1

>  <subsites>  (2129) 
None

>  <rmsd(smina/fragmenstein)>  (2129) 
0.872

>  <alias>  (2129) 
None

>  <energy_score>  (2129) 
-9.600372

>  <HIPPO Pose ID>  (2129) 
143183

>  <distance_score>  (2129) 
1.498754

>  <HIPPO Compound ID>  (2129) 
151776

>  <gnina_score_min>  (2129) 
5.252

>  <name>  (2129) 
P143183

>  <exports>  (2129) 
['/opt/xchem-fragalysis-2/maxwin/BulkDock/OUTPUTS/openbind_d68ev3c_c2_elabs_1LOTQJ3.sdf', '/opt/xchem-fragalysis-2/maxwin/BulkDock/OUTPUTS/openbind_d68ev3c_c2_elabs_1LSYI5W.sdf']

$$$$
P143184
     RDKit          3D

 27 29  0  0  0  0  0  0  0  0999 V2000
    4.9151   -2.4374   29.2926 C   0  0  0  0  0  0  0  0  0  0  0  0
    3.6249   -2.7726   28.7996 O   0  0  0  0  0  0  0  0  0  0  0  0
    2.8587   -3.5878   29.5820 C   0  0  0  0  0  0  0  0  0  0  0  0
    1.5422   -3.7442   29.1585 C   0  0  0  0  0  0  0  0  0  0  0  0
    0.6481   -4.5541   29.8671 C   0  0  0  0  0  0  0  0  0  0  0  0
    1.0529   -5.2242   31.0227 C   0  0  0  0  0  0  0  0  0  0  0  0
    0.1250   -6.1273   31.7000 C   0  0  0  0  0  0  0  0  0  0  0  0
   -0.5715   -7.0573   31.0588 N   0  0  0  0  0  0  0  0  0  0  0  0
   -1.2920   -7.7902   31.9674 N   0  0  0  0  0  0  0  0  0  0  0  0
   -1.0560   -7.2683   33.1429 C   0  0  0  0  0  0  0  0  0  0  0  0
   -1.6860   -7.7454   34.6732 S   0  0  0  0  0  0  0  0  0  0  0  0
   -0.1982   -6.2022   33.0373 N   0  0  0  0  0  0  0  0  0  0  0  0
    0.1687   -5.4141   34.2034 C   0  0  0  0  0  0  0  0  0  0  0  0
    1.0747   -4.2360   34.0406 C   0  0  0  0  0  0  0  0  0  0  0  0
    2.2115   -4.2853   34.3227 O   0  0  0  0  0  0  0  0  0  0  0  0
    0.2029   -3.0321   33.5556 N   0  0  0  0  0  0  0  0  0  0  0  0
    0.5178   -1.6984   33.4199 N   0  0  0  0  0  0  0  0  0  0  0  0
    1.9017   -1.4890   33.0155 C   0  0  0  0  0  0  0  0  0  0  0  0
   -0.4690   -0.8986   32.6842 C   0  0  0  0  0  0  0  0  0  0  0  0
   -0.3900   -0.8603   31.1755 C   0  0  0  0  0  0  0  0  0  0  0  0
   -1.2478   -1.6339   30.3847 C   0  0  0  0  0  0  0  0  0  0  0  0
   -1.2381   -1.4974   28.9956 C   0  0  0  0  0  0  0  0  0  0  0  0
   -0.3647   -0.6002   28.3867 C   0  0  0  0  0  0  0  0  0  0  0  0
    0.5163    0.1512   29.1535 C   0  0  0  0  0  0  0  0  0  0  0  0
    0.4954    0.0291   30.5403 C   0  0  0  0  0  0  0  0  0  0  0  0
    2.3811   -5.0803   31.4273 C   0  0  0  0  0  0  0  0  0  0  0  0
    3.2776   -4.2629   30.7227 C   0  0  0  0  0  0  0  0  0  0  0  0
  1  2  1  0
  2  3  1  0
  3  4  2  0
  4  5  1  0
  5  6  2  0
  6  7  1  0
  7  8  2  0
  8  9  1  0
  9 10  2  0
 10 11  1  0
 10 12  1  0
 12 13  1  0
 13 14  1  0
 14 15  2  0
 14 16  1  0
 16 17  1  0
 17 18  1  0
 17 19  1  0
 19 20  1  0
 20 21  2  0
 21 22  1  0
 22 23  2  0
 23 24  1  0
 24 25  2  0
  6 26  1  0
 26 27  2  0
 27  3  1  0
 12  7  1  0
 25 20  1  0
M  END
>  <ref_mols>  (2130) 
B0454b

>  <gnina_score>  (2130) 
5.293

>  <smina_score_min>  (2130) 
-5.05

>  <ref_pdb>  (2130) 
B0454b

>  <inspiration_score>  (2130) 
None

>  <inchikey>  (2130) 
CVHMXNLGFLFAJM-UHFFFAOYSA-N

>  <tags>  (2130) 
BulkDock Fragalysis export,openbind_d68ev3c_c2_elabs_scored,openbind_d68ev3c_c2_elabs_scored_4.5plus,openbind_d68ev3c_c2_elabs,openbind_d68ev3c_c2_elabs_scored_5plus,syndirella_product,openbind_d68ev3c_c2_elabs_scored_top80percent,syndirella_placed

>  <smiles>  (2130) 
COc1ccc(-c2nnc(S)n2CC(=O)NN(C)Cc2ccccc2)cc1

>  <subsites>  (2130) 
None

>  <rmsd(smina/fragmenstein)>  (2130) 
1.311

>  <alias>  (2130) 
None

>  <energy_score>  (2130) 
-2.250064

>  <HIPPO Pose ID>  (2130) 
143184

>  <distance_score>  (2130) 
1.364692

>  <HIPPO Compound ID>  (2130) 
151777

>  <gnina_score_min>  (2130) 
5.236

>  <name>  (2130) 
P143184

>  <exports>  (2130) 
['/opt/xchem-fragalysis-2/maxwin/BulkDock/OUTPUTS/openbind_d68ev3c_c2_elabs_1LOTQJ3.sdf', '/opt/xchem-fragalysis-2/maxwin/BulkDock/OUTPUTS/openbind_d68ev3c_c2_elabs_1LSYI5W.sdf']

$$$$
P143191
     RDKit          3D

 27 30  0  0  0  0  0  0  0  0999 V2000
    3.5984   -2.6333   28.8083 C   0  0  0  0  0  0  0  0  0  0  0  0
    2.6933   -3.5839   29.5341 C   0  0  0  0  0  0  0  0  0  0  0  0
    1.4101   -3.8504   29.0510 C   0  0  0  0  0  0  0  0  0  0  0  0
    0.5712   -4.7573   29.7049 C   0  0  0  0  0  0  0  0  0  0  0  0
    0.9969   -5.4098   30.8579 C   0  0  0  0  0  0  0  0  0  0  0  0
    0.1041   -6.3016   31.5914 C   0  0  0  0  0  0  0  0  0  0  0  0
   -0.3865   -7.4655   31.2040 N   0  0  0  0  0  0  0  0  0  0  0  0
   -1.0207   -8.0402   32.2870 N   0  0  0  0  0  0  0  0  0  0  0  0
   -0.9378   -7.1934   33.2852 C   0  0  0  0  0  0  0  0  0  0  0  0
   -1.3603   -7.4966   34.9232 S   0  0  0  0  0  0  0  0  0  0  0  0
   -0.3704   -6.0341   32.8615 N   0  0  0  0  0  0  0  0  0  0  0  0
   -0.3720   -4.7277   33.5029 C   0  0  0  0  0  0  0  0  0  0  0  0
   -1.0667   -3.7435   32.5604 C   0  0  0  0  0  0  0  0  0  0  0  0
   -2.1500   -3.9382   32.1690 O   0  0  0  0  0  0  0  0  0  0  0  0
   -0.0578   -2.6208   32.2070 N   0  0  0  0  0  0  0  0  0  0  0  0
   -0.1350   -1.6072   31.2707 C   0  0  0  0  0  0  0  0  0  0  0  0
   -1.2284   -1.5807   30.3874 C   0  0  0  0  0  0  0  0  0  0  0  0
   -1.2419   -0.7362   29.2856 C   0  0  0  0  0  0  0  0  0  0  0  0
   -0.1660    0.1007   29.1177 C   0  0  0  0  0  0  0  0  0  0  0  0
    0.9098    0.0843   30.0008 C   0  0  0  0  0  0  0  0  0  0  0  0
    0.9472   -0.7571   31.0948 C   0  0  0  0  0  0  0  0  0  0  0  0
    1.9538    1.0316   29.5245 C   0  0  0  0  0  0  0  0  0  0  0  0
    1.3073    1.8444   28.4725 N   0  0  0  0  0  0  0  0  0  0  0  0
    0.9215    3.1580   28.9930 C   0  0  0  0  0  0  0  0  0  0  0  0
    0.1031    1.0884   28.0357 C   0  0  0  0  0  0  0  0  0  0  0  0
    2.2755   -5.1250   31.3562 C   0  0  0  0  0  0  0  0  0  0  0  0
    3.1240   -4.2333   30.6924 C   0  0  0  0  0  0  0  0  0  0  0  0
  1  2  1  0
  2  3  2  0
  3  4  1  0
  4  5  2  0
  5  6  1  0
  6  7  2  0
  7  8  1  0
  8  9  2  0
  9 10  1  0
  9 11  1  0
 11 12  1  0
 12 13  1  0
 13 14  2  0
 13 15  1  0
 15 16  1  0
 16 17  2  0
 17 18  1  0
 18 19  2  0
 19 20  1  0
 20 21  2  0
 20 22  1  0
 22 23  1  0
 23 24  1  0
 23 25  1  0
  5 26  1  0
 26 27  2  0
 27  2  1  0
 11  6  1  0
 21 16  1  0
 25 19  1  0
M  END
>  <ref_mols>  (2131) 
B0454b

>  <gnina_score>  (2131) 
5.612

>  <smina_score_min>  (2131) 
-5.705

>  <ref_pdb>  (2131) 
B0454b

>  <inspiration_score>  (2131) 
None

>  <inchikey>  (2131) 
FPIGBBPETJNSDA-UHFFFAOYSA-N

>  <tags>  (2131) 
BulkDock Fragalysis export,openbind_d68ev3c_c2_elabs_scored,openbind_d68ev3c_c2_elabs_scored_4.5plus,openbind_d68ev3c_c2_elabs,openbind_d68ev3c_c2_elabs_scored_5plus,syndirella_product,openbind_d68ev3c_c2_elabs_scored_top80percent,syndirella_placed

>  <smiles>  (2131) 
Cc1ccc(-c2nnc(S)n2CC(=O)Nc2ccc3c(c2)CN(C)C3)cc1

>  <subsites>  (2131) 
None

>  <rmsd(smina/fragmenstein)>  (2131) 
0.63

>  <alias>  (2131) 
None

>  <energy_score>  (2131) 
-16.66782

>  <HIPPO Pose ID>  (2131) 
143191

>  <distance_score>  (2131) 
1.377659

>  <HIPPO Compound ID>  (2131) 
151793

>  <gnina_score_min>  (2131) 
5.483

>  <name>  (2131) 
P143191

>  <exports>  (2131) 
['/opt/xchem-fragalysis-2/maxwin/BulkDock/OUTPUTS/openbind_d68ev3c_c2_elabs_1LOTQJ3.sdf', '/opt/xchem-fragalysis-2/maxwin/BulkDock/OUTPUTS/openbind_d68ev3c_c2_elabs_1LSYI5W.sdf']

$$$$
P143201
     RDKit          3D

 27 30  0  0  0  0  0  0  0  0999 V2000
    1.9217   -3.0140   28.4581 C   0  0  0  0  0  0  0  0  0  0  0  0
    2.1193   -3.8217   29.7023 C   0  0  0  0  0  0  0  0  0  0  0  0
    3.2887   -3.6575   30.4524 C   0  0  0  0  0  0  0  0  0  0  0  0
    3.4549   -4.3527   31.6436 C   0  0  0  0  0  0  0  0  0  0  0  0
    2.4595   -5.2299   32.0775 C   0  0  0  0  0  0  0  0  0  0  0  0
    1.2990   -5.4406   31.3160 C   0  0  0  0  0  0  0  0  0  0  0  0
    0.2406   -6.3012   31.8407 C   0  0  0  0  0  0  0  0  0  0  0  0
   -0.2401   -7.4242   31.3346 N   0  0  0  0  0  0  0  0  0  0  0  0
   -1.0166   -8.0269   32.3072 N   0  0  0  0  0  0  0  0  0  0  0  0
   -1.0191   -7.2301   33.3487 C   0  0  0  0  0  0  0  0  0  0  0  0
   -1.5591   -7.5958   34.9369 S   0  0  0  0  0  0  0  0  0  0  0  0
   -0.4049   -6.0615   33.0379 N   0  0  0  0  0  0  0  0  0  0  0  0
   -0.4030   -4.8165   33.7905 C   0  0  0  0  0  0  0  0  0  0  0  0
   -0.7529   -3.6393   32.8858 C   0  0  0  0  0  0  0  0  0  0  0  0
   -1.2660   -3.7728   31.8305 O   0  0  0  0  0  0  0  0  0  0  0  0
   -0.2254   -2.3877   33.5724 N   0  0  0  0  0  0  0  0  0  0  0  0
    1.2600   -2.1372   33.2299 C   0  0  0  0  0  0  0  0  0  0  0  0
    1.0545   -0.7800   33.8664 C   0  0  0  0  0  0  0  0  0  0  0  0
   -0.2905   -0.9057   33.1493 C   0  0  1  0  0  0  0  0  0  0  0  0
   -0.3551   -0.5166   31.5654 C   0  0  0  0  0  0  0  0  0  0  0  0
    0.5568    0.4095   31.0058 C   0  0  0  0  0  0  0  0  0  0  0  0
    0.4886    0.8264   29.6757 C   0  0  0  0  0  0  0  0  0  0  0  0
   -0.5047    0.3209   28.8548 C   0  0  0  0  0  0  0  0  0  0  0  0
   -0.7665    1.0363   27.3249 Cl  0  0  0  0  0  0  0  0  0  0  0  0
   -1.3671   -0.6556   29.3247 C   0  0  0  0  0  0  0  0  0  0  0  0
   -1.3104   -1.0392   30.6705 C   0  0  0  0  0  0  0  0  0  0  0  0
    1.1442   -4.7423   30.1179 C   0  0  0  0  0  0  0  0  0  0  0  0
  1  2  1  0
  2  3  2  0
  3  4  1  0
  4  5  2  0
  5  6  1  0
  6  7  1  0
  7  8  2  0
  8  9  1  0
  9 10  2  0
 10 11  1  0
 10 12  1  0
 12 13  1  0
 13 14  1  0
 14 15  2  0
 14 16  1  0
 16 17  1  0
 17 18  1  0
 18 19  1  0
 19 20  1  6
 20 21  2  0
 21 22  1  0
 22 23  2  0
 23 24  1  0
 23 25  1  0
 25 26  2  0
  6 27  2  0
 27  2  1  0
 12  7  1  0
 19 16  1  0
 26 20  1  0
M  END
>  <ref_mols>  (2132) 
B0454b

>  <gnina_score>  (2132) 
5.751

>  <smina_score_min>  (2132) 
-4.93

>  <ref_pdb>  (2132) 
B0454b

>  <inspiration_score>  (2132) 
None

>  <inchikey>  (2132) 
LYXVZEITALVXJY-KRWDZBQOSA-N

>  <tags>  (2132) 
BulkDock Fragalysis export,openbind_d68ev3c_c2_elabs_scored,openbind_d68ev3c_c2_elabs_scored_4.5plus,openbind_d68ev3c_c2_elabs,openbind_d68ev3c_c2_elabs_scored_5plus,syndirella_product,openbind_d68ev3c_c2_elabs_scored_top80percent,syndirella_placed

>  <smiles>  (2132) 
Cc1cccc(-c2nnc(S)n2CC(=O)N2CC[C@H]2c2ccc(Cl)cc2)c1

>  <subsites>  (2132) 
None

>  <rmsd(smina/fragmenstein)>  (2132) 
0.779

>  <alias>  (2132) 
None

>  <energy_score>  (2132) 
-6.675474

>  <HIPPO Pose ID>  (2132) 
143201

>  <distance_score>  (2132) 
1.112697

>  <HIPPO Compound ID>  (2132) 
151821

>  <gnina_score_min>  (2132) 
5.51

>  <name>  (2132) 
P143201

>  <exports>  (2132) 
['/opt/xchem-fragalysis-2/maxwin/BulkDock/OUTPUTS/openbind_d68ev3c_c2_elabs_1LOTQJ3.sdf', '/opt/xchem-fragalysis-2/maxwin/BulkDock/OUTPUTS/openbind_d68ev3c_c2_elabs_1LSYI5W.sdf']

$$$$
P143207
     RDKit          3D

 27 30  0  0  0  0  0  0  0  0999 V2000
    0.8133   -7.4277   38.3686 C   0  0  0  0  0  0  0  0  0  0  0  0
    0.3617   -6.5414   37.2445 C   0  0  0  0  0  0  0  0  0  0  0  0
    0.2769   -5.1586   37.4328 C   0  0  0  0  0  0  0  0  0  0  0  0
   -0.1689   -4.3344   36.4018 C   0  0  0  0  0  0  0  0  0  0  0  0
   -0.5229   -4.8859   35.1697 C   0  0  0  0  0  0  0  0  0  0  0  0
   -0.4456   -6.2656   34.9558 C   0  0  0  0  0  0  0  0  0  0  0  0
   -0.7700   -6.8681   33.6628 C   0  0  0  0  0  0  0  0  0  0  0  0
   -1.6380   -7.8422   33.4613 N   0  0  0  0  0  0  0  0  0  0  0  0
   -1.5671   -8.2392   32.1512 N   0  0  0  0  0  0  0  0  0  0  0  0
   -0.6458   -7.5142   31.5806 C   0  0  0  0  0  0  0  0  0  0  0  0
   -0.0700   -7.7901   29.9944 S   0  0  0  0  0  0  0  0  0  0  0  0
   -0.1418   -6.6027   32.4628 N   0  0  0  0  0  0  0  0  0  0  0  0
    0.9290   -5.6574   32.2384 C   0  0  0  0  0  0  0  0  0  0  0  0
    0.4195   -4.4188   31.5241 C   0  0  0  0  0  0  0  0  0  0  0  0
   -0.0699   -4.4636   30.4559 O   0  0  0  0  0  0  0  0  0  0  0  0
    0.6598   -3.2361   32.4457 N   0  0  0  0  0  0  0  0  0  0  0  0
    2.0094   -2.6127   32.1940 C   0  0  0  0  0  0  0  0  0  0  0  0
    2.3427   -1.5172   33.1835 C   0  0  0  0  0  0  0  0  0  0  0  0
    0.9888   -0.9221   33.3427 C   0  0  0  0  0  0  0  0  0  0  0  0
    0.2455   -1.7608   32.3105 C   0  0  1  0  0  0  0  0  0  0  0  0
    0.0549   -1.1778   30.9012 C   0  0  0  0  0  0  0  0  0  0  0  0
   -0.9661   -1.6780   30.0753 C   0  0  0  0  0  0  0  0  0  0  0  0
   -1.1408   -1.2023   28.7761 C   0  0  0  0  0  0  0  0  0  0  0  0
   -0.3193   -0.1924   28.2907 C   0  0  0  0  0  0  0  0  0  0  0  0
    0.6821    0.3374   29.0962 C   0  0  0  0  0  0  0  0  0  0  0  0
    0.8654   -0.1472   30.3925 C   0  0  0  0  0  0  0  0  0  0  0  0
   -0.0329   -7.0863   36.0135 C   0  0  0  0  0  0  0  0  0  0  0  0
  1  2  1  0
  2  3  2  0
  3  4  1  0
  4  5  2  0
  5  6  1  0
  6  7  1  0
  7  8  2  0
  8  9  1  0
  9 10  2  0
 10 11  1  0
 10 12  1  0
 12 13  1  0
 13 14  1  0
 14 15  2  0
 14 16  1  0
 16 17  1  0
 17 18  1  0
 18 19  1  0
 19 20  1  0
 20 21  1  6
 21 22  2  0
 22 23  1  0
 23 24  2  0
 24 25  1  0
 25 26  2  0
  6 27  2  0
 27  2  1  0
 12  7  1  0
 20 16  1  0
 26 21  1  0
M  END
>  <ref_mols>  (2133) 
B0454b

>  <gnina_score>  (2133) 
5.873

>  <smina_score_min>  (2133) 
-5.877

>  <ref_pdb>  (2133) 
B0454b

>  <inspiration_score>  (2133) 
None

>  <inchikey>  (2133) 
HURBQSRINOYTMH-SFHVURJKSA-N

>  <tags>  (2133) 
BulkDock Fragalysis export,openbind_d68ev3c_c2_elabs_scored,openbind_d68ev3c_c2_elabs_scored_4.5plus,openbind_d68ev3c_c2_elabs,openbind_d68ev3c_c2_elabs_scored_5plus,syndirella_product,openbind_d68ev3c_c2_elabs_scored_top80percent,syndirella_placed

>  <smiles>  (2133) 
Cc1cccc(-c2nnc(S)n2CC(=O)N2CCC[C@H]2c2ccccc2)c1

>  <subsites>  (2133) 
None

>  <rmsd(smina/fragmenstein)>  (2133) 
0.674

>  <alias>  (2133) 
None

>  <energy_score>  (2133) 
-13.014474

>  <HIPPO Pose ID>  (2133) 
143207

>  <distance_score>  (2133) 
0.911319

>  <HIPPO Compound ID>  (2133) 
151863

>  <gnina_score_min>  (2133) 
6.057

>  <name>  (2133) 
P143207

>  <exports>  (2133) 
['/opt/xchem-fragalysis-2/maxwin/BulkDock/OUTPUTS/openbind_d68ev3c_c2_elabs_1LOTQJ3.sdf', '/opt/xchem-fragalysis-2/maxwin/BulkDock/OUTPUTS/openbind_d68ev3c_c2_elabs_1LSYI5W.sdf']

$$$$
P143208
     RDKit          3D

 27 30  0  0  0  0  0  0  0  0999 V2000
    0.7736    2.8715   28.4817 C   0  0  0  0  0  0  0  0  0  0  0  0
    1.1409    1.4816   28.2048 N   0  0  0  0  0  0  0  0  0  0  0  0
   -0.0680    0.6839   27.9123 C   0  0  0  0  0  0  0  0  0  0  0  0
   -0.3503   -0.0731   29.1555 C   0  0  0  0  0  0  0  0  0  0  0  0
   -1.4443   -0.8511   29.4271 C   0  0  0  0  0  0  0  0  0  0  0  0
   -1.4266   -1.5788   30.6034 C   0  0  0  0  0  0  0  0  0  0  0  0
   -0.2957   -1.5639   31.4422 C   0  0  0  0  0  0  0  0  0  0  0  0
   -0.1643   -2.5856   32.3605 N   0  0  0  0  0  0  0  0  0  0  0  0
   -1.0735   -3.7994   32.6459 C   0  0  0  0  0  0  0  0  0  0  0  0
   -2.1137   -4.0844   32.2036 O   0  0  0  0  0  0  0  0  0  0  0  0
   -0.3481   -4.7478   33.5963 C   0  0  0  0  0  0  0  0  0  0  0  0
   -0.3188   -6.0540   32.9508 N   0  0  0  0  0  0  0  0  0  0  0  0
   -0.9048   -7.2114   33.3526 C   0  0  0  0  0  0  0  0  0  0  0  0
   -1.3604   -7.5203   34.9795 S   0  0  0  0  0  0  0  0  0  0  0  0
   -0.9843   -8.0467   32.3447 N   0  0  0  0  0  0  0  0  0  0  0  0
   -0.3476   -7.4609   31.2698 N   0  0  0  0  0  0  0  0  0  0  0  0
    0.1397   -6.3000   31.6691 C   0  0  0  0  0  0  0  0  0  0  0  0
    1.0085   -5.3894   30.9292 C   0  0  0  0  0  0  0  0  0  0  0  0
    0.5616   -4.7456   29.7750 C   0  0  0  0  0  0  0  0  0  0  0  0
    1.3878   -3.8419   29.0996 C   0  0  0  0  0  0  0  0  0  0  0  0
    2.6745   -3.5941   29.5640 C   0  0  0  0  0  0  0  0  0  0  0  0
    3.7119   -2.5295   28.7048 Cl  0  0  0  0  0  0  0  0  0  0  0  0
    3.1269   -4.2080   30.7275 C   0  0  0  0  0  0  0  0  0  0  0  0
    2.2903   -5.0922   31.4140 C   0  0  0  0  0  0  0  0  0  0  0  0
    0.7808   -0.7298   31.1894 C   0  0  0  0  0  0  0  0  0  0  0  0
    0.7301    0.0064   30.0256 C   0  0  0  0  0  0  0  0  0  0  0  0
    1.7699    0.8604   29.4002 C   0  0  0  0  0  0  0  0  0  0  0  0
  1  2  1  0
  2  3  1  0
  3  4  1  0
  4  5  2  0
  5  6  1  0
  6  7  2  0
  7  8  1  0
  8  9  1  0
  9 10  2  0
  9 11  1  0
 11 12  1  0
 12 13  1  0
 13 14  1  0
 13 15  2  0
 15 16  1  0
 16 17  2  0
 17 18  1  0
 18 19  2  0
 19 20  1  0
 20 21  2  0
 21 22  1  0
 21 23  1  0
 23 24  2  0
  7 25  1  0
 25 26  2  0
 26 27  1  0
 27  2  1  0
 26  4  1  0
 17 12  1  0
 24 18  1  0
M  END
>  <ref_mols>  (2134) 
B0454b

>  <gnina_score>  (2134) 
5.683

>  <smina_score_min>  (2134) 
-5.782

>  <ref_pdb>  (2134) 
B0454b

>  <inspiration_score>  (2134) 
None

>  <inchikey>  (2134) 
XQUCCJQOUHSJEH-UHFFFAOYSA-N

>  <tags>  (2134) 
BulkDock Fragalysis export,openbind_d68ev3c_c2_elabs_scored,openbind_d68ev3c_c2_elabs_scored_4.5plus,openbind_d68ev3c_c2_elabs,openbind_d68ev3c_c2_elabs_scored_5plus,syndirella_product,openbind_d68ev3c_c2_elabs_scored_top80percent,syndirella_placed

>  <smiles>  (2134) 
CN1Cc2ccc(NC(=O)Cn3c(S)nnc3-c3ccc(Cl)cc3)cc2C1

>  <subsites>  (2134) 
None

>  <rmsd(smina/fragmenstein)>  (2134) 
0.624

>  <alias>  (2134) 
None

>  <energy_score>  (2134) 
-11.352881

>  <HIPPO Pose ID>  (2134) 
143208

>  <distance_score>  (2134) 
1.607345

>  <HIPPO Compound ID>  (2134) 
151869

>  <gnina_score_min>  (2134) 
5.538

>  <name>  (2134) 
P143208

>  <exports>  (2134) 
['/opt/xchem-fragalysis-2/maxwin/BulkDock/OUTPUTS/openbind_d68ev3c_c2_elabs_1LOTQJ3.sdf', '/opt/xchem-fragalysis-2/maxwin/BulkDock/OUTPUTS/openbind_d68ev3c_c2_elabs_1LSYI5W.sdf']

$$$$
P143214
     RDKit          3D

 27 30  0  0  0  0  0  0  0  0999 V2000
    0.4784   -4.8513   38.7951 C   0  0  0  0  0  0  0  0  0  0  0  0
    0.1263   -5.3813   37.4370 C   0  0  0  0  0  0  0  0  0  0  0  0
   -0.1948   -4.5097   36.3917 C   0  0  0  0  0  0  0  0  0  0  0  0
   -0.5159   -5.0086   35.1252 C   0  0  0  0  0  0  0  0  0  0  0  0
   -0.5110   -6.3836   34.8767 C   0  0  0  0  0  0  0  0  0  0  0  0
   -0.8141   -6.9472   33.5628 C   0  0  0  0  0  0  0  0  0  0  0  0
   -1.6940   -7.9029   33.3249 N   0  0  0  0  0  0  0  0  0  0  0  0
   -1.5985   -8.2829   32.0135 N   0  0  0  0  0  0  0  0  0  0  0  0
   -0.6460   -7.5710   31.4797 C   0  0  0  0  0  0  0  0  0  0  0  0
   -0.0235   -7.8502   29.9143 S   0  0  0  0  0  0  0  0  0  0  0  0
   -0.1465   -6.6806   32.3853 N   0  0  0  0  0  0  0  0  0  0  0  0
    0.9676   -5.7773   32.2068 C   0  0  0  0  0  0  0  0  0  0  0  0
    0.5354   -4.4979   31.5204 C   0  0  0  0  0  0  0  0  0  0  0  0
    0.0430   -4.4742   30.4507 O   0  0  0  0  0  0  0  0  0  0  0  0
    0.8527   -3.3662   32.4799 N   0  0  0  0  0  0  0  0  0  0  0  0
    2.2795   -2.8025   32.2416 C   0  0  0  0  0  0  0  0  0  0  0  0
    1.8720   -1.6280   33.0846 C   0  0  0  0  0  0  0  0  0  0  0  0
    0.5381   -1.8617   32.3960 C   0  0  1  0  0  0  0  0  0  0  0  0
    0.1883   -1.1799   30.9888 C   0  0  0  0  0  0  0  0  0  0  0  0
    0.8751   -0.0366   30.5260 C   0  0  0  0  0  0  0  0  0  0  0  0
    0.5117    0.6312   29.3541 C   0  0  0  0  0  0  0  0  0  0  0  0
   -0.5585    0.1690   28.6020 C   0  0  0  0  0  0  0  0  0  0  0  0
   -1.1353    1.1130   27.2905 Cl  0  0  0  0  0  0  0  0  0  0  0  0
   -1.2232   -0.9879   28.9774 C   0  0  0  0  0  0  0  0  0  0  0  0
   -0.8672   -1.6325   30.1677 C   0  0  0  0  0  0  0  0  0  0  0  0
   -0.2045   -7.2493   35.9298 C   0  0  0  0  0  0  0  0  0  0  0  0
    0.1346   -6.7567   37.1922 C   0  0  0  0  0  0  0  0  0  0  0  0
  1  2  1  0
  2  3  2  0
  3  4  1  0
  4  5  2  0
  5  6  1  0
  6  7  2  0
  7  8  1  0
  8  9  2  0
  9 10  1  0
  9 11  1  0
 11 12  1  0
 12 13  1  0
 13 14  2  0
 13 15  1  0
 15 16  1  0
 16 17  1  0
 17 18  1  0
 18 19  1  6
 19 20  2  0
 20 21  1  0
 21 22  2  0
 22 23  1  0
 22 24  1  0
 24 25  2  0
  5 26  1  0
 26 27  2  0
 27  2  1  0
 11  6  1  0
 18 15  1  0
 25 19  1  0
M  END
>  <ref_mols>  (2135) 
B0454b

>  <gnina_score>  (2135) 
6.041

>  <smina_score_min>  (2135) 
-6.334

>  <ref_pdb>  (2135) 
B0454b

>  <inspiration_score>  (2135) 
None

>  <inchikey>  (2135) 
SLEPOKHPJOINIU-KRWDZBQOSA-N

>  <tags>  (2135) 
BulkDock Fragalysis export,openbind_d68ev3c_c2_elabs_scored,openbind_d68ev3c_c2_elabs_scored_4.5plus,openbind_d68ev3c_c2_elabs,openbind_d68ev3c_c2_elabs_scored_5plus,syndirella_product,openbind_d68ev3c_c2_elabs_scored_top80percent,syndirella_placed

>  <smiles>  (2135) 
Cc1ccc(-c2nnc(S)n2CC(=O)N2CC[C@H]2c2ccc(Cl)cc2)cc1

>  <subsites>  (2135) 
None

>  <rmsd(smina/fragmenstein)>  (2135) 
1.247

>  <alias>  (2135) 
None

>  <energy_score>  (2135) 
-13.714718

>  <HIPPO Pose ID>  (2135) 
143214

>  <distance_score>  (2135) 
0.991232

>  <HIPPO Compound ID>  (2135) 
151908

>  <gnina_score_min>  (2135) 
6.049

>  <name>  (2135) 
P143214

>  <exports>  (2135) 
['/opt/xchem-fragalysis-2/maxwin/BulkDock/OUTPUTS/openbind_d68ev3c_c2_elabs_1LOTQJ3.sdf', '/opt/xchem-fragalysis-2/maxwin/BulkDock/OUTPUTS/openbind_d68ev3c_c2_elabs_1LSYI5W.sdf']

$$$$
P143216
     RDKit          3D

 27 30  0  0  0  0  0  0  0  0999 V2000
    3.5030   -2.7208   28.6655 C   0  0  0  0  0  0  0  0  0  0  0  0
    2.5932   -3.6423   29.4214 C   0  0  0  0  0  0  0  0  0  0  0  0
    1.2566   -3.7734   29.0404 C   0  0  0  0  0  0  0  0  0  0  0  0
    0.4072   -4.6604   29.7081 C   0  0  0  0  0  0  0  0  0  0  0  0
    0.8609   -5.4095   30.7931 C   0  0  0  0  0  0  0  0  0  0  0  0
   -0.0335   -6.2932   31.5429 C   0  0  0  0  0  0  0  0  0  0  0  0
   -0.5443   -7.4458   31.1400 N   0  0  0  0  0  0  0  0  0  0  0  0
   -1.1515   -8.0488   32.2232 N   0  0  0  0  0  0  0  0  0  0  0  0
   -1.0291   -7.2333   33.2421 C   0  0  0  0  0  0  0  0  0  0  0  0
   -1.4195   -7.5647   34.8852 S   0  0  0  0  0  0  0  0  0  0  0  0
   -0.4616   -6.0646   32.8389 N   0  0  0  0  0  0  0  0  0  0  0  0
   -0.3235   -4.8424   33.6172 C   0  0  0  0  0  0  0  0  0  0  0  0
   -0.7090   -3.6187   32.8047 C   0  0  0  0  0  0  0  0  0  0  0  0
   -1.4018   -3.6736   31.8496 O   0  0  0  0  0  0  0  0  0  0  0  0
    0.0409   -2.4394   33.4115 N   0  0  0  0  0  0  0  0  0  0  0  0
    1.4628   -2.3118   32.8267 C   0  0  0  0  0  0  0  0  0  0  0  0
    1.4926   -0.9706   33.5311 C   0  0  0  0  0  0  0  0  0  0  0  0
    0.0439   -0.9435   33.0277 C   0  0  1  0  0  0  0  0  0  0  0  0
   -0.1894   -0.4726   31.4824 C   0  0  0  0  0  0  0  0  0  0  0  0
   -1.2077   -0.9637   30.6434 C   0  0  0  0  0  0  0  0  0  0  0  0
   -1.3764   -0.5206   29.3268 C   0  0  0  0  0  0  0  0  0  0  0  0
   -0.5786    0.5016   28.8417 C   0  0  0  0  0  0  0  0  0  0  0  0
   -1.0621    1.4008   27.2613 Br  0  0  0  0  0  0  0  0  0  0  0  0
    0.4706    0.9861   29.6032 C   0  0  0  0  0  0  0  0  0  0  0  0
    0.6556    0.5013   30.8986 C   0  0  0  0  0  0  0  0  0  0  0  0
    2.1911   -5.2491   31.1946 C   0  0  0  0  0  0  0  0  0  0  0  0
    3.0600   -4.3993   30.4980 C   0  0  0  0  0  0  0  0  0  0  0  0
  1  2  1  0
  2  3  2  0
  3  4  1  0
  4  5  2  0
  5  6  1  0
  6  7  2  0
  7  8  1  0
  8  9  2  0
  9 10  1  0
  9 11  1  0
 11 12  1  0
 12 13  1  0
 13 14  2  0
 13 15  1  0
 15 16  1  0
 16 17  1  0
 17 18  1  0
 18 19  1  6
 19 20  2  0
 20 21  1  0
 21 22  2  0
 22 23  1  0
 22 24  1  0
 24 25  2  0
  5 26  1  0
 26 27  2  0
 27  2  1  0
 11  6  1  0
 18 15  1  0
 25 19  1  0
M  END
>  <ref_mols>  (2136) 
B0454b

>  <gnina_score>  (2136) 
5.782

>  <smina_score_min>  (2136) 
-5.878

>  <ref_pdb>  (2136) 
B0454b

>  <inspiration_score>  (2136) 
None

>  <inchikey>  (2136) 
ROZARNLJUWFPHU-KRWDZBQOSA-N

>  <tags>  (2136) 
BulkDock Fragalysis export,openbind_d68ev3c_c2_elabs_scored,openbind_d68ev3c_c2_elabs_scored_4.5plus,openbind_d68ev3c_c2_elabs,openbind_d68ev3c_c2_elabs_scored_5plus,syndirella_product,openbind_d68ev3c_c2_elabs_scored_top80percent,syndirella_placed

>  <smiles>  (2136) 
Cc1ccc(-c2nnc(S)n2CC(=O)N2CC[C@H]2c2ccc(Br)cc2)cc1

>  <subsites>  (2136) 
None

>  <rmsd(smina/fragmenstein)>  (2136) 
0.581

>  <alias>  (2136) 
None

>  <energy_score>  (2136) 
-5.70836

>  <HIPPO Pose ID>  (2136) 
143216

>  <distance_score>  (2136) 
1.046799

>  <HIPPO Compound ID>  (2136) 
151911

>  <gnina_score_min>  (2136) 
5.648

>  <name>  (2136) 
P143216

>  <exports>  (2136) 
['/opt/xchem-fragalysis-2/maxwin/BulkDock/OUTPUTS/openbind_d68ev3c_c2_elabs_1LOTQJ3.sdf', '/opt/xchem-fragalysis-2/maxwin/BulkDock/OUTPUTS/openbind_d68ev3c_c2_elabs_1LSYI5W.sdf']

$$$$
P143336
     RDKit          3D

 22 23  0  0  0  0  0  0  0  0999 V2000
    2.3083   -7.0060   35.1071 O   0  0  0  0  0  0  0  0  0  0  0  0
    1.9444   -6.1058   35.7591 C   0  0  0  0  0  0  0  0  0  0  0  0
    0.6947   -5.2503   35.4507 C   0  0  0  0  0  0  0  0  0  0  0  0
    0.0264   -5.8019   34.2842 N   0  0  0  0  0  0  0  0  0  0  0  0
    0.4373   -5.4123   33.0363 C   0  0  0  0  0  0  0  0  0  0  0  0
   -0.0082   -5.9886   31.9175 C   0  0  0  0  0  0  0  0  0  0  0  0
    0.6910   -5.3199   30.1479 I   0  0  0  0  0  0  0  0  0  0  0  0
   -0.9724   -7.1219   32.0479 C   0  0  0  0  0  0  0  0  0  0  0  0
   -1.4595   -7.7213   31.0919 O   0  0  0  0  0  0  0  0  0  0  0  0
   -1.2975   -7.4609   33.3371 N   0  0  0  0  0  0  0  0  0  0  0  0
   -0.8687   -6.8360   34.4770 C   0  0  0  0  0  0  0  0  0  0  0  0
   -1.2704   -7.1862   35.5822 O   0  0  0  0  0  0  0  0  0  0  0  0
    2.5059   -5.5354   37.0893 N   0  0  0  0  0  0  0  0  0  0  0  0
    3.5637   -6.0103   37.9330 C   0  0  0  0  0  0  0  0  0  0  0  0
    3.0420   -6.9723   38.9623 C   0  0  0  0  0  0  0  0  0  0  0  0
    1.7138   -6.9500   39.4267 C   0  0  0  0  0  0  0  0  0  0  0  0
    1.2983   -7.8413   40.4166 C   0  0  0  0  0  0  0  0  0  0  0  0
   -0.4569   -7.7464   41.1060 Br  0  0  0  0  0  0  0  0  0  0  0  0
    2.1856   -8.7699   40.9497 C   0  0  0  0  0  0  0  0  0  0  0  0
    3.5064   -8.7912   40.5085 C   0  0  0  0  0  0  0  0  0  0  0  0
    3.9237   -7.8938   39.5312 C   0  0  0  0  0  0  0  0  0  0  0  0
    5.2044   -7.9209   39.1345 F   0  0  0  0  0  0  0  0  0  0  0  0
  1  2  2  0
  2  3  1  0
  3  4  1  0
  4  5  1  0
  5  6  2  0
  6  7  1  0
  6  8  1  0
  8  9  2  0
  8 10  1  0
 10 11  1  0
 11 12  2  0
  2 13  1  0
 13 14  1  0
 14 15  1  0
 15 16  2  0
 16 17  1  0
 17 18  1  0
 17 19  2  0
 19 20  1  0
 20 21  2  0
 21 22  1  0
 11  4  1  0
 21 15  1  0
M  END
>  <ref_mols>  (2137) 
B0517a

>  <gnina_score>  (2137) 
4.891

>  <smina_score_min>  (2137) 
-4.964

>  <ref_pdb>  (2137) 
B0517a

>  <inspiration_score>  (2137) 
None

>  <inchikey>  (2137) 
FZJVYHNUOZWJTF-UHFFFAOYSA-N

>  <tags>  (2137) 
BulkDock Fragalysis export,openbind_d68ev3c_c2_elabs_scored,openbind_d68ev3c_c2_elabs_scored_4.5plus,openbind_d68ev3c_c2_elabs,openbind_d68ev3c_c2_elabs_scored_5plus,syndirella_product,openbind_d68ev3c_c2_elabs_scored_top80percent,syndirella_placed

>  <smiles>  (2137) 
O=C(Cn1cc(I)c(=O)[nH]c1=O)NCc1cc(Br)ccc1F

>  <subsites>  (2137) 
None

>  <rmsd(smina/fragmenstein)>  (2137) 
0.554

>  <alias>  (2137) 
None

>  <energy_score>  (2137) 
-0.456574

>  <HIPPO Pose ID>  (2137) 
143336

>  <distance_score>  (2137) 
0.770709

>  <HIPPO Compound ID>  (2137) 
168224

>  <gnina_score_min>  (2137) 
5.011

>  <name>  (2137) 
P143336

>  <exports>  (2137) 
['/opt/xchem-fragalysis-2/maxwin/BulkDock/OUTPUTS/openbind_d68ev3c_c2_elabs_1LOTQJ3.sdf', '/opt/xchem-fragalysis-2/maxwin/BulkDock/OUTPUTS/openbind_d68ev3c_c2_elabs_1LSYI5W.sdf']

$$$$
P143341
     RDKit          3D

 22 23  0  0  0  0  0  0  0  0999 V2000
    2.3081   -7.1180   35.0304 O   0  0  0  0  0  0  0  0  0  0  0  0
    1.9915   -6.2157   35.7039 C   0  0  0  0  0  0  0  0  0  0  0  0
    0.7591   -5.3187   35.4443 C   0  0  0  0  0  0  0  0  0  0  0  0
    0.0536   -5.8289   34.2815 N   0  0  0  0  0  0  0  0  0  0  0  0
    0.4544   -5.4291   33.0337 C   0  0  0  0  0  0  0  0  0  0  0  0
   -0.0095   -5.9876   31.9135 C   0  0  0  0  0  0  0  0  0  0  0  0
    0.6785   -5.3049   30.1449 I   0  0  0  0  0  0  0  0  0  0  0  0
   -0.9802   -7.1155   32.0421 C   0  0  0  0  0  0  0  0  0  0  0  0
   -1.4679   -7.7129   31.0852 O   0  0  0  0  0  0  0  0  0  0  0  0
   -1.3099   -7.4532   33.3306 N   0  0  0  0  0  0  0  0  0  0  0  0
   -0.8588   -6.8482   34.4727 C   0  0  0  0  0  0  0  0  0  0  0  0
   -1.2530   -7.2041   35.5788 O   0  0  0  0  0  0  0  0  0  0  0  0
    2.6091   -5.6802   37.0234 N   0  0  0  0  0  0  0  0  0  0  0  0
    3.6758   -6.1980   37.8291 C   0  0  0  0  0  0  0  0  0  0  0  0
    3.1668   -7.0865   38.9383 C   0  0  0  0  0  0  0  0  0  0  0  0
    1.8128   -7.0586   39.3402 C   0  0  0  0  0  0  0  0  0  0  0  0
    1.3616   -7.8481   40.3977 C   0  0  0  0  0  0  0  0  0  0  0  0
   -0.4219   -7.7155   40.9989 Br  0  0  0  0  0  0  0  0  0  0  0  0
    2.2335   -8.6967   41.0630 C   0  0  0  0  0  0  0  0  0  0  0  0
    3.5740   -8.7344   40.6894 C   0  0  0  0  0  0  0  0  0  0  0  0
    4.0410   -7.9297   39.6452 C   0  0  0  0  0  0  0  0  0  0  0  0
    5.8987   -8.0283   39.2496 Br  0  0  0  0  0  0  0  0  0  0  0  0
  1  2  2  0
  2  3  1  0
  3  4  1  0
  4  5  1  0
  5  6  2  0
  6  7  1  0
  6  8  1  0
  8  9  2  0
  8 10  1  0
 10 11  1  0
 11 12  2  0
  2 13  1  0
 13 14  1  0
 14 15  1  0
 15 16  2  0
 16 17  1  0
 17 18  1  0
 17 19  2  0
 19 20  1  0
 20 21  2  0
 21 22  1  0
 11  4  1  0
 21 15  1  0
M  END
>  <ref_mols>  (2138) 
B0517a

>  <gnina_score>  (2138) 
4.968

>  <smina_score_min>  (2138) 
-5.078

>  <ref_pdb>  (2138) 
B0517a

>  <inspiration_score>  (2138) 
None

>  <inchikey>  (2138) 
IRQAKEOYTJKIAH-UHFFFAOYSA-N

>  <tags>  (2138) 
BulkDock Fragalysis export,openbind_d68ev3c_c2_elabs_scored,openbind_d68ev3c_c2_elabs_scored_4.5plus,openbind_d68ev3c_c2_elabs,openbind_d68ev3c_c2_elabs_scored_5plus,syndirella_product,openbind_d68ev3c_c2_elabs_scored_top80percent,syndirella_placed

>  <smiles>  (2138) 
O=C(Cn1cc(I)c(=O)[nH]c1=O)NCc1cc(Br)ccc1Br

>  <subsites>  (2138) 
None

>  <rmsd(smina/fragmenstein)>  (2138) 
0.575

>  <alias>  (2138) 
None

>  <energy_score>  (2138) 
-8.800149

>  <HIPPO Pose ID>  (2138) 
143341

>  <distance_score>  (2138) 
0.74756

>  <HIPPO Compound ID>  (2138) 
168234

>  <gnina_score_min>  (2138) 
5.044

>  <name>  (2138) 
P143341

>  <exports>  (2138) 
['/opt/xchem-fragalysis-2/maxwin/BulkDock/OUTPUTS/openbind_d68ev3c_c2_elabs_1LOTQJ3.sdf', '/opt/xchem-fragalysis-2/maxwin/BulkDock/OUTPUTS/openbind_d68ev3c_c2_elabs_1LSYI5W.sdf']

$$$$
P143761
     RDKit          3D

 24 26  0  0  0  0  0  0  0  0999 V2000
    2.5195   -7.1083   34.8799 O   0  0  0  0  0  0  0  0  0  0  0  0
    2.1818   -6.1972   35.5318 C   0  0  0  0  0  0  0  0  0  0  0  0
    0.9658   -5.2953   35.2199 C   0  0  0  0  0  0  0  0  0  0  0  0
    0.2076   -5.8724   34.1256 N   0  0  0  0  0  0  0  0  0  0  0  0
   -0.7219   -6.8374   34.4745 C   0  0  0  0  0  0  0  0  0  0  0  0
   -1.0193   -7.0999   35.6383 O   0  0  0  0  0  0  0  0  0  0  0  0
   -1.3133   -7.5203   33.4549 N   0  0  0  0  0  0  0  0  0  0  0  0
   -1.1057   -7.3350   32.1185 C   0  0  0  0  0  0  0  0  0  0  0  0
   -1.6671   -8.0068   31.2594 O   0  0  0  0  0  0  0  0  0  0  0  0
   -0.1453   -6.2767   31.7657 C   0  0  0  0  0  0  0  0  0  0  0  0
    0.0947   -5.9873   30.4240 C   0  0  0  0  0  0  0  0  0  0  0  0
    1.0253   -5.0146   30.0684 C   0  0  0  0  0  0  0  0  0  0  0  0
    1.7328   -4.3478   31.0590 C   0  0  0  0  0  0  0  0  0  0  0  0
    1.4897   -4.6359   32.4038 C   0  0  0  0  0  0  0  0  0  0  0  0
    0.5295   -5.5913   32.7742 C   0  0  0  0  0  0  0  0  0  0  0  0
    2.7461   -5.6559   36.8748 N   0  0  0  0  0  0  0  0  0  0  0  0
    3.7700   -6.1764   37.7302 C   0  0  0  0  0  0  0  0  0  0  0  0
    3.1902   -7.0412   38.8213 C   0  0  0  0  0  0  0  0  0  0  0  0
    4.0187   -7.9790   39.4529 C   0  0  0  0  0  0  0  0  0  0  0  0
    3.5300   -8.7824   40.4844 C   0  0  0  0  0  0  0  0  0  0  0  0
    2.2122   -8.6495   40.9127 C   0  0  0  0  0  0  0  0  0  0  0  0
    1.3888   -7.7045   40.3149 C   0  0  0  0  0  0  0  0  0  0  0  0
   -0.3584   -7.4548   40.9836 Br  0  0  0  0  0  0  0  0  0  0  0  0
    1.8642   -6.9080   39.2735 C   0  0  0  0  0  0  0  0  0  0  0  0
  1  2  2  0
  2  3  1  0
  3  4  1  0
  4  5  1  0
  5  6  2  0
  5  7  1  0
  7  8  1  0
  8  9  2  0
  8 10  1  0
 10 11  2  0
 11 12  1  0
 12 13  2  0
 13 14  1  0
 14 15  2  0
  2 16  1  0
 16 17  1  0
 17 18  1  0
 18 19  2  0
 19 20  1  0
 20 21  2  0
 21 22  1  0
 22 23  1  0
 22 24  2  0
 15  4  1  0
 24 18  1  0
 15 10  1  0
M  END
>  <ref_mols>  (2139) 
B0517a

>  <gnina_score>  (2139) 
4.962

>  <smina_score_min>  (2139) 
-6.222

>  <ref_pdb>  (2139) 
B0517a

>  <inspiration_score>  (2139) 
None

>  <inchikey>  (2139) 
GNSNJUZBJPFJCP-UHFFFAOYSA-N

>  <tags>  (2139) 
BulkDock Fragalysis export,openbind_d68ev3c_c2_elabs_scored,openbind_d68ev3c_c2_elabs_scored_4.5plus,openbind_d68ev3c_c2_elabs,openbind_d68ev3c_c2_elabs_scored_5plus,syndirella_product,openbind_d68ev3c_c2_elabs_scored_top80percent,syndirella_placed

>  <smiles>  (2139) 
O=C(Cn1c(=O)[nH]c(=O)c2ccccc21)NCc1cccc(Br)c1

>  <subsites>  (2139) 
None

>  <rmsd(smina/fragmenstein)>  (2139) 
0.398

>  <alias>  (2139) 
None

>  <energy_score>  (2139) 
-13.843032

>  <HIPPO Pose ID>  (2139) 
143761

>  <distance_score>  (2139) 
0.597432

>  <HIPPO Compound ID>  (2139) 
168728

>  <gnina_score_min>  (2139) 
5.083

>  <name>  (2139) 
P143761

>  <exports>  (2139) 
['/opt/xchem-fragalysis-2/maxwin/BulkDock/OUTPUTS/openbind_d68ev3c_c2_elabs_1LOTQJ3.sdf', '/opt/xchem-fragalysis-2/maxwin/BulkDock/OUTPUTS/openbind_d68ev3c_c2_elabs_1LSYI5W.sdf']

$$$$
P143791
     RDKit          3D

 25 27  0  0  0  0  0  0  0  0999 V2000
    5.7989   -4.7367   38.0911 C   0  0  0  0  0  0  0  0  0  0  0  0
    4.9506   -5.5594   37.8714 C   0  0  0  0  0  0  0  0  0  0  0  0
    3.9097   -6.5644   37.5901 C   0  0  2  0  0  0  0  0  0  0  0  0
    2.9218   -5.9272   36.7683 N   0  0  0  0  0  0  0  0  0  0  0  0
    2.2982   -6.3678   35.4204 C   0  0  0  0  0  0  0  0  0  0  0  0
    2.5480   -7.2791   34.7320 O   0  0  0  0  0  0  0  0  0  0  0  0
    1.1347   -5.3775   35.1779 C   0  0  0  0  0  0  0  0  0  0  0  0
    0.2993   -5.8913   34.1076 N   0  0  0  0  0  0  0  0  0  0  0  0
   -0.6394   -6.8417   34.4764 C   0  0  0  0  0  0  0  0  0  0  0  0
   -0.8838   -7.1295   35.6472 O   0  0  0  0  0  0  0  0  0  0  0  0
   -1.2900   -7.4892   33.4692 N   0  0  0  0  0  0  0  0  0  0  0  0
   -1.0985   -7.3128   32.1285 C   0  0  0  0  0  0  0  0  0  0  0  0
   -1.6736   -7.9880   31.2810 O   0  0  0  0  0  0  0  0  0  0  0  0
   -0.1375   -6.2614   31.7561 C   0  0  0  0  0  0  0  0  0  0  0  0
    0.0662   -5.9616   30.4106 C   0  0  0  0  0  0  0  0  0  0  0  0
    0.9912   -4.9900   30.0371 C   0  0  0  0  0  0  0  0  0  0  0  0
    1.7322   -4.3371   31.0117 C   0  0  0  0  0  0  0  0  0  0  0  0
    1.5293   -4.6390   32.3597 C   0  0  0  0  0  0  0  0  0  0  0  0
    0.5750   -5.5928   32.7499 C   0  0  0  0  0  0  0  0  0  0  0  0
    3.2358   -7.1351   38.8313 C   0  0  0  0  0  0  0  0  0  0  0  0
    3.9606   -7.3655   40.0115 C   0  0  0  0  0  0  0  0  0  0  0  0
    3.3408   -7.9074   41.1404 C   0  0  0  0  0  0  0  0  0  0  0  0
    1.9903   -8.2412   41.1082 C   0  0  0  0  0  0  0  0  0  0  0  0
    1.2586   -8.0458   39.9447 C   0  0  0  0  0  0  0  0  0  0  0  0
    1.8767   -7.5146   38.8139 C   0  0  0  0  0  0  0  0  0  0  0  0
  1  2  3  0
  3  2  1  1
  3  4  1  0
  4  5  1  0
  5  6  2  0
  5  7  1  0
  7  8  1  0
  8  9  1  0
  9 10  2  0
  9 11  1  0
 11 12  1  0
 12 13  2  0
 12 14  1  0
 14 15  2  0
 15 16  1  0
 16 17  2  0
 17 18  1  0
 18 19  2  0
  3 20  1  0
 20 21  2  0
 21 22  1  0
 22 23  2  0
 23 24  1  0
 24 25  2  0
 19  8  1  0
 25 20  1  0
 19 14  1  0
M  END
>  <ref_mols>  (2140) 
B0517a

>  <gnina_score>  (2140) 
5.102

>  <smina_score_min>  (2140) 
-6.285

>  <ref_pdb>  (2140) 
B0517a

>  <inspiration_score>  (2140) 
None

>  <inchikey>  (2140) 
QJWATRTVPBLRSZ-HNNXBMFYSA-N

>  <tags>  (2140) 
BulkDock Fragalysis export,openbind_d68ev3c_c2_elabs_scored,openbind_d68ev3c_c2_elabs_scored_4.5plus,openbind_d68ev3c_c2_elabs,openbind_d68ev3c_c2_elabs_scored_5plus,syndirella_product,openbind_d68ev3c_c2_elabs_scored_top80percent,syndirella_placed

>  <smiles>  (2140) 
C#C[C@H](NC(=O)Cn1c(=O)[nH]c(=O)c2ccccc21)c1ccccc1

>  <subsites>  (2140) 
None

>  <rmsd(smina/fragmenstein)>  (2140) 
1.068

>  <alias>  (2140) 
None

>  <energy_score>  (2140) 
-8.291561

>  <HIPPO Pose ID>  (2140) 
143791

>  <distance_score>  (2140) 
0.485545

>  <HIPPO Compound ID>  (2140) 
168804

>  <gnina_score_min>  (2140) 
5.004

>  <name>  (2140) 
P143791

>  <exports>  (2140) 
['/opt/xchem-fragalysis-2/maxwin/BulkDock/OUTPUTS/openbind_d68ev3c_c2_elabs_1LOTQJ3.sdf', '/opt/xchem-fragalysis-2/maxwin/BulkDock/OUTPUTS/openbind_d68ev3c_c2_elabs_1LSYI5W.sdf']

$$$$
P143797
     RDKit          3D

 25 27  0  0  0  0  0  0  0  0999 V2000
    4.7864   -7.4681   36.8720 C   0  0  0  0  0  0  0  0  0  0  0  0
    3.9038   -6.4741   37.6180 C   0  0  1  0  0  0  0  0  0  0  0  0
    2.9031   -5.8525   36.7860 N   0  0  0  0  0  0  0  0  0  0  0  0
    2.2852   -6.3127   35.4338 C   0  0  0  0  0  0  0  0  0  0  0  0
    2.5495   -7.2264   34.7509 O   0  0  0  0  0  0  0  0  0  0  0  0
    1.1093   -5.3404   35.1837 C   0  0  0  0  0  0  0  0  0  0  0  0
    0.2841   -5.8709   34.1129 N   0  0  0  0  0  0  0  0  0  0  0  0
   -0.6449   -6.8307   34.4828 C   0  0  0  0  0  0  0  0  0  0  0  0
   -0.8908   -7.1167   35.6537 O   0  0  0  0  0  0  0  0  0  0  0  0
   -1.2857   -7.4892   33.4760 N   0  0  0  0  0  0  0  0  0  0  0  0
   -1.0959   -7.3134   32.1349 C   0  0  0  0  0  0  0  0  0  0  0  0
   -1.6668   -7.9929   31.2879 O   0  0  0  0  0  0  0  0  0  0  0  0
   -0.1410   -6.2570   31.7611 C   0  0  0  0  0  0  0  0  0  0  0  0
    0.0660   -5.9632   30.4147 C   0  0  0  0  0  0  0  0  0  0  0  0
    0.9856   -4.9871   30.0396 C   0  0  0  0  0  0  0  0  0  0  0  0
    1.7173   -4.3229   31.0136 C   0  0  0  0  0  0  0  0  0  0  0  0
    1.5108   -4.6186   32.3625 C   0  0  0  0  0  0  0  0  0  0  0  0
    0.5623   -5.5776   32.7542 C   0  0  0  0  0  0  0  0  0  0  0  0
    3.2291   -7.1022   38.8243 C   0  0  0  0  0  0  0  0  0  0  0  0
    3.9428   -7.2378   40.0236 C   0  0  0  0  0  0  0  0  0  0  0  0
    3.3361   -7.7888   41.1553 C   0  0  0  0  0  0  0  0  0  0  0  0
    2.0084   -8.2053   41.1009 C   0  0  0  0  0  0  0  0  0  0  0  0
    1.1941   -8.9453   42.6381 Br  0  0  0  0  0  0  0  0  0  0  0  0
    1.2851   -8.0859   39.9217 C   0  0  0  0  0  0  0  0  0  0  0  0
    1.8960   -7.5532   38.7860 C   0  0  0  0  0  0  0  0  0  0  0  0
  2  1  1  6
  2  3  1  0
  3  4  1  0
  4  5  2  0
  4  6  1  0
  6  7  1  0
  7  8  1  0
  8  9  2  0
  8 10  1  0
 10 11  1  0
 11 12  2  0
 11 13  1  0
 13 14  2  0
 14 15  1  0
 15 16  2  0
 16 17  1  0
 17 18  2  0
  2 19  1  0
 19 20  2  0
 20 21  1  0
 21 22  2  0
 22 23  1  0
 22 24  1  0
 24 25  2  0
 18  7  1  0
 25 19  1  0
 18 13  1  0
M  END
>  <ref_mols>  (2141) 
B0517a

>  <gnina_score>  (2141) 
5.074

>  <smina_score_min>  (2141) 
-6.536

>  <ref_pdb>  (2141) 
B0517a

>  <inspiration_score>  (2141) 
None

>  <inchikey>  (2141) 
KPAJSDZXXLXBJY-LLVKDONJSA-N

>  <tags>  (2141) 
BulkDock Fragalysis export,openbind_d68ev3c_c2_elabs_scored,openbind_d68ev3c_c2_elabs_scored_4.5plus,openbind_d68ev3c_c2_elabs,openbind_d68ev3c_c2_elabs_scored_5plus,syndirella_product,openbind_d68ev3c_c2_elabs_scored_top80percent,syndirella_placed

>  <smiles>  (2141) 
C[C@@H](NC(=O)Cn1c(=O)[nH]c(=O)c2ccccc21)c1ccc(Br)cc1

>  <subsites>  (2141) 
None

>  <rmsd(smina/fragmenstein)>  (2141) 
0.869

>  <alias>  (2141) 
None

>  <energy_score>  (2141) 
-9.871142

>  <HIPPO Pose ID>  (2141) 
143797

>  <distance_score>  (2141) 
0.486192

>  <HIPPO Compound ID>  (2141) 
168810

>  <gnina_score_min>  (2141) 
5.042

>  <name>  (2141) 
P143797

>  <exports>  (2141) 
['/opt/xchem-fragalysis-2/maxwin/BulkDock/OUTPUTS/openbind_d68ev3c_c2_elabs_1LOTQJ3.sdf', '/opt/xchem-fragalysis-2/maxwin/BulkDock/OUTPUTS/openbind_d68ev3c_c2_elabs_1LSYI5W.sdf']

$$$$
P143802
     RDKit          3D

 25 27  0  0  0  0  0  0  0  0999 V2000
    2.5084   -7.2761   34.7237 O   0  0  0  0  0  0  0  0  0  0  0  0
    2.2336   -6.3936   35.4405 C   0  0  0  0  0  0  0  0  0  0  0  0
    1.0669   -5.4048   35.2088 C   0  0  0  0  0  0  0  0  0  0  0  0
    0.2428   -5.9031   34.1234 N   0  0  0  0  0  0  0  0  0  0  0  0
   -0.7025   -6.8531   34.4732 C   0  0  0  0  0  0  0  0  0  0  0  0
   -0.9740   -7.1360   35.6388 O   0  0  0  0  0  0  0  0  0  0  0  0
   -1.3298   -7.5036   33.4540 N   0  0  0  0  0  0  0  0  0  0  0  0
   -1.1159   -7.3244   32.1174 C   0  0  0  0  0  0  0  0  0  0  0  0
   -1.6744   -7.9997   31.2590 O   0  0  0  0  0  0  0  0  0  0  0  0
   -0.1524   -6.2693   31.7634 C   0  0  0  0  0  0  0  0  0  0  0  0
    0.0732   -5.9673   30.4218 C   0  0  0  0  0  0  0  0  0  0  0  0
    1.0031   -4.9945   30.0651 C   0  0  0  0  0  0  0  0  0  0  0  0
    1.7252   -4.3409   31.0537 C   0  0  0  0  0  0  0  0  0  0  0  0
    1.4993   -4.6442   32.3983 C   0  0  0  0  0  0  0  0  0  0  0  0
    0.5412   -5.6010   32.7707 C   0  0  0  0  0  0  0  0  0  0  0  0
    2.8535   -5.9715   36.7992 N   0  0  0  0  0  0  0  0  0  0  0  0
    3.8664   -6.5985   37.5940 C   0  0  0  0  0  0  0  0  0  0  0  0
    3.3014   -7.2668   38.8238 C   0  0  0  0  0  0  0  0  0  0  0  0
    1.9347   -7.1699   39.1658 C   0  0  0  0  0  0  0  0  0  0  0  0
    1.4455   -7.7652   40.3292 C   0  0  0  0  0  0  0  0  0  0  0  0
   -0.3506   -7.5274   40.8493 Br  0  0  0  0  0  0  0  0  0  0  0  0
    2.2869   -8.4952   41.1561 C   0  0  0  0  0  0  0  0  0  0  0  0
    3.6353   -8.6109   40.8333 C   0  0  0  0  0  0  0  0  0  0  0  0
    4.1411   -7.9963   39.6838 C   0  0  0  0  0  0  0  0  0  0  0  0
    6.0031   -8.1979   39.3493 Br  0  0  0  0  0  0  0  0  0  0  0  0
  1  2  2  0
  2  3  1  0
  3  4  1  0
  4  5  1  0
  5  6  2  0
  5  7  1  0
  7  8  1  0
  8  9  2  0
  8 10  1  0
 10 11  2  0
 11 12  1  0
 12 13  2  0
 13 14  1  0
 14 15  2  0
  2 16  1  0
 16 17  1  0
 17 18  1  0
 18 19  2  0
 19 20  1  0
 20 21  1  0
 20 22  2  0
 22 23  1  0
 23 24  2  0
 24 25  1  0
 15  4  1  0
 24 18  1  0
 15 10  1  0
M  END
>  <ref_mols>  (2142) 
B0517a

>  <gnina_score>  (2142) 
5.167

>  <smina_score_min>  (2142) 
-6.488

>  <ref_pdb>  (2142) 
B0517a

>  <inspiration_score>  (2142) 
None

>  <inchikey>  (2142) 
ISDXUCZZXGEWGA-UHFFFAOYSA-N

>  <tags>  (2142) 
BulkDock Fragalysis export,openbind_d68ev3c_c2_elabs_scored,openbind_d68ev3c_c2_elabs_scored_4.5plus,openbind_d68ev3c_c2_elabs,openbind_d68ev3c_c2_elabs_scored_5plus,syndirella_product,openbind_d68ev3c_c2_elabs_scored_top80percent,syndirella_placed

>  <smiles>  (2142) 
O=C(Cn1c(=O)[nH]c(=O)c2ccccc21)NCc1cc(Br)ccc1Br

>  <subsites>  (2142) 
None

>  <rmsd(smina/fragmenstein)>  (2142) 
0.721

>  <alias>  (2142) 
None

>  <energy_score>  (2142) 
-9.392038

>  <HIPPO Pose ID>  (2142) 
143802

>  <distance_score>  (2142) 
0.605994

>  <HIPPO Compound ID>  (2142) 
168815

>  <gnina_score_min>  (2142) 
5.112

>  <name>  (2142) 
P143802

>  <exports>  (2142) 
['/opt/xchem-fragalysis-2/maxwin/BulkDock/OUTPUTS/openbind_d68ev3c_c2_elabs_1LOTQJ3.sdf', '/opt/xchem-fragalysis-2/maxwin/BulkDock/OUTPUTS/openbind_d68ev3c_c2_elabs_1LSYI5W.sdf']

$$$$
P143819
     RDKit          3D

 25 27  0  0  0  0  0  0  0  0999 V2000
    4.7992   -7.4335   36.8597 C   0  0  0  0  0  0  0  0  0  0  0  0
    3.9080   -6.4506   37.6107 C   0  0  1  0  0  0  0  0  0  0  0  0
    2.9041   -5.8332   36.7793 N   0  0  0  0  0  0  0  0  0  0  0  0
    2.2834   -6.2987   35.4302 C   0  0  0  0  0  0  0  0  0  0  0  0
    2.5473   -7.2143   34.7496 O   0  0  0  0  0  0  0  0  0  0  0  0
    1.1054   -5.3293   35.1800 C   0  0  0  0  0  0  0  0  0  0  0  0
    0.2808   -5.8634   34.1103 N   0  0  0  0  0  0  0  0  0  0  0  0
   -0.6456   -6.8253   34.4816 C   0  0  0  0  0  0  0  0  0  0  0  0
   -0.8914   -7.1104   35.6527 O   0  0  0  0  0  0  0  0  0  0  0  0
   -1.2843   -7.4872   33.4757 N   0  0  0  0  0  0  0  0  0  0  0  0
   -1.0954   -7.3124   32.1343 C   0  0  0  0  0  0  0  0  0  0  0  0
   -1.6657   -7.9937   31.2883 O   0  0  0  0  0  0  0  0  0  0  0  0
   -0.1425   -6.2546   31.7591 C   0  0  0  0  0  0  0  0  0  0  0  0
    0.0646   -5.9627   30.4124 C   0  0  0  0  0  0  0  0  0  0  0  0
    0.9822   -4.9853   30.0360 C   0  0  0  0  0  0  0  0  0  0  0  0
    1.7120   -4.3178   31.0090 C   0  0  0  0  0  0  0  0  0  0  0  0
    1.5055   -4.6116   32.3583 C   0  0  0  0  0  0  0  0  0  0  0  0
    0.5589   -5.5720   32.7513 C   0  0  0  0  0  0  0  0  0  0  0  0
    3.2362   -7.0921   38.8107 C   0  0  0  0  0  0  0  0  0  0  0  0
    1.9002   -7.5335   38.7743 C   0  0  0  0  0  0  0  0  0  0  0  0
    1.2950   -8.0843   39.9031 C   0  0  0  0  0  0  0  0  0  0  0  0
    2.0199   -8.2361   41.0795 C   0  0  0  0  0  0  0  0  0  0  0  0
    3.3483   -7.8255   41.1224 C   0  0  0  0  0  0  0  0  0  0  0  0
    4.3438   -8.0416   42.7164 Br  0  0  0  0  0  0  0  0  0  0  0  0
    3.9565   -7.2538   40.0031 C   0  0  0  0  0  0  0  0  0  0  0  0
  2  1  1  6
  2  3  1  0
  3  4  1  0
  4  5  2  0
  4  6  1  0
  6  7  1  0
  7  8  1  0
  8  9  2  0
  8 10  1  0
 10 11  1  0
 11 12  2  0
 11 13  1  0
 13 14  2  0
 14 15  1  0
 15 16  2  0
 16 17  1  0
 17 18  2  0
  2 19  1  0
 19 20  2  0
 20 21  1  0
 21 22  2  0
 22 23  1  0
 23 24  1  0
 23 25  2  0
 18  7  1  0
 25 19  1  0
 18 13  1  0
M  END
>  <ref_mols>  (2143) 
B0517a

>  <gnina_score>  (2143) 
5.098

>  <smina_score_min>  (2143) 
-6.516

>  <ref_pdb>  (2143) 
B0517a

>  <inspiration_score>  (2143) 
None

>  <inchikey>  (2143) 
ZPPWXLLKXLLKIA-LLVKDONJSA-N

>  <tags>  (2143) 
BulkDock Fragalysis export,openbind_d68ev3c_c2_elabs_scored,openbind_d68ev3c_c2_elabs_scored_4.5plus,openbind_d68ev3c_c2_elabs,openbind_d68ev3c_c2_elabs_scored_5plus,syndirella_product,openbind_d68ev3c_c2_elabs_scored_top80percent,syndirella_placed

>  <smiles>  (2143) 
C[C@@H](NC(=O)Cn1c(=O)[nH]c(=O)c2ccccc21)c1cccc(Br)c1

>  <subsites>  (2143) 
None

>  <rmsd(smina/fragmenstein)>  (2143) 
0.962

>  <alias>  (2143) 
None

>  <energy_score>  (2143) 
-7.166844

>  <HIPPO Pose ID>  (2143) 
143819

>  <distance_score>  (2143) 
0.477567

>  <HIPPO Compound ID>  (2143) 
168838

>  <gnina_score_min>  (2143) 
5.027

>  <name>  (2143) 
P143819

>  <exports>  (2143) 
['/opt/xchem-fragalysis-2/maxwin/BulkDock/OUTPUTS/openbind_d68ev3c_c2_elabs_1LOTQJ3.sdf', '/opt/xchem-fragalysis-2/maxwin/BulkDock/OUTPUTS/openbind_d68ev3c_c2_elabs_1LSYI5W.sdf']

$$$$
P143821
     RDKit          3D

 25 27  0  0  0  0  0  0  0  0999 V2000
    4.8641   -5.1918   38.0397 C   0  0  0  0  0  0  0  0  0  0  0  0
    3.9510   -6.3528   37.5973 C   0  0  0  0  0  0  0  0  0  0  0  0
    4.7936   -7.3773   36.8232 C   0  0  0  0  0  0  0  0  0  0  0  0
    2.9116   -5.7631   36.7647 N   0  0  0  0  0  0  0  0  0  0  0  0
    2.2759   -6.2646   35.4339 C   0  0  0  0  0  0  0  0  0  0  0  0
    2.5452   -7.1877   34.7648 O   0  0  0  0  0  0  0  0  0  0  0  0
    1.0762   -5.3211   35.1877 C   0  0  0  0  0  0  0  0  0  0  0  0
    0.2632   -5.8639   34.1142 N   0  0  0  0  0  0  0  0  0  0  0  0
   -0.6602   -6.8296   34.4807 C   0  0  0  0  0  0  0  0  0  0  0  0
   -0.9154   -7.1120   35.6504 O   0  0  0  0  0  0  0  0  0  0  0  0
   -1.2885   -7.4963   33.4717 N   0  0  0  0  0  0  0  0  0  0  0  0
   -1.0958   -7.3187   32.1314 C   0  0  0  0  0  0  0  0  0  0  0  0
   -1.6617   -8.0006   31.2832 O   0  0  0  0  0  0  0  0  0  0  0  0
   -0.1450   -6.2577   31.7608 C   0  0  0  0  0  0  0  0  0  0  0  0
    0.0680   -5.9655   30.4151 C   0  0  0  0  0  0  0  0  0  0  0  0
    0.9855   -4.9862   30.0433 C   0  0  0  0  0  0  0  0  0  0  0  0
    1.7087   -4.3169   31.0203 C   0  0  0  0  0  0  0  0  0  0  0  0
    1.4954   -4.6105   32.3686 C   0  0  0  0  0  0  0  0  0  0  0  0
    0.5488   -5.5728   32.7565 C   0  0  0  0  0  0  0  0  0  0  0  0
    3.2761   -7.0398   38.7941 C   0  0  0  0  0  0  0  0  0  0  0  0
    1.9228   -7.4366   38.7474 C   0  0  0  0  0  0  0  0  0  0  0  0
    1.3015   -8.0350   39.8433 C   0  0  0  0  0  0  0  0  0  0  0  0
    2.0232   -8.2826   41.0023 C   0  0  0  0  0  0  0  0  0  0  0  0
    3.3671   -7.9310   41.0648 C   0  0  0  0  0  0  0  0  0  0  0  0
    3.9885   -7.3191   39.9722 C   0  0  0  0  0  0  0  0  0  0  0  0
  1  2  1  0
  2  3  1  0
  2  4  1  0
  4  5  1  0
  5  6  2  0
  5  7  1  0
  7  8  1  0
  8  9  1  0
  9 10  2  0
  9 11  1  0
 11 12  1  0
 12 13  2  0
 12 14  1  0
 14 15  2  0
 15 16  1  0
 16 17  2  0
 17 18  1  0
 18 19  2  0
  2 20  1  0
 20 21  2  0
 21 22  1  0
 22 23  2  0
 23 24  1  0
 24 25  2  0
 19  8  1  0
 25 20  1  0
 19 14  1  0
M  END
>  <ref_mols>  (2144) 
B0517a

>  <gnina_score>  (2144) 
5.104

>  <smina_score_min>  (2144) 
-6.402

>  <ref_pdb>  (2144) 
B0517a

>  <inspiration_score>  (2144) 
None

>  <inchikey>  (2144) 
VQJYXJCQIKQQRV-UHFFFAOYSA-N

>  <tags>  (2144) 
BulkDock Fragalysis export,openbind_d68ev3c_c2_elabs_scored,openbind_d68ev3c_c2_elabs_scored_4.5plus,openbind_d68ev3c_c2_elabs,openbind_d68ev3c_c2_elabs_scored_5plus,syndirella_product,openbind_d68ev3c_c2_elabs_scored_top80percent,syndirella_placed

>  <smiles>  (2144) 
CC(C)(NC(=O)Cn1c(=O)[nH]c(=O)c2ccccc21)c1ccccc1

>  <subsites>  (2144) 
None

>  <rmsd(smina/fragmenstein)>  (2144) 
0.818

>  <alias>  (2144) 
None

>  <energy_score>  (2144) 
-26.260665

>  <HIPPO Pose ID>  (2144) 
143821

>  <distance_score>  (2144) 
0.458187

>  <HIPPO Compound ID>  (2144) 
168842

>  <gnina_score_min>  (2144) 
5.055

>  <name>  (2144) 
P143821

>  <exports>  (2144) 
['/opt/xchem-fragalysis-2/maxwin/BulkDock/OUTPUTS/openbind_d68ev3c_c2_elabs_1LOTQJ3.sdf', '/opt/xchem-fragalysis-2/maxwin/BulkDock/OUTPUTS/openbind_d68ev3c_c2_elabs_1LSYI5W.sdf']

$$$$
P143824
     RDKit          3D

 25 27  0  0  0  0  0  0  0  0999 V2000
    4.7956   -7.3724   36.8525 C   0  0  0  0  0  0  0  0  0  0  0  0
    3.8829   -6.4216   37.6214 C   0  0  1  0  0  0  0  0  0  0  0  0
    2.8652   -5.8225   36.7939 N   0  0  0  0  0  0  0  0  0  0  0  0
    2.2341   -6.3091   35.4565 C   0  0  0  0  0  0  0  0  0  0  0  0
    2.4987   -7.2303   34.7835 O   0  0  0  0  0  0  0  0  0  0  0  0
    1.0482   -5.3496   35.2032 C   0  0  0  0  0  0  0  0  0  0  0  0
    0.2419   -5.8787   34.1178 N   0  0  0  0  0  0  0  0  0  0  0  0
   -0.6895   -6.8412   34.4712 C   0  0  0  0  0  0  0  0  0  0  0  0
   -0.9556   -7.1288   35.6367 O   0  0  0  0  0  0  0  0  0  0  0  0
   -1.3119   -7.5005   33.4544 N   0  0  0  0  0  0  0  0  0  0  0  0
   -1.1056   -7.3193   32.1171 C   0  0  0  0  0  0  0  0  0  0  0  0
   -1.6650   -7.9968   31.2611 O   0  0  0  0  0  0  0  0  0  0  0  0
   -0.1481   -6.2597   31.7596 C   0  0  0  0  0  0  0  0  0  0  0  0
    0.0763   -5.9618   30.4170 C   0  0  0  0  0  0  0  0  0  0  0  0
    1.0007   -4.9850   30.0566 C   0  0  0  0  0  0  0  0  0  0  0  0
    1.7184   -4.3229   31.0428 C   0  0  0  0  0  0  0  0  0  0  0  0
    1.4931   -4.6214   32.3884 C   0  0  0  0  0  0  0  0  0  0  0  0
    0.5402   -5.5820   32.7643 C   0  0  0  0  0  0  0  0  0  0  0  0
    3.2467   -7.0878   38.8280 C   0  0  0  0  0  0  0  0  0  0  0  0
    4.0338   -7.3480   39.9621 C   0  0  0  0  0  0  0  0  0  0  0  0
    3.4799   -7.9432   41.0984 C   0  0  0  0  0  0  0  0  0  0  0  0
    2.1311   -8.2828   41.1225 C   0  0  0  0  0  0  0  0  0  0  0  0
    1.3501   -8.0284   40.0073 C   0  0  0  0  0  0  0  0  0  0  0  0
    0.0354   -8.3800   40.0225 O   0  0  0  0  0  0  0  0  0  0  0  0
    1.8869   -7.4482   38.8654 C   0  0  0  0  0  0  0  0  0  0  0  0
  2  1  1  6
  2  3  1  0
  3  4  1  0
  4  5  2  0
  4  6  1  0
  6  7  1  0
  7  8  1  0
  8  9  2  0
  8 10  1  0
 10 11  1  0
 11 12  2  0
 11 13  1  0
 13 14  2  0
 14 15  1  0
 15 16  2  0
 16 17  1  0
 17 18  2  0
  2 19  1  0
 19 20  2  0
 20 21  1  0
 21 22  2  0
 22 23  1  0
 23 24  1  0
 23 25  2  0
 18  7  1  0
 25 19  1  0
 18 13  1  0
M  END
>  <ref_mols>  (2145) 
B0517a

>  <gnina_score>  (2145) 
5.03

>  <smina_score_min>  (2145) 
-6.459

>  <ref_pdb>  (2145) 
B0517a

>  <inspiration_score>  (2145) 
None

>  <inchikey>  (2145) 
DIJDQCJNGJDPAZ-LLVKDONJSA-N

>  <tags>  (2145) 
BulkDock Fragalysis export,openbind_d68ev3c_c2_elabs_scored,openbind_d68ev3c_c2_elabs_scored_4.5plus,openbind_d68ev3c_c2_elabs,openbind_d68ev3c_c2_elabs_scored_5plus,syndirella_product,openbind_d68ev3c_c2_elabs_scored_top80percent,syndirella_placed

>  <smiles>  (2145) 
C[C@@H](NC(=O)Cn1c(=O)[nH]c(=O)c2ccccc21)c1cccc(O)c1

>  <subsites>  (2145) 
None

>  <rmsd(smina/fragmenstein)>  (2145) 
0.626

>  <alias>  (2145) 
None

>  <energy_score>  (2145) 
-9.566046

>  <HIPPO Pose ID>  (2145) 
143824

>  <distance_score>  (2145) 
0.507662

>  <HIPPO Compound ID>  (2145) 
168846

>  <gnina_score_min>  (2145) 
5.142

>  <name>  (2145) 
P143824

>  <exports>  (2145) 
['/opt/xchem-fragalysis-2/maxwin/BulkDock/OUTPUTS/openbind_d68ev3c_c2_elabs_1LOTQJ3.sdf', '/opt/xchem-fragalysis-2/maxwin/BulkDock/OUTPUTS/openbind_d68ev3c_c2_elabs_1LSYI5W.sdf']

$$$$
P143832
     RDKit          3D

 25 27  0  0  0  0  0  0  0  0999 V2000
    4.7921   -7.4654   36.8279 C   0  0  0  0  0  0  0  0  0  0  0  0
    3.9382   -6.4556   37.5890 C   0  0  1  0  0  0  0  0  0  0  0  0
    2.9235   -5.8371   36.7636 N   0  0  0  0  0  0  0  0  0  0  0  0
    2.2859   -6.3071   35.4236 C   0  0  0  0  0  0  0  0  0  0  0  0
    2.5393   -7.2267   34.7443 O   0  0  0  0  0  0  0  0  0  0  0  0
    1.1078   -5.3356   35.1819 C   0  0  0  0  0  0  0  0  0  0  0  0
    0.2795   -5.8649   34.1127 N   0  0  0  0  0  0  0  0  0  0  0  0
   -0.6463   -6.8275   34.4832 C   0  0  0  0  0  0  0  0  0  0  0  0
   -0.8895   -7.1158   35.6540 O   0  0  0  0  0  0  0  0  0  0  0  0
   -1.2868   -7.4870   33.4768 N   0  0  0  0  0  0  0  0  0  0  0  0
   -1.0968   -7.3123   32.1356 C   0  0  0  0  0  0  0  0  0  0  0  0
   -1.6660   -7.9942   31.2892 O   0  0  0  0  0  0  0  0  0  0  0  0
   -0.1443   -6.2540   31.7610 C   0  0  0  0  0  0  0  0  0  0  0  0
    0.0631   -5.9616   30.4143 C   0  0  0  0  0  0  0  0  0  0  0  0
    0.9803   -4.9835   30.0386 C   0  0  0  0  0  0  0  0  0  0  0  0
    1.7091   -4.3158   31.0122 C   0  0  0  0  0  0  0  0  0  0  0  0
    1.5025   -4.6102   32.3613 C   0  0  0  0  0  0  0  0  0  0  0  0
    0.5567   -5.5716   32.7537 C   0  0  0  0  0  0  0  0  0  0  0  0
    3.2795   -7.0686   38.8135 C   0  0  0  0  0  0  0  0  0  0  0  0
    1.9518   -7.5444   38.7511 C   0  0  0  0  0  0  0  0  0  0  0  0
    1.3162   -8.0729   39.8738 C   0  0  0  0  0  0  0  0  0  0  0  0
    2.0002   -8.1748   41.0764 C   0  0  0  0  0  0  0  0  0  0  0  0
    3.3195   -7.7374   41.1580 C   0  0  0  0  0  0  0  0  0  0  0  0
    3.9546   -7.1857   40.0396 C   0  0  0  0  0  0  0  0  0  0  0  0
    5.5868   -6.6501   40.2453 Cl  0  0  0  0  0  0  0  0  0  0  0  0
  2  1  1  6
  2  3  1  0
  3  4  1  0
  4  5  2  0
  4  6  1  0
  6  7  1  0
  7  8  1  0
  8  9  2  0
  8 10  1  0
 10 11  1  0
 11 12  2  0
 11 13  1  0
 13 14  2  0
 14 15  1  0
 15 16  2  0
 16 17  1  0
 17 18  2  0
  2 19  1  0
 19 20  2  0
 20 21  1  0
 21 22  2  0
 22 23  1  0
 23 24  2  0
 24 25  1  0
 18  7  1  0
 24 19  1  0
 18 13  1  0
M  END
>  <ref_mols>  (2146) 
B0517a

>  <gnina_score>  (2146) 
5.169

>  <smina_score_min>  (2146) 
-6.276

>  <ref_pdb>  (2146) 
B0517a

>  <inspiration_score>  (2146) 
None

>  <inchikey>  (2146) 
BEXPAEYMCBAAJM-LLVKDONJSA-N

>  <tags>  (2146) 
BulkDock Fragalysis export,openbind_d68ev3c_c2_elabs_scored,openbind_d68ev3c_c2_elabs_scored_4.5plus,openbind_d68ev3c_c2_elabs,openbind_d68ev3c_c2_elabs_scored_5plus,syndirella_product,openbind_d68ev3c_c2_elabs_scored_top80percent,syndirella_placed

>  <smiles>  (2146) 
C[C@@H](NC(=O)Cn1c(=O)[nH]c(=O)c2ccccc21)c1ccccc1Cl

>  <subsites>  (2146) 
None

>  <rmsd(smina/fragmenstein)>  (2146) 
0.752

>  <alias>  (2146) 
None

>  <energy_score>  (2146) 
-7.482004

>  <HIPPO Pose ID>  (2146) 
143832

>  <distance_score>  (2146) 
0.482204

>  <HIPPO Compound ID>  (2146) 
168854

>  <gnina_score_min>  (2146) 
5.091

>  <name>  (2146) 
P143832

>  <exports>  (2146) 
['/opt/xchem-fragalysis-2/maxwin/BulkDock/OUTPUTS/openbind_d68ev3c_c2_elabs_1LOTQJ3.sdf', '/opt/xchem-fragalysis-2/maxwin/BulkDock/OUTPUTS/openbind_d68ev3c_c2_elabs_1LSYI5W.sdf']

$$$$
P143836
     RDKit          3D

 25 27  0  0  0  0  0  0  0  0999 V2000
    4.8121   -7.4286   36.8594 C   0  0  0  0  0  0  0  0  0  0  0  0
    3.9207   -6.4439   37.6071 C   0  0  1  0  0  0  0  0  0  0  0  0
    2.9160   -5.8295   36.7741 N   0  0  0  0  0  0  0  0  0  0  0  0
    2.2781   -6.3110   35.4384 C   0  0  0  0  0  0  0  0  0  0  0  0
    2.5261   -7.2408   34.7711 O   0  0  0  0  0  0  0  0  0  0  0  0
    1.1078   -5.3340   35.1805 C   0  0  0  0  0  0  0  0  0  0  0  0
    0.2832   -5.8664   34.1102 N   0  0  0  0  0  0  0  0  0  0  0  0
   -0.6461   -6.8255   34.4816 C   0  0  0  0  0  0  0  0  0  0  0  0
   -0.8925   -7.1090   35.6530 O   0  0  0  0  0  0  0  0  0  0  0  0
   -1.2860   -7.4863   33.4758 N   0  0  0  0  0  0  0  0  0  0  0  0
   -1.0955   -7.3127   32.1346 C   0  0  0  0  0  0  0  0  0  0  0  0
   -1.6661   -7.9938   31.2887 O   0  0  0  0  0  0  0  0  0  0  0  0
   -0.1403   -6.2571   31.7592 C   0  0  0  0  0  0  0  0  0  0  0  0
    0.0673   -5.9657   30.4125 C   0  0  0  0  0  0  0  0  0  0  0  0
    0.9876   -4.9907   30.0361 C   0  0  0  0  0  0  0  0  0  0  0  0
    1.7195   -4.3254   31.0092 C   0  0  0  0  0  0  0  0  0  0  0  0
    1.5122   -4.6186   32.3584 C   0  0  0  0  0  0  0  0  0  0  0  0
    0.5629   -5.5762   32.7514 C   0  0  0  0  0  0  0  0  0  0  0  0
    3.2491   -7.0806   38.8092 C   0  0  0  0  0  0  0  0  0  0  0  0
    1.9216   -7.5500   38.7684 C   0  0  0  0  0  0  0  0  0  0  0  0
    1.3131   -8.0885   39.9033 C   0  0  0  0  0  0  0  0  0  0  0  0
    2.0284   -8.1990   41.0891 C   0  0  0  0  0  0  0  0  0  0  0  0
    3.3445   -7.7618   41.1309 C   0  0  0  0  0  0  0  0  0  0  0  0
    4.0402   -7.8686   42.2711 F   0  0  0  0  0  0  0  0  0  0  0  0
    3.9572   -7.2047   40.0117 C   0  0  0  0  0  0  0  0  0  0  0  0
  2  1  1  6
  2  3  1  0
  3  4  1  0
  4  5  2  0
  4  6  1  0
  6  7  1  0
  7  8  1  0
  8  9  2  0
  8 10  1  0
 10 11  1  0
 11 12  2  0
 11 13  1  0
 13 14  2  0
 14 15  1  0
 15 16  2  0
 16 17  1  0
 17 18  2  0
  2 19  1  0
 19 20  2  0
 20 21  1  0
 21 22  2  0
 22 23  1  0
 23 24  1  0
 23 25  2  0
 18  7  1  0
 25 19  1  0
 18 13  1  0
M  END
>  <ref_mols>  (2147) 
B0517a

>  <gnina_score>  (2147) 
5.057

>  <smina_score_min>  (2147) 
-6.52

>  <ref_pdb>  (2147) 
B0517a

>  <inspiration_score>  (2147) 
None

>  <inchikey>  (2147) 
LLQKBKVSBJPFMU-LLVKDONJSA-N

>  <tags>  (2147) 
BulkDock Fragalysis export,openbind_d68ev3c_c2_elabs_scored,openbind_d68ev3c_c2_elabs_scored_4.5plus,openbind_d68ev3c_c2_elabs,openbind_d68ev3c_c2_elabs_scored_5plus,syndirella_product,openbind_d68ev3c_c2_elabs_scored_top80percent,syndirella_placed

>  <smiles>  (2147) 
C[C@@H](NC(=O)Cn1c(=O)[nH]c(=O)c2ccccc21)c1cccc(F)c1

>  <subsites>  (2147) 
None

>  <rmsd(smina/fragmenstein)>  (2147) 
0.939

>  <alias>  (2147) 
None

>  <energy_score>  (2147) 
-15.271367

>  <HIPPO Pose ID>  (2147) 
143836

>  <distance_score>  (2147) 
0.483935

>  <HIPPO Compound ID>  (2147) 
168860

>  <gnina_score_min>  (2147) 
5.004

>  <name>  (2147) 
P143836

>  <exports>  (2147) 
['/opt/xchem-fragalysis-2/maxwin/BulkDock/OUTPUTS/openbind_d68ev3c_c2_elabs_1LOTQJ3.sdf', '/opt/xchem-fragalysis-2/maxwin/BulkDock/OUTPUTS/openbind_d68ev3c_c2_elabs_1LSYI5W.sdf']

$$$$
P143837
     RDKit          3D

 25 28  0  0  0  0  0  0  0  0999 V2000
    2.5075   -7.3695   34.6505 O   0  0  0  0  0  0  0  0  0  0  0  0
    2.3049   -6.4678   35.3714 C   0  0  0  0  0  0  0  0  0  0  0  0
    1.1916   -5.4161   35.1668 C   0  0  0  0  0  0  0  0  0  0  0  0
    0.3168   -5.8826   34.1037 N   0  0  0  0  0  0  0  0  0  0  0  0
   -0.6304   -6.8256   34.4746 C   0  0  0  0  0  0  0  0  0  0  0  0
   -0.8672   -7.1190   35.6455 O   0  0  0  0  0  0  0  0  0  0  0  0
   -1.2931   -7.4640   33.4692 N   0  0  0  0  0  0  0  0  0  0  0  0
   -1.0966   -7.2957   32.1282 C   0  0  0  0  0  0  0  0  0  0  0  0
   -1.6667   -7.9775   31.2824 O   0  0  0  0  0  0  0  0  0  0  0  0
   -0.1367   -6.2438   31.7534 C   0  0  0  0  0  0  0  0  0  0  0  0
    0.0610   -5.9422   30.4073 C   0  0  0  0  0  0  0  0  0  0  0  0
    0.9826   -4.9685   30.0310 C   0  0  0  0  0  0  0  0  0  0  0  0
    1.7257   -4.3147   31.0032 C   0  0  0  0  0  0  0  0  0  0  0  0
    1.5301   -4.6195   32.3518 C   0  0  0  0  0  0  0  0  0  0  0  0
    0.5812   -5.5774   32.7449 C   0  0  0  0  0  0  0  0  0  0  0  0
    2.9589   -6.1009   36.7381 N   0  0  0  0  0  0  0  0  0  0  0  0
    3.9057   -6.8046   37.5232 C   0  0  0  0  0  0  0  0  0  0  0  0
    3.2823   -7.2256   38.8513 C   0  0  0  0  0  0  0  0  0  0  0  0
    1.9769   -7.7647   38.8733 C   0  0  0  0  0  0  0  0  0  0  0  0
    1.3366   -8.1167   40.0608 C   0  0  0  0  0  0  0  0  0  0  0  0
    1.9958   -7.9611   41.2699 C   0  0  0  0  0  0  0  0  0  0  0  0
    3.2851   -7.4402   41.2866 C   0  0  0  0  0  0  0  0  0  0  0  0
    3.9141   -7.0680   40.0935 C   0  0  0  0  0  0  0  0  0  0  0  0
    5.3702   -6.4546   37.3833 C   0  0  0  0  0  0  0  0  0  0  0  0
    4.8741   -7.7712   36.8731 C   0  0  0  0  0  0  0  0  0  0  0  0
  1  2  2  0
  2  3  1  0
  3  4  1  0
  4  5  1  0
  5  6  2  0
  5  7  1  0
  7  8  1  0
  8  9  2  0
  8 10  1  0
 10 11  2  0
 11 12  1  0
 12 13  2  0
 13 14  1  0
 14 15  2  0
  2 16  1  0
 16 17  1  0
 17 18  1  0
 18 19  2  0
 19 20  1  0
 20 21  2  0
 21 22  1  0
 22 23  2  0
 17 24  1  0
 24 25  1  0
 15  4  1  0
 25 17  1  0
 15 10  1  0
 23 18  1  0
M  END
>  <ref_mols>  (2148) 
B0517a

>  <gnina_score>  (2148) 
5.098

>  <smina_score_min>  (2148) 
-6.602

>  <ref_pdb>  (2148) 
B0517a

>  <inspiration_score>  (2148) 
None

>  <inchikey>  (2148) 
GTTJVEMJMUQEGX-UHFFFAOYSA-N

>  <tags>  (2148) 
BulkDock Fragalysis export,openbind_d68ev3c_c2_elabs_scored,openbind_d68ev3c_c2_elabs_scored_4.5plus,openbind_d68ev3c_c2_elabs,openbind_d68ev3c_c2_elabs_scored_5plus,syndirella_product,openbind_d68ev3c_c2_elabs_scored_top80percent,syndirella_placed

>  <smiles>  (2148) 
O=C(Cn1c(=O)[nH]c(=O)c2ccccc21)NC1(c2ccccc2)CC1

>  <subsites>  (2148) 
None

>  <rmsd(smina/fragmenstein)>  (2148) 
0.901

>  <alias>  (2148) 
None

>  <energy_score>  (2148) 
-14.593955

>  <HIPPO Pose ID>  (2148) 
143837

>  <distance_score>  (2148) 
0.575822

>  <HIPPO Compound ID>  (2148) 
168861

>  <gnina_score_min>  (2148) 
5.031

>  <name>  (2148) 
P143837

>  <exports>  (2148) 
['/opt/xchem-fragalysis-2/maxwin/BulkDock/OUTPUTS/openbind_d68ev3c_c2_elabs_1LOTQJ3.sdf', '/opt/xchem-fragalysis-2/maxwin/BulkDock/OUTPUTS/openbind_d68ev3c_c2_elabs_1LSYI5W.sdf']

$$$$
P143841
     RDKit          3D

 25 27  0  0  0  0  0  0  0  0999 V2000
    4.1471   -7.8489   42.4343 C   0  0  0  0  0  0  0  0  0  0  0  0
    3.3823   -7.7567   41.1470 C   0  0  0  0  0  0  0  0  0  0  0  0
    2.0528   -8.1839   41.0873 C   0  0  0  0  0  0  0  0  0  0  0  0
    1.3369   -8.0840   39.8997 C   0  0  0  0  0  0  0  0  0  0  0  0
    1.9403   -7.5548   38.7622 C   0  0  0  0  0  0  0  0  0  0  0  0
    3.2622   -7.0788   38.8035 C   0  0  0  0  0  0  0  0  0  0  0  0
    3.9277   -6.4433   37.5968 C   0  0  1  0  0  0  0  0  0  0  0  0
    4.8153   -7.4292   36.8462 C   0  0  0  0  0  0  0  0  0  0  0  0
    2.9180   -5.8300   36.7685 N   0  0  0  0  0  0  0  0  0  0  0  0
    2.2795   -6.3087   35.4323 C   0  0  0  0  0  0  0  0  0  0  0  0
    2.5304   -7.2344   34.7603 O   0  0  0  0  0  0  0  0  0  0  0  0
    1.1040   -5.3362   35.1813 C   0  0  0  0  0  0  0  0  0  0  0  0
    0.2796   -5.8671   34.1100 N   0  0  0  0  0  0  0  0  0  0  0  0
   -0.6503   -6.8262   34.4795 C   0  0  0  0  0  0  0  0  0  0  0  0
   -0.9010   -7.1090   35.6501 O   0  0  0  0  0  0  0  0  0  0  0  0
   -1.2875   -7.4876   33.4725 N   0  0  0  0  0  0  0  0  0  0  0  0
   -1.0962   -7.3126   32.1316 C   0  0  0  0  0  0  0  0  0  0  0  0
   -1.6666   -7.9924   31.2846 O   0  0  0  0  0  0  0  0  0  0  0  0
   -0.1408   -6.2564   31.7582 C   0  0  0  0  0  0  0  0  0  0  0  0
    0.0683   -5.9639   30.4120 C   0  0  0  0  0  0  0  0  0  0  0  0
    0.9891   -4.9887   30.0373 C   0  0  0  0  0  0  0  0  0  0  0  0
    1.7198   -4.3242   31.0117 C   0  0  0  0  0  0  0  0  0  0  0  0
    1.5109   -4.6183   32.3606 C   0  0  0  0  0  0  0  0  0  0  0  0
    0.5610   -5.5762   32.7517 C   0  0  0  0  0  0  0  0  0  0  0  0
    3.9732   -7.1917   40.0079 C   0  0  0  0  0  0  0  0  0  0  0  0
  1  2  1  0
  2  3  2  0
  3  4  1  0
  4  5  2  0
  5  6  1  0
  6  7  1  0
  7  8  1  6
  7  9  1  0
  9 10  1  0
 10 11  2  0
 10 12  1  0
 12 13  1  0
 13 14  1  0
 14 15  2  0
 14 16  1  0
 16 17  1  0
 17 18  2  0
 17 19  1  0
 19 20  2  0
 20 21  1  0
 21 22  2  0
 22 23  1  0
 23 24  2  0
  6 25  2  0
 25  2  1  0
 24 13  1  0
 24 19  1  0
M  END
>  <ref_mols>  (2149) 
B0517a

>  <gnina_score>  (2149) 
5.083

>  <smina_score_min>  (2149) 
-6.57

>  <ref_pdb>  (2149) 
B0517a

>  <inspiration_score>  (2149) 
None

>  <inchikey>  (2149) 
HNHLWAIPDOXOLE-CYBMUJFWSA-N

>  <tags>  (2149) 
BulkDock Fragalysis export,openbind_d68ev3c_c2_elabs_scored,openbind_d68ev3c_c2_elabs_scored_4.5plus,openbind_d68ev3c_c2_elabs,openbind_d68ev3c_c2_elabs_scored_5plus,syndirella_product,openbind_d68ev3c_c2_elabs_scored_top80percent,syndirella_placed

>  <smiles>  (2149) 
Cc1cccc([C@@H](C)NC(=O)Cn2c(=O)[nH]c(=O)c3ccccc32)c1

>  <subsites>  (2149) 
None

>  <rmsd(smina/fragmenstein)>  (2149) 
0.963

>  <alias>  (2149) 
None

>  <energy_score>  (2149) 
-7.181003

>  <HIPPO Pose ID>  (2149) 
143841

>  <distance_score>  (2149) 
0.488431

>  <HIPPO Compound ID>  (2149) 
168866

>  <gnina_score_min>  (2149) 
5.022

>  <name>  (2149) 
P143841

>  <exports>  (2149) 
['/opt/xchem-fragalysis-2/maxwin/BulkDock/OUTPUTS/openbind_d68ev3c_c2_elabs_1LOTQJ3.sdf', '/opt/xchem-fragalysis-2/maxwin/BulkDock/OUTPUTS/openbind_d68ev3c_c2_elabs_1LSYI5W.sdf']

$$$$
P143848
     RDKit          3D

 25 27  0  0  0  0  0  0  0  0999 V2000
    5.3330   -8.0666   39.2427 C   0  0  0  0  0  0  0  0  0  0  0  0
    3.8671   -7.9002   39.5377 C   0  0  0  0  0  0  0  0  0  0  0  0
    3.2707   -8.7444   40.4903 C   0  0  0  0  0  0  0  0  0  0  0  0
    1.9097   -8.6570   40.7810 C   0  0  0  0  0  0  0  0  0  0  0  0
    1.1278   -7.7062   40.1435 C   0  0  0  0  0  0  0  0  0  0  0  0
    1.7086   -6.8597   39.2092 C   0  0  0  0  0  0  0  0  0  0  0  0
    0.9220   -5.9137   38.6695 F   0  0  0  0  0  0  0  0  0  0  0  0
    3.0694   -6.9585   38.8534 C   0  0  0  0  0  0  0  0  0  0  0  0
    3.6684   -6.0619   37.7953 C   0  0  0  0  0  0  0  0  0  0  0  0
    2.6589   -5.5645   36.9132 N   0  0  0  0  0  0  0  0  0  0  0  0
    2.1891   -6.0797   35.5262 C   0  0  0  0  0  0  0  0  0  0  0  0
    2.6073   -6.9432   34.8571 O   0  0  0  0  0  0  0  0  0  0  0  0
    0.9325   -5.2397   35.2031 C   0  0  0  0  0  0  0  0  0  0  0  0
    0.2015   -5.8556   34.1105 N   0  0  0  0  0  0  0  0  0  0  0  0
   -0.7129   -6.8342   34.4609 C   0  0  0  0  0  0  0  0  0  0  0  0
   -1.0137   -7.1023   35.6223 O   0  0  0  0  0  0  0  0  0  0  0  0
   -1.2930   -7.5275   33.4414 N   0  0  0  0  0  0  0  0  0  0  0  0
   -1.0967   -7.3336   32.1050 C   0  0  0  0  0  0  0  0  0  0  0  0
   -1.6604   -8.0048   31.2468 O   0  0  0  0  0  0  0  0  0  0  0  0
   -0.1459   -6.2669   31.7516 C   0  0  0  0  0  0  0  0  0  0  0  0
    0.0902   -5.9746   30.4102 C   0  0  0  0  0  0  0  0  0  0  0  0
    1.0110   -4.9928   30.0537 C   0  0  0  0  0  0  0  0  0  0  0  0
    1.7128   -4.3190   31.0435 C   0  0  0  0  0  0  0  0  0  0  0  0
    1.4725   -4.6091   32.3882 C   0  0  0  0  0  0  0  0  0  0  0  0
    0.5215   -5.5736   32.7591 C   0  0  0  0  0  0  0  0  0  0  0  0
  1  2  1  0
  2  3  2  0
  3  4  1  0
  4  5  2  0
  5  6  1  0
  6  7  1  0
  6  8  2  0
  8  9  1  0
  9 10  1  0
 10 11  1  0
 11 12  2  0
 11 13  1  0
 13 14  1  0
 14 15  1  0
 15 16  2  0
 15 17  1  0
 17 18  1  0
 18 19  2  0
 18 20  1  0
 20 21  2  0
 21 22  1  0
 22 23  2  0
 23 24  1  0
 24 25  2  0
  8  2  1  0
 25 14  1  0
 25 20  1  0
M  END
>  <ref_mols>  (2150) 
B0517a

>  <gnina_score>  (2150) 
5.093

>  <smina_score_min>  (2150) 
-6.022

>  <ref_pdb>  (2150) 
B0517a

>  <inspiration_score>  (2150) 
None

>  <inchikey>  (2150) 
ZEIGFBZWMMKRNB-UHFFFAOYSA-N

>  <tags>  (2150) 
BulkDock Fragalysis export,openbind_d68ev3c_c2_elabs_scored,openbind_d68ev3c_c2_elabs_scored_4.5plus,openbind_d68ev3c_c2_elabs,openbind_d68ev3c_c2_elabs_scored_5plus,syndirella_product,openbind_d68ev3c_c2_elabs_scored_top80percent,syndirella_placed

>  <smiles>  (2150) 
Cc1cccc(F)c1CNC(=O)Cn1c(=O)[nH]c(=O)c2ccccc21

>  <subsites>  (2150) 
None

>  <rmsd(smina/fragmenstein)>  (2150) 
0.794

>  <alias>  (2150) 
None

>  <energy_score>  (2150) 
-11.217607

>  <HIPPO Pose ID>  (2150) 
143848

>  <distance_score>  (2150) 
0.543705

>  <HIPPO Compound ID>  (2150) 
168873

>  <gnina_score_min>  (2150) 
5.213

>  <name>  (2150) 
P143848

>  <exports>  (2150) 
['/opt/xchem-fragalysis-2/maxwin/BulkDock/OUTPUTS/openbind_d68ev3c_c2_elabs_1LOTQJ3.sdf', '/opt/xchem-fragalysis-2/maxwin/BulkDock/OUTPUTS/openbind_d68ev3c_c2_elabs_1LSYI5W.sdf']

$$$$
P143850
     RDKit          3D

 25 27  0  0  0  0  0  0  0  0999 V2000
    4.8118   -7.4212   36.8626 C   0  0  0  0  0  0  0  0  0  0  0  0
    3.9147   -6.4426   37.6118 C   0  0  1  0  0  0  0  0  0  0  0  0
    2.9119   -5.8277   36.7770 N   0  0  0  0  0  0  0  0  0  0  0  0
    2.2763   -6.3089   35.4399 C   0  0  0  0  0  0  0  0  0  0  0  0
    2.5251   -7.2387   34.7730 O   0  0  0  0  0  0  0  0  0  0  0  0
    1.1067   -5.3315   35.1797 C   0  0  0  0  0  0  0  0  0  0  0  0
    0.2830   -5.8650   34.1093 N   0  0  0  0  0  0  0  0  0  0  0  0
   -0.6461   -6.8243   34.4808 C   0  0  0  0  0  0  0  0  0  0  0  0
   -0.8929   -7.1073   35.6523 O   0  0  0  0  0  0  0  0  0  0  0  0
   -1.2853   -7.4859   33.4750 N   0  0  0  0  0  0  0  0  0  0  0  0
   -1.0953   -7.3121   32.1337 C   0  0  0  0  0  0  0  0  0  0  0  0
   -1.6664   -7.9928   31.2878 O   0  0  0  0  0  0  0  0  0  0  0  0
   -0.1400   -6.2564   31.7584 C   0  0  0  0  0  0  0  0  0  0  0  0
    0.0677   -5.9651   30.4117 C   0  0  0  0  0  0  0  0  0  0  0  0
    0.9882   -4.9902   30.0353 C   0  0  0  0  0  0  0  0  0  0  0  0
    1.7200   -4.3249   31.0082 C   0  0  0  0  0  0  0  0  0  0  0  0
    1.5126   -4.6179   32.3575 C   0  0  0  0  0  0  0  0  0  0  0  0
    0.5631   -5.5753   32.7505 C   0  0  0  0  0  0  0  0  0  0  0  0
    3.2414   -7.0870   38.8096 C   0  0  0  0  0  0  0  0  0  0  0  0
    1.9104   -7.5427   38.7681 C   0  0  0  0  0  0  0  0  0  0  0  0
    1.3029   -8.0891   39.8982 C   0  0  0  0  0  0  0  0  0  0  0  0
    2.0218   -8.2232   41.0806 C   0  0  0  0  0  0  0  0  0  0  0  0
    3.3458   -7.8001   41.1290 C   0  0  0  0  0  0  0  0  0  0  0  0
    4.2446   -7.9692   42.5878 Cl  0  0  0  0  0  0  0  0  0  0  0  0
    3.9549   -7.2326   40.0082 C   0  0  0  0  0  0  0  0  0  0  0  0
  2  1  1  6
  2  3  1  0
  3  4  1  0
  4  5  2  0
  4  6  1  0
  6  7  1  0
  7  8  1  0
  8  9  2  0
  8 10  1  0
 10 11  1  0
 11 12  2  0
 11 13  1  0
 13 14  2  0
 14 15  1  0
 15 16  2  0
 16 17  1  0
 17 18  2  0
  2 19  1  0
 19 20  2  0
 20 21  1  0
 21 22  2  0
 22 23  1  0
 23 24  1  0
 23 25  2  0
 18  7  1  0
 25 19  1  0
 18 13  1  0
M  END
>  <ref_mols>  (2151) 
B0517a

>  <gnina_score>  (2151) 
5.093

>  <smina_score_min>  (2151) 
-6.567

>  <ref_pdb>  (2151) 
B0517a

>  <inspiration_score>  (2151) 
None

>  <inchikey>  (2151) 
ANAUERIIMQCZCZ-LLVKDONJSA-N

>  <tags>  (2151) 
BulkDock Fragalysis export,openbind_d68ev3c_c2_elabs_scored,openbind_d68ev3c_c2_elabs_scored_4.5plus,openbind_d68ev3c_c2_elabs,openbind_d68ev3c_c2_elabs_scored_5plus,syndirella_product,openbind_d68ev3c_c2_elabs_scored_top80percent,syndirella_placed

>  <smiles>  (2151) 
C[C@@H](NC(=O)Cn1c(=O)[nH]c(=O)c2ccccc21)c1cccc(Cl)c1

>  <subsites>  (2151) 
None

>  <rmsd(smina/fragmenstein)>  (2151) 
0.948

>  <alias>  (2151) 
None

>  <energy_score>  (2151) 
-5.355027

>  <HIPPO Pose ID>  (2151) 
143850

>  <distance_score>  (2151) 
0.480679

>  <HIPPO Compound ID>  (2151) 
168874

>  <gnina_score_min>  (2151) 
5.039

>  <name>  (2151) 
P143850

>  <exports>  (2151) 
['/opt/xchem-fragalysis-2/maxwin/BulkDock/OUTPUTS/openbind_d68ev3c_c2_elabs_1LOTQJ3.sdf', '/opt/xchem-fragalysis-2/maxwin/BulkDock/OUTPUTS/openbind_d68ev3c_c2_elabs_1LSYI5W.sdf']

$$$$
P143852
     RDKit          3D

 25 27  0  0  0  0  0  0  0  0999 V2000
    4.7800   -7.5081   36.8723 C   0  0  0  0  0  0  0  0  0  0  0  0
    3.9134   -6.4958   37.6117 C   0  0  1  0  0  0  0  0  0  0  0  0
    2.9128   -5.8713   36.7820 N   0  0  0  0  0  0  0  0  0  0  0  0
    2.2910   -6.3293   35.4310 C   0  0  0  0  0  0  0  0  0  0  0  0
    2.5516   -7.2434   34.7472 O   0  0  0  0  0  0  0  0  0  0  0  0
    1.1173   -5.3534   35.1843 C   0  0  0  0  0  0  0  0  0  0  0  0
    0.2892   -5.8786   34.1133 N   0  0  0  0  0  0  0  0  0  0  0  0
   -0.6428   -6.8357   34.4824 C   0  0  0  0  0  0  0  0  0  0  0  0
   -0.8878   -7.1236   35.6529 O   0  0  0  0  0  0  0  0  0  0  0  0
   -1.2873   -7.4898   33.4752 N   0  0  0  0  0  0  0  0  0  0  0  0
   -1.0961   -7.3142   32.1344 C   0  0  0  0  0  0  0  0  0  0  0  0
   -1.6669   -7.9932   31.2870 O   0  0  0  0  0  0  0  0  0  0  0  0
   -0.1397   -6.2590   31.7613 C   0  0  0  0  0  0  0  0  0  0  0  0
    0.0662   -5.9630   30.4152 C   0  0  0  0  0  0  0  0  0  0  0  0
    0.9871   -4.9879   30.0409 C   0  0  0  0  0  0  0  0  0  0  0  0
    1.7214   -4.3271   31.0153 C   0  0  0  0  0  0  0  0  0  0  0  0
    1.5161   -4.6251   32.3639 C   0  0  0  0  0  0  0  0  0  0  0  0
    0.5663   -5.5830   32.7549 C   0  0  0  0  0  0  0  0  0  0  0  0
    3.2384   -7.1005   38.8296 C   0  0  0  0  0  0  0  0  0  0  0  0
    1.9101   -7.5704   38.7923 C   0  0  0  0  0  0  0  0  0  0  0  0
    1.2953   -8.0683   39.9409 C   0  0  0  0  0  0  0  0  0  0  0  0
    2.0102   -8.1294   41.1256 C   0  0  0  0  0  0  0  0  0  0  0  0
    1.4254   -8.6015   42.2343 F   0  0  0  0  0  0  0  0  0  0  0  0
    3.3308   -7.7027   41.1820 C   0  0  0  0  0  0  0  0  0  0  0  0
    3.9449   -7.1880   40.0389 C   0  0  0  0  0  0  0  0  0  0  0  0
  2  1  1  6
  2  3  1  0
  3  4  1  0
  4  5  2  0
  4  6  1  0
  6  7  1  0
  7  8  1  0
  8  9  2  0
  8 10  1  0
 10 11  1  0
 11 12  2  0
 11 13  1  0
 13 14  2  0
 14 15  1  0
 15 16  2  0
 16 17  1  0
 17 18  2  0
  2 19  1  0
 19 20  2  0
 20 21  1  0
 21 22  2  0
 22 23  1  0
 22 24  1  0
 24 25  2  0
 18  7  1  0
 25 19  1  0
 18 13  1  0
M  END
>  <ref_mols>  (2152) 
B0517a

>  <gnina_score>  (2152) 
5.034

>  <smina_score_min>  (2152) 
-6.537

>  <ref_pdb>  (2152) 
B0517a

>  <inspiration_score>  (2152) 
None

>  <inchikey>  (2152) 
LBRRFCTXOOEWKQ-LLVKDONJSA-N

>  <tags>  (2152) 
BulkDock Fragalysis export,openbind_d68ev3c_c2_elabs_scored,openbind_d68ev3c_c2_elabs_scored_4.5plus,openbind_d68ev3c_c2_elabs,openbind_d68ev3c_c2_elabs_scored_5plus,syndirella_product,openbind_d68ev3c_c2_elabs_scored_top80percent,syndirella_placed

>  <smiles>  (2152) 
C[C@@H](NC(=O)Cn1c(=O)[nH]c(=O)c2ccccc21)c1ccc(F)cc1

>  <subsites>  (2152) 
None

>  <rmsd(smina/fragmenstein)>  (2152) 
0.857

>  <alias>  (2152) 
None

>  <energy_score>  (2152) 
-7.777195

>  <HIPPO Pose ID>  (2152) 
143852

>  <distance_score>  (2152) 
0.495985

>  <HIPPO Compound ID>  (2152) 
168876

>  <gnina_score_min>  (2152) 
5.008

>  <name>  (2152) 
P143852

>  <exports>  (2152) 
['/opt/xchem-fragalysis-2/maxwin/BulkDock/OUTPUTS/openbind_d68ev3c_c2_elabs_1LOTQJ3.sdf', '/opt/xchem-fragalysis-2/maxwin/BulkDock/OUTPUTS/openbind_d68ev3c_c2_elabs_1LSYI5W.sdf']

$$$$
P143855
     RDKit          3D

 25 27  0  0  0  0  0  0  0  0999 V2000
    4.8041   -7.4663   36.8178 C   0  0  0  0  0  0  0  0  0  0  0  0
    3.9557   -6.4530   37.5805 C   0  0  1  0  0  0  0  0  0  0  0  0
    2.9381   -5.8358   36.7565 N   0  0  0  0  0  0  0  0  0  0  0  0
    2.2835   -6.3173   35.4283 C   0  0  0  0  0  0  0  0  0  0  0  0
    2.5226   -7.2477   34.7583 O   0  0  0  0  0  0  0  0  0  0  0  0
    1.1108   -5.3398   35.1833 C   0  0  0  0  0  0  0  0  0  0  0  0
    0.2816   -5.8665   34.1135 N   0  0  0  0  0  0  0  0  0  0  0  0
   -0.6468   -6.8268   34.4838 C   0  0  0  0  0  0  0  0  0  0  0  0
   -0.8914   -7.1137   35.6547 O   0  0  0  0  0  0  0  0  0  0  0  0
   -1.2879   -7.4856   33.4774 N   0  0  0  0  0  0  0  0  0  0  0  0
   -1.0964   -7.3118   32.1362 C   0  0  0  0  0  0  0  0  0  0  0  0
   -1.6657   -7.9934   31.2899 O   0  0  0  0  0  0  0  0  0  0  0  0
   -0.1421   -6.2551   31.7618 C   0  0  0  0  0  0  0  0  0  0  0  0
    0.0660   -5.9631   30.4152 C   0  0  0  0  0  0  0  0  0  0  0  0
    0.9854   -4.9869   30.0397 C   0  0  0  0  0  0  0  0  0  0  0  0
    1.7157   -4.3210   31.0135 C   0  0  0  0  0  0  0  0  0  0  0  0
    1.5082   -4.6150   32.3626 C   0  0  0  0  0  0  0  0  0  0  0  0
    0.5601   -5.5742   32.7547 C   0  0  0  0  0  0  0  0  0  0  0  0
    3.3013   -7.0611   38.8112 C   0  0  0  0  0  0  0  0  0  0  0  0
    1.9794   -7.5541   38.7403 C   0  0  0  0  0  0  0  0  0  0  0  0
    1.3338   -8.0744   39.8608 C   0  0  0  0  0  0  0  0  0  0  0  0
    2.0028   -8.1543   41.0726 C   0  0  0  0  0  0  0  0  0  0  0  0
    3.3164   -7.7031   41.1651 C   0  0  0  0  0  0  0  0  0  0  0  0
    3.9617   -7.1571   40.0480 C   0  0  0  0  0  0  0  0  0  0  0  0
    5.7468   -6.5535   40.3107 Br  0  0  0  0  0  0  0  0  0  0  0  0
  2  1  1  6
  2  3  1  0
  3  4  1  0
  4  5  2  0
  4  6  1  0
  6  7  1  0
  7  8  1  0
  8  9  2  0
  8 10  1  0
 10 11  1  0
 11 12  2  0
 11 13  1  0
 13 14  2  0
 14 15  1  0
 15 16  2  0
 16 17  1  0
 17 18  2  0
  2 19  1  0
 19 20  2  0
 20 21  1  0
 21 22  2  0
 22 23  1  0
 23 24  2  0
 24 25  1  0
 18  7  1  0
 24 19  1  0
 18 13  1  0
M  END
>  <ref_mols>  (2153) 
B0517a

>  <gnina_score>  (2153) 
5.196

>  <smina_score_min>  (2153) 
-6.234

>  <ref_pdb>  (2153) 
B0517a

>  <inspiration_score>  (2153) 
None

>  <inchikey>  (2153) 
ZPWJLNHNFHBWQU-LLVKDONJSA-N

>  <tags>  (2153) 
BulkDock Fragalysis export,openbind_d68ev3c_c2_elabs_scored,openbind_d68ev3c_c2_elabs_scored_4.5plus,openbind_d68ev3c_c2_elabs,openbind_d68ev3c_c2_elabs_scored_5plus,syndirella_product,openbind_d68ev3c_c2_elabs_scored_top80percent,syndirella_placed

>  <smiles>  (2153) 
C[C@@H](NC(=O)Cn1c(=O)[nH]c(=O)c2ccccc21)c1ccccc1Br

>  <subsites>  (2153) 
None

>  <rmsd(smina/fragmenstein)>  (2153) 
0.769

>  <alias>  (2153) 
None

>  <energy_score>  (2153) 
-8.999353

>  <HIPPO Pose ID>  (2153) 
143855

>  <distance_score>  (2153) 
0.486962

>  <HIPPO Compound ID>  (2153) 
168881

>  <gnina_score_min>  (2153) 
5.104

>  <name>  (2153) 
P143855

>  <exports>  (2153) 
['/opt/xchem-fragalysis-2/maxwin/BulkDock/OUTPUTS/openbind_d68ev3c_c2_elabs_1LOTQJ3.sdf', '/opt/xchem-fragalysis-2/maxwin/BulkDock/OUTPUTS/openbind_d68ev3c_c2_elabs_1LSYI5W.sdf']

$$$$
P143856
     RDKit          3D

 25 27  0  0  0  0  0  0  0  0999 V2000
    2.5621   -6.9749   34.9038 O   0  0  0  0  0  0  0  0  0  0  0  0
    2.1650   -6.0847   35.5508 C   0  0  0  0  0  0  0  0  0  0  0  0
    0.9252   -5.2288   35.2046 C   0  0  0  0  0  0  0  0  0  0  0  0
    0.1990   -5.8480   34.1109 N   0  0  0  0  0  0  0  0  0  0  0  0
   -0.7154   -6.8269   34.4616 C   0  0  0  0  0  0  0  0  0  0  0  0
   -1.0187   -7.0916   35.6234 O   0  0  0  0  0  0  0  0  0  0  0  0
   -1.2915   -7.5242   33.4428 N   0  0  0  0  0  0  0  0  0  0  0  0
   -1.0941   -7.3317   32.1063 C   0  0  0  0  0  0  0  0  0  0  0  0
   -1.6593   -8.0029   31.2493 O   0  0  0  0  0  0  0  0  0  0  0  0
   -0.1413   -6.2670   31.7523 C   0  0  0  0  0  0  0  0  0  0  0  0
    0.0985   -5.9793   30.4107 C   0  0  0  0  0  0  0  0  0  0  0  0
    1.0224   -5.0006   30.0536 C   0  0  0  0  0  0  0  0  0  0  0  0
    1.7232   -4.3255   31.0432 C   0  0  0  0  0  0  0  0  0  0  0  0
    1.4788   -4.6107   32.3882 C   0  0  0  0  0  0  0  0  0  0  0  0
    0.5245   -5.5717   32.7597 C   0  0  0  0  0  0  0  0  0  0  0  0
    2.6417   -5.5514   36.9294 N   0  0  0  0  0  0  0  0  0  0  0  0
    3.6327   -6.0580   37.8299 C   0  0  0  0  0  0  0  0  0  0  0  0
    3.0105   -6.9596   38.8560 C   0  0  0  0  0  0  0  0  0  0  0  0
    1.6456   -6.9453   39.1760 C   0  0  0  0  0  0  0  0  0  0  0  0
    0.8130   -6.0642   38.5988 F   0  0  0  0  0  0  0  0  0  0  0  0
    1.1060   -7.8155   40.1176 C   0  0  0  0  0  0  0  0  0  0  0  0
    1.9370   -8.7042   40.7915 C   0  0  0  0  0  0  0  0  0  0  0  0
    3.3037   -8.7083   40.5232 C   0  0  0  0  0  0  0  0  0  0  0  0
    3.8245   -7.8438   39.5633 C   0  0  0  0  0  0  0  0  0  0  0  0
    5.1427   -7.8727   39.3173 F   0  0  0  0  0  0  0  0  0  0  0  0
  1  2  2  0
  2  3  1  0
  3  4  1  0
  4  5  1  0
  5  6  2  0
  5  7  1  0
  7  8  1  0
  8  9  2  0
  8 10  1  0
 10 11  2  0
 11 12  1  0
 12 13  2  0
 13 14  1  0
 14 15  2  0
  2 16  1  0
 16 17  1  0
 17 18  1  0
 18 19  2  0
 19 20  1  0
 19 21  1  0
 21 22  2  0
 22 23  1  0
 23 24  2  0
 24 25  1  0
 15  4  1  0
 24 18  1  0
 15 10  1  0
M  END
>  <ref_mols>  (2154) 
B0517a

>  <gnina_score>  (2154) 
5.075

>  <smina_score_min>  (2154) 
-6.602

>  <ref_pdb>  (2154) 
B0517a

>  <inspiration_score>  (2154) 
None

>  <inchikey>  (2154) 
FXPNIGJCWBSSLY-UHFFFAOYSA-N

>  <tags>  (2154) 
BulkDock Fragalysis export,openbind_d68ev3c_c2_elabs_scored,openbind_d68ev3c_c2_elabs_scored_4.5plus,openbind_d68ev3c_c2_elabs,openbind_d68ev3c_c2_elabs_scored_5plus,syndirella_product,openbind_d68ev3c_c2_elabs_scored_top80percent,syndirella_placed

>  <smiles>  (2154) 
O=C(Cn1c(=O)[nH]c(=O)c2ccccc21)NCc1c(F)cccc1F

>  <subsites>  (2154) 
None

>  <rmsd(smina/fragmenstein)>  (2154) 
1.029

>  <alias>  (2154) 
None

>  <energy_score>  (2154) 
-14.949341

>  <HIPPO Pose ID>  (2154) 
143856

>  <distance_score>  (2154) 
0.543499

>  <HIPPO Compound ID>  (2154) 
168882

>  <gnina_score_min>  (2154) 
5.026

>  <name>  (2154) 
P143856

>  <exports>  (2154) 
['/opt/xchem-fragalysis-2/maxwin/BulkDock/OUTPUTS/openbind_d68ev3c_c2_elabs_1LOTQJ3.sdf', '/opt/xchem-fragalysis-2/maxwin/BulkDock/OUTPUTS/openbind_d68ev3c_c2_elabs_1LSYI5W.sdf']

$$$$
P143857
     RDKit          3D

 25 27  0  0  0  0  0  0  0  0999 V2000
    5.6764   -7.0306   39.8264 C   0  0  0  0  0  0  0  0  0  0  0  0
    4.2059   -7.3210   39.9951 C   0  0  0  0  0  0  0  0  0  0  0  0
    3.7728   -7.7767   41.2511 C   0  0  0  0  0  0  0  0  0  0  0  0
    2.4406   -8.0861   41.4793 C   0  0  0  0  0  0  0  0  0  0  0  0
    1.5235   -7.9455   40.4533 C   0  0  0  0  0  0  0  0  0  0  0  0
    1.9188   -7.4911   39.1832 C   0  0  0  0  0  0  0  0  0  0  0  0
    0.8195   -7.4143   38.1682 C   0  0  0  0  0  0  0  0  0  0  0  0
    3.2731   -7.1422   38.9390 C   0  0  0  0  0  0  0  0  0  0  0  0
    3.8027   -6.6905   37.5902 C   0  0  0  0  0  0  0  0  0  0  0  0
    2.8483   -5.9922   36.7858 N   0  0  0  0  0  0  0  0  0  0  0  0
    2.2830   -6.3220   35.3774 C   0  0  0  0  0  0  0  0  0  0  0  0
    2.5679   -7.1729   34.6263 O   0  0  0  0  0  0  0  0  0  0  0  0
    1.1299   -5.3140   35.1432 C   0  0  0  0  0  0  0  0  0  0  0  0
    0.2866   -5.8283   34.0750 N   0  0  0  0  0  0  0  0  0  0  0  0
   -0.6591   -6.7730   34.4441 C   0  0  0  0  0  0  0  0  0  0  0  0
   -0.9375   -7.0343   35.6131 O   0  0  0  0  0  0  0  0  0  0  0  0
   -1.2822   -7.4501   33.4391 N   0  0  0  0  0  0  0  0  0  0  0  0
   -1.0883   -7.2805   32.0988 C   0  0  0  0  0  0  0  0  0  0  0  0
   -1.6597   -7.9632   31.2547 O   0  0  0  0  0  0  0  0  0  0  0  0
   -0.1330   -6.2244   31.7245 C   0  0  0  0  0  0  0  0  0  0  0  0
    0.0735   -5.9317   30.3787 C   0  0  0  0  0  0  0  0  0  0  0  0
    0.9952   -4.9586   30.0008 C   0  0  0  0  0  0  0  0  0  0  0  0
    1.7298   -4.2954   30.9727 C   0  0  0  0  0  0  0  0  0  0  0  0
    1.5222   -4.5880   32.3218 C   0  0  0  0  0  0  0  0  0  0  0  0
    0.5708   -5.5435   32.7157 C   0  0  0  0  0  0  0  0  0  0  0  0
  1  2  1  0
  2  3  2  0
  3  4  1  0
  4  5  2  0
  5  6  1  0
  6  7  1  0
  6  8  2  0
  8  9  1  0
  9 10  1  0
 10 11  1  0
 11 12  2  0
 11 13  1  0
 13 14  1  0
 14 15  1  0
 15 16  2  0
 15 17  1  0
 17 18  1  0
 18 19  2  0
 18 20  1  0
 20 21  2  0
 21 22  1  0
 22 23  2  0
 23 24  1  0
 24 25  2  0
  8  2  1  0
 25 14  1  0
 25 20  1  0
M  END
>  <ref_mols>  (2155) 
B0517a

>  <gnina_score>  (2155) 
5.083

>  <smina_score_min>  (2155) 
-5.996

>  <ref_pdb>  (2155) 
B0517a

>  <inspiration_score>  (2155) 
None

>  <inchikey>  (2155) 
VJFJDELOEKHKOY-UHFFFAOYSA-N

>  <tags>  (2155) 
BulkDock Fragalysis export,openbind_d68ev3c_c2_elabs_scored,openbind_d68ev3c_c2_elabs_scored_4.5plus,openbind_d68ev3c_c2_elabs,openbind_d68ev3c_c2_elabs_scored_5plus,syndirella_product,openbind_d68ev3c_c2_elabs_scored_top80percent,syndirella_placed

>  <smiles>  (2155) 
Cc1cccc(C)c1CNC(=O)Cn1c(=O)[nH]c(=O)c2ccccc21

>  <subsites>  (2155) 
None

>  <rmsd(smina/fragmenstein)>  (2155) 
1.111

>  <alias>  (2155) 
None

>  <energy_score>  (2155) 
-14.153714

>  <HIPPO Pose ID>  (2155) 
143857

>  <distance_score>  (2155) 
0.645377

>  <HIPPO Compound ID>  (2155) 
168883

>  <gnina_score_min>  (2155) 
5.052

>  <name>  (2155) 
P143857

>  <exports>  (2155) 
['/opt/xchem-fragalysis-2/maxwin/BulkDock/OUTPUTS/openbind_d68ev3c_c2_elabs_1LOTQJ3.sdf', '/opt/xchem-fragalysis-2/maxwin/BulkDock/OUTPUTS/openbind_d68ev3c_c2_elabs_1LSYI5W.sdf']

$$$$
P143959
     RDKit          3D

 27 29  0  0  0  0  0  0  0  0999 V2000
    5.0948   -7.8709   37.0122 C   0  0  0  0  0  0  0  0  0  0  0  0
    4.2999   -6.7531   37.6819 C   0  0  1  0  0  0  0  0  0  0  0  0
    3.5898   -5.9328   36.7295 N   0  0  0  0  0  0  0  0  0  0  0  0
    2.9620   -6.2966   35.3520 C   0  0  0  0  0  0  0  0  0  0  0  0
    2.9925   -7.2979   34.7449 O   0  0  0  0  0  0  0  0  0  0  0  0
    2.1805   -5.0397   34.8962 C   0  0  0  0  0  0  0  0  0  0  0  0
    1.1328   -5.4781   33.9835 N   0  0  0  0  0  0  0  0  0  0  0  0
    0.0799   -6.1434   34.5909 C   0  0  0  0  0  0  0  0  0  0  0  0
   -0.0358   -6.1702   35.8187 O   0  0  0  0  0  0  0  0  0  0  0  0
   -0.8035   -6.8058   33.7644 N   0  0  0  0  0  0  0  0  0  0  0  0
   -1.8277   -7.5263   34.4604 C   0  0  0  0  0  0  0  0  0  0  0  0
   -0.7602   -6.8238   32.3824 C   0  0  0  0  0  0  0  0  0  0  0  0
   -1.5011   -7.4835   31.6551 O   0  0  0  0  0  0  0  0  0  0  0  0
    0.2723   -5.9613   31.7742 C   0  0  0  0  0  0  0  0  0  0  0  0
    0.2865   -5.7748   30.3900 C   0  0  0  0  0  0  0  0  0  0  0  0
    1.2533   -4.9629   29.7987 C   0  0  0  0  0  0  0  0  0  0  0  0
    2.2242   -4.3685   30.5879 C   0  0  0  0  0  0  0  0  0  0  0  0
    3.5590   -3.3005   29.7819 Br  0  0  0  0  0  0  0  0  0  0  0  0
    2.2172   -4.5513   31.9693 C   0  0  0  0  0  0  0  0  0  0  0  0
    1.2243   -5.3346   32.5814 C   0  0  0  0  0  0  0  0  0  0  0  0
    3.3676   -7.2698   38.7639 C   0  0  0  0  0  0  0  0  0  0  0  0
    3.9156   -7.7469   39.9673 C   0  0  0  0  0  0  0  0  0  0  0  0
    3.0957   -8.2209   40.9957 C   0  0  0  0  0  0  0  0  0  0  0  0
    1.7122   -8.2118   40.8446 C   0  0  0  0  0  0  0  0  0  0  0  0
    1.1598   -7.7337   39.6666 C   0  0  0  0  0  0  0  0  0  0  0  0
   -0.1720   -7.6863   39.5353 F   0  0  0  0  0  0  0  0  0  0  0  0
    1.9681   -7.2803   38.6284 C   0  0  0  0  0  0  0  0  0  0  0  0
  2  1  1  6
  2  3  1  0
  3  4  1  0
  4  5  2  0
  4  6  1  0
  6  7  1  0
  7  8  1  0
  8  9  2  0
  8 10  1  0
 10 11  1  0
 10 12  1  0
 12 13  2  0
 12 14  1  0
 14 15  2  0
 15 16  1  0
 16 17  2  0
 17 18  1  0
 17 19  1  0
 19 20  2  0
  2 21  1  0
 21 22  2  0
 22 23  1  0
 23 24  2  0
 24 25  1  0
 25 26  1  0
 25 27  2  0
 20  7  1  0
 27 21  1  0
 20 14  1  0
M  END
>  <ref_mols>  (2156) 
B0517a

>  <gnina_score>  (2156) 
5.045

>  <smina_score_min>  (2156) 
-5.06

>  <ref_pdb>  (2156) 
B0517a

>  <inspiration_score>  (2156) 
None

>  <inchikey>  (2156) 
ZJWCDITVVSVORN-LLVKDONJSA-N

>  <tags>  (2156) 
BulkDock Fragalysis export,openbind_d68ev3c_c2_elabs_scored,openbind_d68ev3c_c2_elabs_scored_4.5plus,openbind_d68ev3c_c2_elabs,openbind_d68ev3c_c2_elabs_scored_5plus,syndirella_product,openbind_d68ev3c_c2_elabs_scored_top80percent,syndirella_placed

>  <smiles>  (2156) 
C[C@@H](NC(=O)Cn1c(=O)n(C)c(=O)c2ccc(Br)cc21)c1cccc(F)c1

>  <subsites>  (2156) 
None

>  <rmsd(smina/fragmenstein)>  (2156) 
0.66

>  <alias>  (2156) 
None

>  <energy_score>  (2156) 
-1.892838

>  <HIPPO Pose ID>  (2156) 
143959

>  <distance_score>  (2156) 
0.739945

>  <HIPPO Compound ID>  (2156) 
169007

>  <gnina_score_min>  (2156) 
5.078

>  <name>  (2156) 
P143959

>  <exports>  (2156) 
['/opt/xchem-fragalysis-2/maxwin/BulkDock/OUTPUTS/openbind_d68ev3c_c2_elabs_1LOTQJ3.sdf', '/opt/xchem-fragalysis-2/maxwin/BulkDock/OUTPUTS/openbind_d68ev3c_c2_elabs_1LSYI5W.sdf']

$$$$
P143960
     RDKit          3D

 27 29  0  0  0  0  0  0  0  0999 V2000
    0.8830   -8.5687   42.0745 C   0  0  0  0  0  0  0  0  0  0  0  0
    1.7504   -8.0802   40.9530 C   0  0  0  0  0  0  0  0  0  0  0  0
    1.2102   -7.8746   39.6867 C   0  0  0  0  0  0  0  0  0  0  0  0
    2.0294   -7.4930   38.6260 C   0  0  0  0  0  0  0  0  0  0  0  0
    3.4132   -7.2957   38.8010 C   0  0  0  0  0  0  0  0  0  0  0  0
    4.2820   -6.9278   37.6209 C   0  0  0  0  0  0  0  0  0  0  0  0
    3.5797   -6.0704   36.7107 N   0  0  0  0  0  0  0  0  0  0  0  0
    2.9594   -6.3692   35.3208 C   0  0  0  0  0  0  0  0  0  0  0  0
    2.9922   -7.3400   34.6690 O   0  0  0  0  0  0  0  0  0  0  0  0
    2.1834   -5.0918   34.9143 C   0  0  0  0  0  0  0  0  0  0  0  0
    1.1224   -5.4996   34.0028 N   0  0  0  0  0  0  0  0  0  0  0  0
    0.0723   -6.1724   34.6069 C   0  0  0  0  0  0  0  0  0  0  0  0
   -0.0352   -6.2216   35.8353 O   0  0  0  0  0  0  0  0  0  0  0  0
   -0.8176   -6.8194   33.7751 N   0  0  0  0  0  0  0  0  0  0  0  0
   -1.8466   -7.5378   34.4651 C   0  0  0  0  0  0  0  0  0  0  0  0
   -0.7718   -6.8324   32.3928 C   0  0  0  0  0  0  0  0  0  0  0  0
   -1.5124   -7.4883   31.6619 O   0  0  0  0  0  0  0  0  0  0  0  0
    0.2624   -5.9691   31.7895 C   0  0  0  0  0  0  0  0  0  0  0  0
    0.2802   -5.7792   30.4054 C   0  0  0  0  0  0  0  0  0  0  0  0
    1.2475   -4.9647   29.8190 C   0  0  0  0  0  0  0  0  0  0  0  0
    2.2147   -4.3702   30.6132 C   0  0  0  0  0  0  0  0  0  0  0  0
    3.5490   -3.2964   29.8143 Br  0  0  0  0  0  0  0  0  0  0  0  0
    2.2047   -4.5575   31.9942 C   0  0  0  0  0  0  0  0  0  0  0  0
    1.2127   -5.3458   32.6013 C   0  0  0  0  0  0  0  0  0  0  0  0
    3.9681   -7.5294   40.0752 C   0  0  0  0  0  0  0  0  0  0  0  0
    5.4417   -7.3839   40.3420 C   0  0  0  0  0  0  0  0  0  0  0  0
    3.1272   -7.9127   41.1356 C   0  0  0  0  0  0  0  0  0  0  0  0
  1  2  1  0
  2  3  2  0
  3  4  1  0
  4  5  2  0
  5  6  1  0
  6  7  1  0
  7  8  1  0
  8  9  2  0
  8 10  1  0
 10 11  1  0
 11 12  1  0
 12 13  2  0
 12 14  1  0
 14 15  1  0
 14 16  1  0
 16 17  2  0
 16 18  1  0
 18 19  2  0
 19 20  1  0
 20 21  2  0
 21 22  1  0
 21 23  1  0
 23 24  2  0
  5 25  1  0
 25 26  1  0
 25 27  2  0
 27  2  1  0
 24 11  1  0
 24 18  1  0
M  END
>  <ref_mols>  (2157) 
B0517a

>  <gnina_score>  (2157) 
5.086

>  <smina_score_min>  (2157) 
-5.363

>  <ref_pdb>  (2157) 
B0517a

>  <inspiration_score>  (2157) 
None

>  <inchikey>  (2157) 
ADVPMHQZIBDPCU-UHFFFAOYSA-N

>  <tags>  (2157) 
BulkDock Fragalysis export,openbind_d68ev3c_c2_elabs_scored,openbind_d68ev3c_c2_elabs_scored_4.5plus,openbind_d68ev3c_c2_elabs,openbind_d68ev3c_c2_elabs_scored_5plus,syndirella_product,openbind_d68ev3c_c2_elabs_scored_top80percent,syndirella_placed

>  <smiles>  (2157) 
Cc1ccc(CNC(=O)Cn2c(=O)n(C)c(=O)c3ccc(Br)cc32)c(C)c1

>  <subsites>  (2157) 
None

>  <rmsd(smina/fragmenstein)>  (2157) 
1.179

>  <alias>  (2157) 
None

>  <energy_score>  (2157) 
-8.487371

>  <HIPPO Pose ID>  (2157) 
143960

>  <distance_score>  (2157) 
0.757362

>  <HIPPO Compound ID>  (2157) 
169008

>  <gnina_score_min>  (2157) 
5.022

>  <name>  (2157) 
P143960

>  <exports>  (2157) 
['/opt/xchem-fragalysis-2/maxwin/BulkDock/OUTPUTS/openbind_d68ev3c_c2_elabs_1LOTQJ3.sdf', '/opt/xchem-fragalysis-2/maxwin/BulkDock/OUTPUTS/openbind_d68ev3c_c2_elabs_1LSYI5W.sdf']

$$$$
P143962
     RDKit          3D

 27 29  0  0  0  0  0  0  0  0999 V2000
    5.1211   -7.8271   36.9576 C   0  0  0  0  0  0  0  0  0  0  0  0
    4.3661   -6.6882   37.6369 C   0  0  1  0  0  0  0  0  0  0  0  0
    3.6194   -5.8751   36.7012 N   0  0  0  0  0  0  0  0  0  0  0  0
    2.9653   -6.2456   35.3387 C   0  0  0  0  0  0  0  0  0  0  0  0
    2.9968   -7.2448   34.7287 O   0  0  0  0  0  0  0  0  0  0  0  0
    2.1458   -5.0039   34.9154 C   0  0  0  0  0  0  0  0  0  0  0  0
    1.1044   -5.4530   34.0000 N   0  0  0  0  0  0  0  0  0  0  0  0
    0.0608   -6.1376   34.6021 C   0  0  0  0  0  0  0  0  0  0  0  0
   -0.0616   -6.1769   35.8295 O   0  0  0  0  0  0  0  0  0  0  0  0
   -0.8131   -6.8055   33.7689 N   0  0  0  0  0  0  0  0  0  0  0  0
   -1.8342   -7.5356   34.4570 C   0  0  0  0  0  0  0  0  0  0  0  0
   -0.7655   -6.8199   32.3869 C   0  0  0  0  0  0  0  0  0  0  0  0
   -1.5062   -7.4776   31.6577 O   0  0  0  0  0  0  0  0  0  0  0  0
    0.2692   -5.9576   31.7838 C   0  0  0  0  0  0  0  0  0  0  0  0
    0.2976   -5.7831   30.3980 C   0  0  0  0  0  0  0  0  0  0  0  0
    1.2699   -4.9757   29.8100 C   0  0  0  0  0  0  0  0  0  0  0  0
    2.2308   -4.3723   30.6050 C   0  0  0  0  0  0  0  0  0  0  0  0
    3.5733   -3.3102   29.8041 Br  0  0  0  0  0  0  0  0  0  0  0  0
    2.2086   -4.5424   31.9880 C   0  0  0  0  0  0  0  0  0  0  0  0
    1.2101   -5.3214   32.5967 C   0  0  0  0  0  0  0  0  0  0  0  0
    3.4615   -7.1861   38.7486 C   0  0  0  0  0  0  0  0  0  0  0  0
    2.0909   -7.4293   38.5430 C   0  0  0  0  0  0  0  0  0  0  0  0
    1.2776   -7.8909   39.5787 C   0  0  0  0  0  0  0  0  0  0  0  0
    1.8199   -8.1396   40.8339 C   0  0  0  0  0  0  0  0  0  0  0  0
    3.1759   -7.9173   41.0589 C   0  0  0  0  0  0  0  0  0  0  0  0
    3.9830   -7.4447   40.0224 C   0  0  0  0  0  0  0  0  0  0  0  0
    5.3162   -7.2310   40.2474 O   0  0  0  0  0  0  0  0  0  0  0  0
  2  1  1  6
  2  3  1  0
  3  4  1  0
  4  5  2  0
  4  6  1  0
  6  7  1  0
  7  8  1  0
  8  9  2  0
  8 10  1  0
 10 11  1  0
 10 12  1  0
 12 13  2  0
 12 14  1  0
 14 15  2  0
 15 16  1  0
 16 17  2  0
 17 18  1  0
 17 19  1  0
 19 20  2  0
  2 21  1  0
 21 22  2  0
 22 23  1  0
 23 24  2  0
 24 25  1  0
 25 26  2  0
 26 27  1  0
 20  7  1  0
 26 21  1  0
 20 14  1  0
M  END
>  <ref_mols>  (2158) 
B0517a

>  <gnina_score>  (2158) 
4.951

>  <smina_score_min>  (2158) 
-4.971

>  <ref_pdb>  (2158) 
B0517a

>  <inspiration_score>  (2158) 
None

>  <inchikey>  (2158) 
OXORNNGBDQKUML-LLVKDONJSA-N

>  <tags>  (2158) 
BulkDock Fragalysis export,openbind_d68ev3c_c2_elabs_scored,openbind_d68ev3c_c2_elabs_scored_4.5plus,openbind_d68ev3c_c2_elabs,openbind_d68ev3c_c2_elabs_scored_5plus,syndirella_product,openbind_d68ev3c_c2_elabs_scored_top80percent,syndirella_placed

>  <smiles>  (2158) 
C[C@@H](NC(=O)Cn1c(=O)n(C)c(=O)c2ccc(Br)cc21)c1ccccc1O

>  <subsites>  (2158) 
None

>  <rmsd(smina/fragmenstein)>  (2158) 
0.872

>  <alias>  (2158) 
None

>  <energy_score>  (2158) 
-14.663122

>  <HIPPO Pose ID>  (2158) 
143962

>  <distance_score>  (2158) 
0.740573

>  <HIPPO Compound ID>  (2158) 
169010

>  <gnina_score_min>  (2158) 
5.001

>  <name>  (2158) 
P143962

>  <exports>  (2158) 
['/opt/xchem-fragalysis-2/maxwin/BulkDock/OUTPUTS/openbind_d68ev3c_c2_elabs_1LOTQJ3.sdf', '/opt/xchem-fragalysis-2/maxwin/BulkDock/OUTPUTS/openbind_d68ev3c_c2_elabs_1LSYI5W.sdf']

$$$$
P143963
     RDKit          3D

 27 29  0  0  0  0  0  0  0  0999 V2000
   -1.8405   -7.5318   34.4541 C   0  0  0  0  0  0  0  0  0  0  0  0
   -0.8306   -6.7892   33.7631 N   0  0  0  0  0  0  0  0  0  0  0  0
   -0.7669   -6.8213   32.3826 C   0  0  0  0  0  0  0  0  0  0  0  0
   -1.4947   -7.4915   31.6515 O   0  0  0  0  0  0  0  0  0  0  0  0
    0.2715   -5.9612   31.7820 C   0  0  0  0  0  0  0  0  0  0  0  0
    0.3091   -5.7908   30.3962 C   0  0  0  0  0  0  0  0  0  0  0  0
    1.2911   -4.9920   29.8121 C   0  0  0  0  0  0  0  0  0  0  0  0
    2.2511   -4.3923   30.6115 C   0  0  0  0  0  0  0  0  0  0  0  0
    3.6035   -3.3387   29.8160 Br  0  0  0  0  0  0  0  0  0  0  0  0
    2.2197   -4.5582   31.9948 C   0  0  0  0  0  0  0  0  0  0  0  0
    1.2131   -5.3303   32.5981 C   0  0  0  0  0  0  0  0  0  0  0  0
    1.0940   -5.4506   34.0008 N   0  0  0  0  0  0  0  0  0  0  0  0
    2.1586   -5.0689   34.9201 C   0  0  0  0  0  0  0  0  0  0  0  0
    2.9243   -6.3616   35.3031 C   0  0  0  0  0  0  0  0  0  0  0  0
    2.9522   -7.3183   34.6298 O   0  0  0  0  0  0  0  0  0  0  0  0
    3.5382   -6.0999   36.7049 N   0  0  0  0  0  0  0  0  0  0  0  0
    4.2262   -6.9857   37.6016 C   0  0  0  0  0  0  0  0  0  0  0  0
    3.3798   -7.3192   38.8000 C   0  0  0  0  0  0  0  0  0  0  0  0
    2.0157   -7.6161   38.6477 C   0  0  0  0  0  0  0  0  0  0  0  0
    1.4600   -7.6189   37.4295 F   0  0  0  0  0  0  0  0  0  0  0  0
    1.2008   -7.9424   39.7270 C   0  0  0  0  0  0  0  0  0  0  0  0
    1.7441   -8.0182   41.0012 C   0  0  0  0  0  0  0  0  0  0  0  0
    3.1013   -7.7622   41.1820 C   0  0  0  0  0  0  0  0  0  0  0  0
    3.9128   -7.4198   40.0922 C   0  0  0  0  0  0  0  0  0  0  0  0
    5.5889   -7.1449   40.4194 Cl  0  0  0  0  0  0  0  0  0  0  0  0
    0.0188   -6.0899   34.5967 C   0  0  0  0  0  0  0  0  0  0  0  0
   -0.1504   -6.0643   35.8179 O   0  0  0  0  0  0  0  0  0  0  0  0
  1  2  1  0
  2  3  1  0
  3  4  2  0
  3  5  1  0
  5  6  2  0
  6  7  1  0
  7  8  2  0
  8  9  1  0
  8 10  1  0
 10 11  2  0
 11 12  1  0
 12 13  1  0
 13 14  1  0
 14 15  2  0
 14 16  1  0
 16 17  1  0
 17 18  1  0
 18 19  2  0
 19 20  1  0
 19 21  1  0
 21 22  2  0
 22 23  1  0
 23 24  2  0
 24 25  1  0
 12 26  1  0
 26 27  2  0
 26  2  1  0
 11  5  1  0
 24 18  1  0
M  END
>  <ref_mols>  (2159) 
B0517a

>  <gnina_score>  (2159) 
5.116

>  <smina_score_min>  (2159) 
-4.861

>  <ref_pdb>  (2159) 
B0517a

>  <inspiration_score>  (2159) 
None

>  <inchikey>  (2159) 
VZBWHPGCGMCLDX-UHFFFAOYSA-N

>  <tags>  (2159) 
BulkDock Fragalysis export,openbind_d68ev3c_c2_elabs_scored,openbind_d68ev3c_c2_elabs_scored_4.5plus,openbind_d68ev3c_c2_elabs,openbind_d68ev3c_c2_elabs_scored_5plus,syndirella_product,openbind_d68ev3c_c2_elabs_scored_top80percent,syndirella_placed

>  <smiles>  (2159) 
Cn1c(=O)c2ccc(Br)cc2n(CC(=O)NCc2c(F)cccc2Cl)c1=O

>  <subsites>  (2159) 
None

>  <rmsd(smina/fragmenstein)>  (2159) 
0.865

>  <alias>  (2159) 
None

>  <energy_score>  (2159) 
-1.166446

>  <HIPPO Pose ID>  (2159) 
143963

>  <distance_score>  (2159) 
0.766816

>  <HIPPO Compound ID>  (2159) 
169014

>  <gnina_score_min>  (2159) 
5.072

>  <name>  (2159) 
P143963

>  <exports>  (2159) 
['/opt/xchem-fragalysis-2/maxwin/BulkDock/OUTPUTS/openbind_d68ev3c_c2_elabs_1LOTQJ3.sdf', '/opt/xchem-fragalysis-2/maxwin/BulkDock/OUTPUTS/openbind_d68ev3c_c2_elabs_1LSYI5W.sdf']

$$$$
P143968
     RDKit          3D

 27 29  0  0  0  0  0  0  0  0999 V2000
    5.1112   -7.8477   36.9654 C   0  0  0  0  0  0  0  0  0  0  0  0
    4.3723   -6.6983   37.6460 C   0  0  1  0  0  0  0  0  0  0  0  0
    3.6233   -5.8873   36.7096 N   0  0  0  0  0  0  0  0  0  0  0  0
    2.9716   -6.2598   35.3459 C   0  0  0  0  0  0  0  0  0  0  0  0
    3.0072   -7.2589   34.7356 O   0  0  0  0  0  0  0  0  0  0  0  0
    2.1531   -5.0186   34.9179 C   0  0  0  0  0  0  0  0  0  0  0  0
    1.1116   -5.4695   34.0040 N   0  0  0  0  0  0  0  0  0  0  0  0
    0.0701   -6.1558   34.6080 C   0  0  0  0  0  0  0  0  0  0  0  0
   -0.0399   -6.2051   35.8362 O   0  0  0  0  0  0  0  0  0  0  0  0
   -0.8121   -6.8140   33.7762 N   0  0  0  0  0  0  0  0  0  0  0  0
   -1.8396   -7.5352   34.4656 C   0  0  0  0  0  0  0  0  0  0  0  0
   -0.7667   -6.8277   32.3940 C   0  0  0  0  0  0  0  0  0  0  0  0
   -1.5066   -7.4862   31.6645 O   0  0  0  0  0  0  0  0  0  0  0  0
    0.2664   -5.9642   31.7896 C   0  0  0  0  0  0  0  0  0  0  0  0
    0.2895   -5.7851   30.4041 C   0  0  0  0  0  0  0  0  0  0  0  0
    1.2582   -4.9739   29.8153 C   0  0  0  0  0  0  0  0  0  0  0  0
    2.2212   -4.3720   30.6087 C   0  0  0  0  0  0  0  0  0  0  0  0
    3.5591   -3.3051   29.8066 Br  0  0  0  0  0  0  0  0  0  0  0  0
    2.2048   -4.5473   31.9912 C   0  0  0  0  0  0  0  0  0  0  0  0
    1.2100   -5.3302   32.6010 C   0  0  0  0  0  0  0  0  0  0  0  0
    3.4732   -7.1829   38.7710 C   0  0  0  0  0  0  0  0  0  0  0  0
    2.1059   -7.4435   38.5447 C   0  0  0  0  0  0  0  0  0  0  0  0
    1.2714   -7.8900   39.5702 C   0  0  0  0  0  0  0  0  0  0  0  0
    1.7850   -8.1113   40.8407 C   0  0  0  0  0  0  0  0  0  0  0  0
    3.1340   -7.8743   41.0881 C   0  0  0  0  0  0  0  0  0  0  0  0
    3.9713   -7.4134   40.0657 C   0  0  0  0  0  0  0  0  0  0  0  0
    5.6318   -7.1454   40.4745 Cl  0  0  0  0  0  0  0  0  0  0  0  0
  2  1  1  6
  2  3  1  0
  3  4  1  0
  4  5  2  0
  4  6  1  0
  6  7  1  0
  7  8  1  0
  8  9  2  0
  8 10  1  0
 10 11  1  0
 10 12  1  0
 12 13  2  0
 12 14  1  0
 14 15  2  0
 15 16  1  0
 16 17  2  0
 17 18  1  0
 17 19  1  0
 19 20  2  0
  2 21  1  0
 21 22  2  0
 22 23  1  0
 23 24  2  0
 24 25  1  0
 25 26  2  0
 26 27  1  0
 20  7  1  0
 26 21  1  0
 20 14  1  0
M  END
>  <ref_mols>  (2160) 
B0517a

>  <gnina_score>  (2160) 
5.095

>  <smina_score_min>  (2160) 
-5.006

>  <ref_pdb>  (2160) 
B0517a

>  <inspiration_score>  (2160) 
None

>  <inchikey>  (2160) 
NCGFJZANAZXFNL-LLVKDONJSA-N

>  <tags>  (2160) 
BulkDock Fragalysis export,openbind_d68ev3c_c2_elabs_scored,openbind_d68ev3c_c2_elabs_scored_4.5plus,openbind_d68ev3c_c2_elabs,openbind_d68ev3c_c2_elabs_scored_5plus,syndirella_product,openbind_d68ev3c_c2_elabs_scored_top80percent,syndirella_placed

>  <smiles>  (2160) 
C[C@@H](NC(=O)Cn1c(=O)n(C)c(=O)c2ccc(Br)cc21)c1ccccc1Cl

>  <subsites>  (2160) 
None

>  <rmsd(smina/fragmenstein)>  (2160) 
0.886

>  <alias>  (2160) 
None

>  <energy_score>  (2160) 
-6.039794

>  <HIPPO Pose ID>  (2160) 
143968

>  <distance_score>  (2160) 
0.744557

>  <HIPPO Compound ID>  (2160) 
169020

>  <gnina_score_min>  (2160) 
5.14

>  <name>  (2160) 
P143968

>  <exports>  (2160) 
['/opt/xchem-fragalysis-2/maxwin/BulkDock/OUTPUTS/openbind_d68ev3c_c2_elabs_1LOTQJ3.sdf', '/opt/xchem-fragalysis-2/maxwin/BulkDock/OUTPUTS/openbind_d68ev3c_c2_elabs_1LSYI5W.sdf']

$$$$
P143970
     RDKit          3D

 27 29  0  0  0  0  0  0  0  0999 V2000
   -1.8465   -7.5434   34.4607 C   0  0  0  0  0  0  0  0  0  0  0  0
   -0.8227   -6.8153   33.7736 N   0  0  0  0  0  0  0  0  0  0  0  0
   -0.7714   -6.8304   32.3919 C   0  0  0  0  0  0  0  0  0  0  0  0
   -1.5073   -7.4905   31.6599 O   0  0  0  0  0  0  0  0  0  0  0  0
    0.2642   -5.9674   31.7910 C   0  0  0  0  0  0  0  0  0  0  0  0
    0.3019   -5.8013   30.4043 C   0  0  0  0  0  0  0  0  0  0  0  0
    1.2774   -4.9964   29.8181 C   0  0  0  0  0  0  0  0  0  0  0  0
    2.2324   -4.3874   30.6160 C   0  0  0  0  0  0  0  0  0  0  0  0
    3.5810   -3.3311   29.8177 Br  0  0  0  0  0  0  0  0  0  0  0  0
    2.2003   -4.5483   31.9998 C   0  0  0  0  0  0  0  0  0  0  0  0
    1.1972   -5.3229   32.6064 C   0  0  0  0  0  0  0  0  0  0  0  0
    1.0800   -5.4434   34.0098 N   0  0  0  0  0  0  0  0  0  0  0  0
    2.0993   -4.9598   34.9312 C   0  0  0  0  0  0  0  0  0  0  0  0
    2.9617   -6.1692   35.3618 C   0  0  0  0  0  0  0  0  0  0  0  0
    3.0502   -7.1609   34.7448 O   0  0  0  0  0  0  0  0  0  0  0  0
    3.5912   -5.7724   36.7301 N   0  0  0  0  0  0  0  0  0  0  0  0
    4.3856   -6.5556   37.6695 C   0  0  0  0  0  0  0  0  0  0  0  0
    5.1348   -7.6915   36.9543 C   0  0  0  0  0  0  0  0  0  0  0  0
    5.4227   -5.5850   38.2735 C   0  0  0  0  0  0  0  0  0  0  0  0
    3.4712   -7.1457   38.7540 C   0  0  0  0  0  0  0  0  0  0  0  0
    4.0046   -7.6305   39.9616 C   0  0  0  0  0  0  0  0  0  0  0  0
    3.1841   -8.1856   40.9478 C   0  0  0  0  0  0  0  0  0  0  0  0
    1.8120   -8.2781   40.7462 C   0  0  0  0  0  0  0  0  0  0  0  0
    1.2596   -7.8163   39.5589 C   0  0  0  0  0  0  0  0  0  0  0  0
    2.0789   -7.2639   38.5726 C   0  0  0  0  0  0  0  0  0  0  0  0
    0.0419   -6.1381   34.6084 C   0  0  0  0  0  0  0  0  0  0  0  0
   -0.0842   -6.1742   35.8353 O   0  0  0  0  0  0  0  0  0  0  0  0
  1  2  1  0
  2  3  1  0
  3  4  2  0
  3  5  1  0
  5  6  2  0
  6  7  1  0
  7  8  2  0
  8  9  1  0
  8 10  1  0
 10 11  2  0
 11 12  1  0
 12 13  1  0
 13 14  1  0
 14 15  2  0
 14 16  1  0
 16 17  1  0
 17 18  1  0
 17 19  1  0
 17 20  1  0
 20 21  2  0
 21 22  1  0
 22 23  2  0
 23 24  1  0
 24 25  2  0
 12 26  1  0
 26 27  2  0
 26  2  1  0
 11  5  1  0
 25 20  1  0
M  END
>  <ref_mols>  (2161) 
B0517a

>  <gnina_score>  (2161) 
5.046

>  <smina_score_min>  (2161) 
-4.879

>  <ref_pdb>  (2161) 
B0517a

>  <inspiration_score>  (2161) 
None

>  <inchikey>  (2161) 
CAPINYODGLMHFN-UHFFFAOYSA-N

>  <tags>  (2161) 
BulkDock Fragalysis export,openbind_d68ev3c_c2_elabs_scored,openbind_d68ev3c_c2_elabs_scored_4.5plus,openbind_d68ev3c_c2_elabs,openbind_d68ev3c_c2_elabs_scored_5plus,syndirella_product,openbind_d68ev3c_c2_elabs_scored_top80percent,syndirella_placed

>  <smiles>  (2161) 
Cn1c(=O)c2ccc(Br)cc2n(CC(=O)NC(C)(C)c2ccccc2)c1=O

>  <subsites>  (2161) 
None

>  <rmsd(smina/fragmenstein)>  (2161) 
0.704

>  <alias>  (2161) 
None

>  <energy_score>  (2161) 
-15.942264

>  <HIPPO Pose ID>  (2161) 
143970

>  <distance_score>  (2161) 
0.723946

>  <HIPPO Compound ID>  (2161) 
169023

>  <gnina_score_min>  (2161) 
5.127

>  <name>  (2161) 
P143970

>  <exports>  (2161) 
['/opt/xchem-fragalysis-2/maxwin/BulkDock/OUTPUTS/openbind_d68ev3c_c2_elabs_1LOTQJ3.sdf', '/opt/xchem-fragalysis-2/maxwin/BulkDock/OUTPUTS/openbind_d68ev3c_c2_elabs_1LSYI5W.sdf']

$$$$
P143973
     RDKit          3D

 27 29  0  0  0  0  0  0  0  0999 V2000
   -0.0791   -7.3500   40.0276 C   0  0  0  0  0  0  0  0  0  0  0  0
    1.4039   -7.5554   40.0206 C   0  0  0  0  0  0  0  0  0  0  0  0
    2.1276   -7.3200   38.8395 C   0  0  0  0  0  0  0  0  0  0  0  0
    3.5270   -7.4529   38.7985 C   0  0  0  0  0  0  0  0  0  0  0  0
    4.3328   -7.2061   37.5487 C   0  0  0  0  0  0  0  0  0  0  0  0
    3.6628   -6.3030   36.6614 N   0  0  0  0  0  0  0  0  0  0  0  0
    2.9783   -6.5575   35.2947 C   0  0  0  0  0  0  0  0  0  0  0  0
    2.9221   -7.5277   34.6445 O   0  0  0  0  0  0  0  0  0  0  0  0
    2.2735   -5.2308   34.9100 C   0  0  0  0  0  0  0  0  0  0  0  0
    1.1745   -5.5683   34.0138 N   0  0  0  0  0  0  0  0  0  0  0  0
    0.1106   -6.2139   34.6251 C   0  0  0  0  0  0  0  0  0  0  0  0
    0.0171   -6.2691   35.8547 O   0  0  0  0  0  0  0  0  0  0  0  0
   -0.8049   -6.8300   33.7967 N   0  0  0  0  0  0  0  0  0  0  0  0
   -1.8460   -7.5290   34.4884 C   0  0  0  0  0  0  0  0  0  0  0  0
   -0.7663   -6.8412   32.4135 C   0  0  0  0  0  0  0  0  0  0  0  0
   -1.5164   -7.4885   31.6848 O   0  0  0  0  0  0  0  0  0  0  0  0
    0.2705   -5.9838   31.8066 C   0  0  0  0  0  0  0  0  0  0  0  0
    0.2703   -5.7734   30.4251 C   0  0  0  0  0  0  0  0  0  0  0  0
    1.2337   -4.9549   29.8381 C   0  0  0  0  0  0  0  0  0  0  0  0
    2.2142   -4.3769   30.6286 C   0  0  0  0  0  0  0  0  0  0  0  0
    3.5400   -3.2930   29.8291 Br  0  0  0  0  0  0  0  0  0  0  0  0
    2.2244   -4.5881   32.0066 C   0  0  0  0  0  0  0  0  0  0  0  0
    1.2397   -5.3844   32.6143 C   0  0  0  0  0  0  0  0  0  0  0  0
    4.1891   -7.8838   39.9528 C   0  0  0  0  0  0  0  0  0  0  0  0
    3.4758   -8.1590   41.1196 C   0  0  0  0  0  0  0  0  0  0  0  0
    2.0912   -7.9965   41.1553 C   0  0  0  0  0  0  0  0  0  0  0  0
    1.2770   -8.3445   42.6393 Cl  0  0  0  0  0  0  0  0  0  0  0  0
  1  2  1  0
  2  3  2  0
  3  4  1  0
  4  5  1  0
  5  6  1  0
  6  7  1  0
  7  8  2  0
  7  9  1  0
  9 10  1  0
 10 11  1  0
 11 12  2  0
 11 13  1  0
 13 14  1  0
 13 15  1  0
 15 16  2  0
 15 17  1  0
 17 18  2  0
 18 19  1  0
 19 20  2  0
 20 21  1  0
 20 22  1  0
 22 23  2  0
  4 24  2  0
 24 25  1  0
 25 26  2  0
 26 27  1  0
 26  2  1  0
 23 10  1  0
 23 17  1  0
M  END
>  <ref_mols>  (2162) 
B0517a

>  <gnina_score>  (2162) 
5.071

>  <smina_score_min>  (2162) 
-5.179

>  <ref_pdb>  (2162) 
B0517a

>  <inspiration_score>  (2162) 
None

>  <inchikey>  (2162) 
DGIRNRDUQINISE-UHFFFAOYSA-N

>  <tags>  (2162) 
BulkDock Fragalysis export,openbind_d68ev3c_c2_elabs_scored,openbind_d68ev3c_c2_elabs_scored_4.5plus,openbind_d68ev3c_c2_elabs,openbind_d68ev3c_c2_elabs_scored_5plus,syndirella_product,openbind_d68ev3c_c2_elabs_scored_top80percent,syndirella_placed

>  <smiles>  (2162) 
Cc1cc(CNC(=O)Cn2c(=O)n(C)c(=O)c3ccc(Br)cc32)ccc1Cl

>  <subsites>  (2162) 
None

>  <rmsd(smina/fragmenstein)>  (2162) 
0.716

>  <alias>  (2162) 
None

>  <energy_score>  (2162) 
-6.021058

>  <HIPPO Pose ID>  (2162) 
143973

>  <distance_score>  (2162) 
0.853802

>  <HIPPO Compound ID>  (2162) 
169029

>  <gnina_score_min>  (2162) 
5.053

>  <name>  (2162) 
P143973

>  <exports>  (2162) 
['/opt/xchem-fragalysis-2/maxwin/BulkDock/OUTPUTS/openbind_d68ev3c_c2_elabs_1LOTQJ3.sdf', '/opt/xchem-fragalysis-2/maxwin/BulkDock/OUTPUTS/openbind_d68ev3c_c2_elabs_1LSYI5W.sdf']

$$$$
P143975
     RDKit          3D

 27 29  0  0  0  0  0  0  0  0999 V2000
   -1.8241   -7.5153   34.4854 C   0  0  0  0  0  0  0  0  0  0  0  0
   -0.7907   -6.8152   33.7820 N   0  0  0  0  0  0  0  0  0  0  0  0
   -0.7612   -6.8326   32.3988 C   0  0  0  0  0  0  0  0  0  0  0  0
   -1.5140   -7.4852   31.6776 O   0  0  0  0  0  0  0  0  0  0  0  0
    0.2683   -5.9733   31.7811 C   0  0  0  0  0  0  0  0  0  0  0  0
    0.2561   -5.7638   30.4000 C   0  0  0  0  0  0  0  0  0  0  0  0
    1.2103   -4.9403   29.8043 C   0  0  0  0  0  0  0  0  0  0  0  0
    2.1965   -4.3591   30.5842 C   0  0  0  0  0  0  0  0  0  0  0  0
    3.5108   -3.2710   29.7718 Br  0  0  0  0  0  0  0  0  0  0  0  0
    2.2192   -4.5694   31.9613 C   0  0  0  0  0  0  0  0  0  0  0  0
    1.2418   -5.3682   32.5783 C   0  0  0  0  0  0  0  0  0  0  0  0
    1.1873   -5.5472   33.9778 N   0  0  0  0  0  0  0  0  0  0  0  0
    2.2848   -5.1885   34.8654 C   0  0  0  0  0  0  0  0  0  0  0  0
    2.9873   -6.5036   35.2872 C   0  0  0  0  0  0  0  0  0  0  0  0
    2.9397   -7.4926   34.6651 O   0  0  0  0  0  0  0  0  0  0  0  0
    3.6467   -6.2107   36.6594 N   0  0  0  0  0  0  0  0  0  0  0  0
    4.2961   -7.0899   37.5865 C   0  0  0  0  0  0  0  0  0  0  0  0
    3.4037   -7.4559   38.7490 C   0  0  0  0  0  0  0  0  0  0  0  0
    2.1474   -6.8445   38.9432 C   0  0  0  0  0  0  0  0  0  0  0  0
    1.3585   -7.1606   40.0494 C   0  0  0  0  0  0  0  0  0  0  0  0
   -0.2371   -6.2026   40.3615 Br  0  0  0  0  0  0  0  0  0  0  0  0
    1.7743   -8.1185   40.9631 C   0  0  0  0  0  0  0  0  0  0  0  0
    3.0064   -8.7423   40.7854 C   0  0  0  0  0  0  0  0  0  0  0  0
    3.8188   -8.4070   39.6967 C   0  0  0  0  0  0  0  0  0  0  0  0
    5.4927   -9.3013   39.5650 Br  0  0  0  0  0  0  0  0  0  0  0  0
    0.1266   -6.1882   34.6009 C   0  0  0  0  0  0  0  0  0  0  0  0
    0.0376   -6.2275   35.8311 O   0  0  0  0  0  0  0  0  0  0  0  0
  1  2  1  0
  2  3  1  0
  3  4  2  0
  3  5  1  0
  5  6  2  0
  6  7  1  0
  7  8  2  0
  8  9  1  0
  8 10  1  0
 10 11  2  0
 11 12  1  0
 12 13  1  0
 13 14  1  0
 14 15  2  0
 14 16  1  0
 16 17  1  0
 17 18  1  0
 18 19  2  0
 19 20  1  0
 20 21  1  0
 20 22  2  0
 22 23  1  0
 23 24  2  0
 24 25  1  0
 12 26  1  0
 26 27  2  0
 26  2  1  0
 11  5  1  0
 24 18  1  0
M  END
>  <ref_mols>  (2163) 
B0517a

>  <gnina_score>  (2163) 
5.152

>  <smina_score_min>  (2163) 
-5.1

>  <ref_pdb>  (2163) 
B0517a

>  <inspiration_score>  (2163) 
None

>  <inchikey>  (2163) 
FUMYNOPGXZTVKQ-UHFFFAOYSA-N

>  <tags>  (2163) 
BulkDock Fragalysis export,openbind_d68ev3c_c2_elabs_scored,openbind_d68ev3c_c2_elabs_scored_4.5plus,openbind_d68ev3c_c2_elabs,openbind_d68ev3c_c2_elabs_scored_5plus,syndirella_product,openbind_d68ev3c_c2_elabs_scored_top80percent,syndirella_placed

>  <smiles>  (2163) 
Cn1c(=O)c2ccc(Br)cc2n(CC(=O)NCc2cc(Br)ccc2Br)c1=O

>  <subsites>  (2163) 
None

>  <rmsd(smina/fragmenstein)>  (2163) 
0.714

>  <alias>  (2163) 
None

>  <energy_score>  (2163) 
-3.05821

>  <HIPPO Pose ID>  (2163) 
143975

>  <distance_score>  (2163) 
0.857509

>  <HIPPO Compound ID>  (2163) 
169034

>  <gnina_score_min>  (2163) 
5.14

>  <name>  (2163) 
P143975

>  <exports>  (2163) 
['/opt/xchem-fragalysis-2/maxwin/BulkDock/OUTPUTS/openbind_d68ev3c_c2_elabs_1LOTQJ3.sdf', '/opt/xchem-fragalysis-2/maxwin/BulkDock/OUTPUTS/openbind_d68ev3c_c2_elabs_1LSYI5W.sdf']

$$$$
P143976
     RDKit          3D

 27 29  0  0  0  0  0  0  0  0999 V2000
    5.3863   -8.8137   39.6968 C   0  0  0  0  0  0  0  0  0  0  0  0
    3.9839   -8.2697   39.7733 C   0  0  0  0  0  0  0  0  0  0  0  0
    3.1844   -8.6231   40.8725 C   0  0  0  0  0  0  0  0  0  0  0  0
    1.8792   -8.1522   40.9893 C   0  0  0  0  0  0  0  0  0  0  0  0
    1.3604   -7.3254   40.0050 C   0  0  0  0  0  0  0  0  0  0  0  0
   -0.2055   -6.6514   40.2037 Cl  0  0  0  0  0  0  0  0  0  0  0  0
    2.1252   -6.9863   38.8911 C   0  0  0  0  0  0  0  0  0  0  0  0
    3.4543   -7.4393   38.7608 C   0  0  0  0  0  0  0  0  0  0  0  0
    4.3136   -7.0637   37.5741 C   0  0  0  0  0  0  0  0  0  0  0  0
    3.6386   -6.1879   36.6646 N   0  0  0  0  0  0  0  0  0  0  0  0
    2.9795   -6.4764   35.2914 C   0  0  0  0  0  0  0  0  0  0  0  0
    2.9531   -7.4568   34.6546 O   0  0  0  0  0  0  0  0  0  0  0  0
    2.2558   -5.1682   34.8844 C   0  0  0  0  0  0  0  0  0  0  0  0
    1.1677   -5.5341   33.9883 N   0  0  0  0  0  0  0  0  0  0  0  0
    0.1087   -6.1836   34.6037 C   0  0  0  0  0  0  0  0  0  0  0  0
    0.0110   -6.2251   35.8331 O   0  0  0  0  0  0  0  0  0  0  0  0
   -0.7994   -6.8162   33.7796 N   0  0  0  0  0  0  0  0  0  0  0  0
   -1.8303   -7.5241   34.4776 C   0  0  0  0  0  0  0  0  0  0  0  0
   -0.7641   -6.8310   32.3967 C   0  0  0  0  0  0  0  0  0  0  0  0
   -1.5147   -7.4827   31.6722 O   0  0  0  0  0  0  0  0  0  0  0  0
    0.2684   -5.9716   31.7848 C   0  0  0  0  0  0  0  0  0  0  0  0
    0.2670   -5.7677   30.4027 C   0  0  0  0  0  0  0  0  0  0  0  0
    1.2275   -4.9488   29.8110 C   0  0  0  0  0  0  0  0  0  0  0  0
    2.2080   -4.3653   30.5967 C   0  0  0  0  0  0  0  0  0  0  0  0
    3.5311   -3.2835   29.7902 Br  0  0  0  0  0  0  0  0  0  0  0  0
    2.2189   -4.5688   31.9753 C   0  0  0  0  0  0  0  0  0  0  0  0
    1.2351   -5.3629   32.5880 C   0  0  0  0  0  0  0  0  0  0  0  0
  1  2  1  0
  2  3  2  0
  3  4  1  0
  4  5  2  0
  5  6  1  0
  5  7  1  0
  7  8  2  0
  8  9  1  0
  9 10  1  0
 10 11  1  0
 11 12  2  0
 11 13  1  0
 13 14  1  0
 14 15  1  0
 15 16  2  0
 15 17  1  0
 17 18  1  0
 17 19  1  0
 19 20  2  0
 19 21  1  0
 21 22  2  0
 22 23  1  0
 23 24  2  0
 24 25  1  0
 24 26  1  0
 26 27  2  0
  8  2  1  0
 27 14  1  0
 27 21  1  0
M  END
>  <ref_mols>  (2164) 
B0517a

>  <gnina_score>  (2164) 
5.173

>  <smina_score_min>  (2164) 
-5.071

>  <ref_pdb>  (2164) 
B0517a

>  <inspiration_score>  (2164) 
None

>  <inchikey>  (2164) 
CYKZKPHUQSALCQ-UHFFFAOYSA-N

>  <tags>  (2164) 
BulkDock Fragalysis export,openbind_d68ev3c_c2_elabs_scored,openbind_d68ev3c_c2_elabs_scored_4.5plus,openbind_d68ev3c_c2_elabs,openbind_d68ev3c_c2_elabs_scored_5plus,syndirella_product,openbind_d68ev3c_c2_elabs_scored_top80percent,syndirella_placed

>  <smiles>  (2164) 
Cc1ccc(Cl)cc1CNC(=O)Cn1c(=O)n(C)c(=O)c2ccc(Br)cc21

>  <subsites>  (2164) 
None

>  <rmsd(smina/fragmenstein)>  (2164) 
0.696

>  <alias>  (2164) 
None

>  <energy_score>  (2164) 
-14.58258

>  <HIPPO Pose ID>  (2164) 
143976

>  <distance_score>  (2164) 
0.834932

>  <HIPPO Compound ID>  (2164) 
169035

>  <gnina_score_min>  (2164) 
5.116

>  <name>  (2164) 
P143976

>  <exports>  (2164) 
['/opt/xchem-fragalysis-2/maxwin/BulkDock/OUTPUTS/openbind_d68ev3c_c2_elabs_1LOTQJ3.sdf', '/opt/xchem-fragalysis-2/maxwin/BulkDock/OUTPUTS/openbind_d68ev3c_c2_elabs_1LSYI5W.sdf']

$$$$
P143977
     RDKit          3D

 27 29  0  0  0  0  0  0  0  0999 V2000
   -1.8512   -7.5367   34.4709 C   0  0  0  0  0  0  0  0  0  0  0  0
   -0.8132   -6.8321   33.7802 N   0  0  0  0  0  0  0  0  0  0  0  0
   -0.7699   -6.8443   32.3975 C   0  0  0  0  0  0  0  0  0  0  0  0
   -1.5143   -7.4969   31.6677 O   0  0  0  0  0  0  0  0  0  0  0  0
    0.2656   -5.9830   31.7936 C   0  0  0  0  0  0  0  0  0  0  0  0
    0.2711   -5.7763   30.4118 C   0  0  0  0  0  0  0  0  0  0  0  0
    1.2352   -4.9572   29.8266 C   0  0  0  0  0  0  0  0  0  0  0  0
    2.2114   -4.3754   30.6193 C   0  0  0  0  0  0  0  0  0  0  0  0
    3.5396   -3.2928   29.8220 Br  0  0  0  0  0  0  0  0  0  0  0  0
    2.2152   -4.5814   31.9979 C   0  0  0  0  0  0  0  0  0  0  0  0
    1.2281   -5.3762   32.6039 C   0  0  0  0  0  0  0  0  0  0  0  0
    1.1530   -5.5518   34.0038 N   0  0  0  0  0  0  0  0  0  0  0  0
    2.2305   -5.1776   34.9099 C   0  0  0  0  0  0  0  0  0  0  0  0
    2.9548   -6.4821   35.3291 C   0  0  0  0  0  0  0  0  0  0  0  0
    2.9718   -7.4514   34.6749 O   0  0  0  0  0  0  0  0  0  0  0  0
    3.5571   -6.2055   36.7310 N   0  0  0  0  0  0  0  0  0  0  0  0
    4.2179   -7.0864   37.6522 C   0  0  0  0  0  0  0  0  0  0  0  0
    3.3374   -7.4119   38.8357 C   0  0  0  0  0  0  0  0  0  0  0  0
    1.9354   -7.4674   38.6758 C   0  0  0  0  0  0  0  0  0  0  0  0
    1.0899   -7.7916   39.7379 C   0  0  0  0  0  0  0  0  0  0  0  0
    1.6309   -8.0868   40.9797 C   0  0  0  0  0  0  0  0  0  0  0  0
    0.5961   -8.4792   42.2975 Cl  0  0  0  0  0  0  0  0  0  0  0  0
    3.0099   -8.0694   41.1647 C   0  0  0  0  0  0  0  0  0  0  0  0
    3.8596   -7.7447   40.0981 C   0  0  0  0  0  0  0  0  0  0  0  0
    5.9224   -7.8273   40.5084 I   0  0  0  0  0  0  0  0  0  0  0  0
    0.0908   -6.2033   34.6103 C   0  0  0  0  0  0  0  0  0  0  0  0
   -0.0122   -6.2532   35.8392 O   0  0  0  0  0  0  0  0  0  0  0  0
  1  2  1  0
  2  3  1  0
  3  4  2  0
  3  5  1  0
  5  6  2  0
  6  7  1  0
  7  8  2  0
  8  9  1  0
  8 10  1  0
 10 11  2  0
 11 12  1  0
 12 13  1  0
 13 14  1  0
 14 15  2  0
 14 16  1  0
 16 17  1  0
 17 18  1  0
 18 19  2  0
 19 20  1  0
 20 21  2  0
 21 22  1  0
 21 23  1  0
 23 24  2  0
 24 25  1  0
 12 26  1  0
 26 27  2  0
 26  2  1  0
 11  5  1  0
 24 18  1  0
M  END
>  <ref_mols>  (2165) 
B0517a

>  <gnina_score>  (2165) 
5.164

>  <smina_score_min>  (2165) 
-5.279

>  <ref_pdb>  (2165) 
B0517a

>  <inspiration_score>  (2165) 
None

>  <inchikey>  (2165) 
AZYCANOQZLOTRM-UHFFFAOYSA-N

>  <tags>  (2165) 
BulkDock Fragalysis export,openbind_d68ev3c_c2_elabs_scored,openbind_d68ev3c_c2_elabs_scored_4.5plus,openbind_d68ev3c_c2_elabs,openbind_d68ev3c_c2_elabs_scored_5plus,syndirella_product,openbind_d68ev3c_c2_elabs_scored_top80percent,syndirella_placed

>  <smiles>  (2165) 
Cn1c(=O)c2ccc(Br)cc2n(CC(=O)NCc2ccc(Cl)cc2I)c1=O

>  <subsites>  (2165) 
None

>  <rmsd(smina/fragmenstein)>  (2165) 
1.012

>  <alias>  (2165) 
None

>  <energy_score>  (2165) 
-2.970246

>  <HIPPO Pose ID>  (2165) 
143977

>  <distance_score>  (2165) 
0.776919

>  <HIPPO Compound ID>  (2165) 
169036

>  <gnina_score_min>  (2165) 
5.052

>  <name>  (2165) 
P143977

>  <exports>  (2165) 
['/opt/xchem-fragalysis-2/maxwin/BulkDock/OUTPUTS/openbind_d68ev3c_c2_elabs_1LOTQJ3.sdf', '/opt/xchem-fragalysis-2/maxwin/BulkDock/OUTPUTS/openbind_d68ev3c_c2_elabs_1LSYI5W.sdf']

$$$$
P143979
     RDKit          3D

 27 29  0  0  0  0  0  0  0  0999 V2000
    5.0992   -7.8942   37.0159 C   0  0  0  0  0  0  0  0  0  0  0  0
    4.3465   -6.7410   37.6699 C   0  0  1  0  0  0  0  0  0  0  0  0
    3.6186   -5.9274   36.7256 N   0  0  0  0  0  0  0  0  0  0  0  0
    2.9754   -6.2980   35.3574 C   0  0  0  0  0  0  0  0  0  0  0  0
    3.0045   -7.3002   34.7518 O   0  0  0  0  0  0  0  0  0  0  0  0
    2.1757   -5.0489   34.9136 C   0  0  0  0  0  0  0  0  0  0  0  0
    1.1301   -5.4930   34.0011 N   0  0  0  0  0  0  0  0  0  0  0  0
    0.0834   -6.1695   34.6076 C   0  0  0  0  0  0  0  0  0  0  0  0
   -0.0238   -6.2161   35.8362 O   0  0  0  0  0  0  0  0  0  0  0  0
   -0.8059   -6.8203   33.7779 N   0  0  0  0  0  0  0  0  0  0  0  0
   -1.8380   -7.5332   34.4692 C   0  0  0  0  0  0  0  0  0  0  0  0
   -0.7635   -6.8335   32.3955 C   0  0  0  0  0  0  0  0  0  0  0  0
   -1.5060   -7.4901   31.6671 O   0  0  0  0  0  0  0  0  0  0  0  0
    0.2696   -5.9710   31.7894 C   0  0  0  0  0  0  0  0  0  0  0  0
    0.2848   -5.7836   30.4049 C   0  0  0  0  0  0  0  0  0  0  0  0
    1.2510   -4.9702   29.8153 C   0  0  0  0  0  0  0  0  0  0  0  0
    2.2202   -4.3752   30.6063 C   0  0  0  0  0  0  0  0  0  0  0  0
    3.5548   -3.3052   29.8027 Br  0  0  0  0  0  0  0  0  0  0  0  0
    2.2125   -4.5596   31.9877 C   0  0  0  0  0  0  0  0  0  0  0  0
    1.2202   -5.3447   32.5987 C   0  0  0  0  0  0  0  0  0  0  0  0
    3.4266   -7.2136   38.7808 C   0  0  0  0  0  0  0  0  0  0  0  0
    2.0613   -7.4769   38.5720 C   0  0  0  0  0  0  0  0  0  0  0  0
    1.2408   -7.8930   39.6231 C   0  0  0  0  0  0  0  0  0  0  0  0
    1.7799   -8.0726   40.8909 C   0  0  0  0  0  0  0  0  0  0  0  0
    0.6754   -8.6415   42.3155 Br  0  0  0  0  0  0  0  0  0  0  0  0
    3.1329   -7.8356   41.1170 C   0  0  0  0  0  0  0  0  0  0  0  0
    3.9508   -7.4078   40.0680 C   0  0  0  0  0  0  0  0  0  0  0  0
  2  1  1  6
  2  3  1  0
  3  4  1  0
  4  5  2  0
  4  6  1  0
  6  7  1  0
  7  8  1  0
  8  9  2  0
  8 10  1  0
 10 11  1  0
 10 12  1  0
 12 13  2  0
 12 14  1  0
 14 15  2  0
 15 16  1  0
 16 17  2  0
 17 18  1  0
 17 19  1  0
 19 20  2  0
  2 21  1  0
 21 22  2  0
 22 23  1  0
 23 24  2  0
 24 25  1  0
 24 26  1  0
 26 27  2  0
 20  7  1  0
 27 21  1  0
 20 14  1  0
M  END
>  <ref_mols>  (2166) 
B0517a

>  <gnina_score>  (2166) 
5.08

>  <smina_score_min>  (2166) 
-5.202

>  <ref_pdb>  (2166) 
B0517a

>  <inspiration_score>  (2166) 
None

>  <inchikey>  (2166) 
NQUBONILUGFVCD-LLVKDONJSA-N

>  <tags>  (2166) 
BulkDock Fragalysis export,openbind_d68ev3c_c2_elabs_scored,openbind_d68ev3c_c2_elabs_scored_4.5plus,openbind_d68ev3c_c2_elabs,openbind_d68ev3c_c2_elabs_scored_5plus,syndirella_product,openbind_d68ev3c_c2_elabs_scored_top80percent,syndirella_placed

>  <smiles>  (2166) 
C[C@@H](NC(=O)Cn1c(=O)n(C)c(=O)c2ccc(Br)cc21)c1ccc(Br)cc1

>  <subsites>  (2166) 
None

>  <rmsd(smina/fragmenstein)>  (2166) 
0.871

>  <alias>  (2166) 
None

>  <energy_score>  (2166) 
-7.174026

>  <HIPPO Pose ID>  (2166) 
143979

>  <distance_score>  (2166) 
0.750454

>  <HIPPO Compound ID>  (2166) 
169037

>  <gnina_score_min>  (2166) 
5.108

>  <name>  (2166) 
P143979

>  <exports>  (2166) 
['/opt/xchem-fragalysis-2/maxwin/BulkDock/OUTPUTS/openbind_d68ev3c_c2_elabs_1LOTQJ3.sdf', '/opt/xchem-fragalysis-2/maxwin/BulkDock/OUTPUTS/openbind_d68ev3c_c2_elabs_1LSYI5W.sdf']

$$$$
P143980
     RDKit          3D

 27 29  0  0  0  0  0  0  0  0999 V2000
    3.6313   -8.7870   42.3566 C   0  0  0  0  0  0  0  0  0  0  0  0
    3.1168   -8.2492   41.0470 C   0  0  0  0  0  0  0  0  0  0  0  0
    1.7283   -8.2501   40.8487 C   0  0  0  0  0  0  0  0  0  0  0  0
    1.1789   -7.8022   39.6558 C   0  0  0  0  0  0  0  0  0  0  0  0
    2.0084   -7.3412   38.6399 C   0  0  0  0  0  0  0  0  0  0  0  0
    3.4094   -7.2986   38.7940 C   0  0  0  0  0  0  0  0  0  0  0  0
    4.2800   -6.8217   37.6516 C   0  0  0  0  0  0  0  0  0  0  0  0
    3.5636   -5.9869   36.7275 N   0  0  0  0  0  0  0  0  0  0  0  0
    2.9523   -6.3142   35.3389 C   0  0  0  0  0  0  0  0  0  0  0  0
    3.0045   -7.2924   34.6992 O   0  0  0  0  0  0  0  0  0  0  0  0
    2.1620   -5.0523   34.9132 C   0  0  0  0  0  0  0  0  0  0  0  0
    1.1126   -5.4813   33.9987 N   0  0  0  0  0  0  0  0  0  0  0  0
    0.0627   -6.1548   34.6012 C   0  0  0  0  0  0  0  0  0  0  0  0
   -0.0562   -6.1923   35.8292 O   0  0  0  0  0  0  0  0  0  0  0  0
   -0.8175   -6.8145   33.7692 N   0  0  0  0  0  0  0  0  0  0  0  0
   -1.8420   -7.5391   34.4582 C   0  0  0  0  0  0  0  0  0  0  0  0
   -0.7706   -6.8284   32.3870 C   0  0  0  0  0  0  0  0  0  0  0  0
   -1.5128   -7.4844   31.6578 O   0  0  0  0  0  0  0  0  0  0  0  0
    0.2646   -5.9665   31.7838 C   0  0  0  0  0  0  0  0  0  0  0  0
    0.2872   -5.7830   30.3991 C   0  0  0  0  0  0  0  0  0  0  0  0
    1.2575   -4.9722   29.8123 C   0  0  0  0  0  0  0  0  0  0  0  0
    2.2226   -4.3751   30.6069 C   0  0  0  0  0  0  0  0  0  0  0  0
    3.5613   -3.3073   29.8074 Br  0  0  0  0  0  0  0  0  0  0  0  0
    2.2071   -4.5552   31.9888 C   0  0  0  0  0  0  0  0  0  0  0  0
    1.2112   -5.3383   32.5963 C   0  0  0  0  0  0  0  0  0  0  0  0
    3.9544   -7.7807   40.0078 C   0  0  0  0  0  0  0  0  0  0  0  0
    6.0741   -7.8611   40.2739 I   0  0  0  0  0  0  0  0  0  0  0  0
  1  2  1  0
  2  3  2  0
  3  4  1  0
  4  5  2  0
  5  6  1  0
  6  7  1  0
  7  8  1  0
  8  9  1  0
  9 10  2  0
  9 11  1  0
 11 12  1  0
 12 13  1  0
 13 14  2  0
 13 15  1  0
 15 16  1  0
 15 17  1  0
 17 18  2  0
 17 19  1  0
 19 20  2  0
 20 21  1  0
 21 22  2  0
 22 23  1  0
 22 24  1  0
 24 25  2  0
  6 26  2  0
 26 27  1  0
 26  2  1  0
 25 12  1  0
 25 19  1  0
M  END
>  <ref_mols>  (2167) 
B0517a

>  <gnina_score>  (2167) 
5.152

>  <smina_score_min>  (2167) 
-5.299

>  <ref_pdb>  (2167) 
B0517a

>  <inspiration_score>  (2167) 
None

>  <inchikey>  (2167) 
XTEYXRPEAUELDA-UHFFFAOYSA-N

>  <tags>  (2167) 
BulkDock Fragalysis export,openbind_d68ev3c_c2_elabs_scored,openbind_d68ev3c_c2_elabs_scored_4.5plus,openbind_d68ev3c_c2_elabs,openbind_d68ev3c_c2_elabs_scored_5plus,syndirella_product,openbind_d68ev3c_c2_elabs_scored_top80percent,syndirella_placed

>  <smiles>  (2167) 
Cc1cccc(CNC(=O)Cn2c(=O)n(C)c(=O)c3ccc(Br)cc32)c1I

>  <subsites>  (2167) 
None

>  <rmsd(smina/fragmenstein)>  (2167) 
1.123

>  <alias>  (2167) 
None

>  <energy_score>  (2167) 
-14.785952

>  <HIPPO Pose ID>  (2167) 
143980

>  <distance_score>  (2167) 
0.743924

>  <HIPPO Compound ID>  (2167) 
169038

>  <gnina_score_min>  (2167) 
5.005

>  <name>  (2167) 
P143980

>  <exports>  (2167) 
['/opt/xchem-fragalysis-2/maxwin/BulkDock/OUTPUTS/openbind_d68ev3c_c2_elabs_1LOTQJ3.sdf', '/opt/xchem-fragalysis-2/maxwin/BulkDock/OUTPUTS/openbind_d68ev3c_c2_elabs_1LSYI5W.sdf']

$$$$
P143985
     RDKit          3D

 27 29  0  0  0  0  0  0  0  0999 V2000
   -1.8417   -7.5295   34.4727 C   0  0  0  0  0  0  0  0  0  0  0  0
   -0.8036   -6.8257   33.7808 N   0  0  0  0  0  0  0  0  0  0  0  0
   -0.7639   -6.8370   32.3979 C   0  0  0  0  0  0  0  0  0  0  0  0
   -1.5110   -7.4881   31.6696 O   0  0  0  0  0  0  0  0  0  0  0  0
    0.2706   -5.9762   31.7917 C   0  0  0  0  0  0  0  0  0  0  0  0
    0.2715   -5.7677   30.4102 C   0  0  0  0  0  0  0  0  0  0  0  0
    1.2333   -4.9474   29.8228 C   0  0  0  0  0  0  0  0  0  0  0  0
    2.2118   -4.3661   30.6131 C   0  0  0  0  0  0  0  0  0  0  0  0
    3.5366   -3.2816   29.8129 Br  0  0  0  0  0  0  0  0  0  0  0  0
    2.2202   -4.5741   31.9914 C   0  0  0  0  0  0  0  0  0  0  0  0
    1.2359   -5.3708   32.5996 C   0  0  0  0  0  0  0  0  0  0  0  0
    1.1667   -5.5498   33.9994 N   0  0  0  0  0  0  0  0  0  0  0  0
    2.2484   -5.1769   34.9023 C   0  0  0  0  0  0  0  0  0  0  0  0
    2.9638   -6.4847   35.3286 C   0  0  0  0  0  0  0  0  0  0  0  0
    2.9615   -7.4598   34.6825 O   0  0  0  0  0  0  0  0  0  0  0  0
    3.5717   -6.2081   36.7286 N   0  0  0  0  0  0  0  0  0  0  0  0
    4.2134   -7.0925   37.6555 C   0  0  0  0  0  0  0  0  0  0  0  0
    3.3040   -7.3941   38.8180 C   0  0  0  0  0  0  0  0  0  0  0  0
    1.9207   -7.5602   38.6548 C   0  0  0  0  0  0  0  0  0  0  0  0
    1.1031   -7.8767   39.7414 C   0  0  0  0  0  0  0  0  0  0  0  0
    1.6553   -8.0545   41.0110 C   0  0  0  0  0  0  0  0  0  0  0  0
    0.3343   -8.5463   42.5637 I   0  0  0  0  0  0  0  0  0  0  0  0
    3.0347   -7.9077   41.1870 C   0  0  0  0  0  0  0  0  0  0  0  0
    3.8236   -8.1103   42.7136 Cl  0  0  0  0  0  0  0  0  0  0  0  0
    3.8497   -7.5807   40.0942 C   0  0  0  0  0  0  0  0  0  0  0  0
    0.1052   -6.2005   34.6089 C   0  0  0  0  0  0  0  0  0  0  0  0
    0.0076   -6.2531   35.8382 O   0  0  0  0  0  0  0  0  0  0  0  0
  1  2  1  0
  2  3  1  0
  3  4  2  0
  3  5  1  0
  5  6  2  0
  6  7  1  0
  7  8  2  0
  8  9  1  0
  8 10  1  0
 10 11  2  0
 11 12  1  0
 12 13  1  0
 13 14  1  0
 14 15  2  0
 14 16  1  0
 16 17  1  0
 17 18  1  0
 18 19  2  0
 19 20  1  0
 20 21  2  0
 21 22  1  0
 21 23  1  0
 23 24  1  0
 23 25  2  0
 12 26  1  0
 26 27  2  0
 26  2  1  0
 11  5  1  0
 25 18  1  0
M  END
>  <ref_mols>  (2168) 
B0517a

>  <gnina_score>  (2168) 
5.156

>  <smina_score_min>  (2168) 
-5.315

>  <ref_pdb>  (2168) 
B0517a

>  <inspiration_score>  (2168) 
None

>  <inchikey>  (2168) 
MFNUFJXMIAASRF-UHFFFAOYSA-N

>  <tags>  (2168) 
BulkDock Fragalysis export,openbind_d68ev3c_c2_elabs_scored,openbind_d68ev3c_c2_elabs_scored_4.5plus,openbind_d68ev3c_c2_elabs,openbind_d68ev3c_c2_elabs_scored_5plus,syndirella_product,openbind_d68ev3c_c2_elabs_scored_top80percent,syndirella_placed

>  <smiles>  (2168) 
Cn1c(=O)c2ccc(Br)cc2n(CC(=O)NCc2ccc(I)c(Cl)c2)c1=O

>  <subsites>  (2168) 
None

>  <rmsd(smina/fragmenstein)>  (2168) 
0.989

>  <alias>  (2168) 
None

>  <energy_score>  (2168) 
-2.654308

>  <HIPPO Pose ID>  (2168) 
143985

>  <distance_score>  (2168) 
0.783893

>  <HIPPO Compound ID>  (2168) 
169042

>  <gnina_score_min>  (2168) 
5.07

>  <name>  (2168) 
P143985

>  <exports>  (2168) 
['/opt/xchem-fragalysis-2/maxwin/BulkDock/OUTPUTS/openbind_d68ev3c_c2_elabs_1LOTQJ3.sdf', '/opt/xchem-fragalysis-2/maxwin/BulkDock/OUTPUTS/openbind_d68ev3c_c2_elabs_1LSYI5W.sdf']

$$$$
P143986
     RDKit          3D

 27 29  0  0  0  0  0  0  0  0999 V2000
    6.5703   -5.6614   38.2663 C   0  0  0  0  0  0  0  0  0  0  0  0
    5.5553   -6.2398   37.9834 C   0  0  0  0  0  0  0  0  0  0  0  0
    4.3122   -6.9455   37.6200 C   0  0  2  0  0  0  0  0  0  0  0  0
    3.6065   -6.0956   36.7032 N   0  0  0  0  0  0  0  0  0  0  0  0
    2.9644   -6.4114   35.3299 C   0  0  0  0  0  0  0  0  0  0  0  0
    2.9767   -7.3935   34.6956 O   0  0  0  0  0  0  0  0  0  0  0  0
    2.2063   -5.1277   34.9087 C   0  0  0  0  0  0  0  0  0  0  0  0
    1.1407   -5.5276   33.9996 N   0  0  0  0  0  0  0  0  0  0  0  0
    0.0858   -6.1907   34.6056 C   0  0  0  0  0  0  0  0  0  0  0  0
   -0.0172   -6.2420   35.8343 O   0  0  0  0  0  0  0  0  0  0  0  0
   -0.8130   -6.8272   33.7756 N   0  0  0  0  0  0  0  0  0  0  0  0
   -1.8474   -7.5367   34.4668 C   0  0  0  0  0  0  0  0  0  0  0  0
   -0.7703   -6.8385   32.3931 C   0  0  0  0  0  0  0  0  0  0  0  0
   -1.5145   -7.4915   31.6633 O   0  0  0  0  0  0  0  0  0  0  0  0
    0.2646   -5.9766   31.7887 C   0  0  0  0  0  0  0  0  0  0  0  0
    0.2743   -5.7771   30.4060 C   0  0  0  0  0  0  0  0  0  0  0  0
    1.2396   -4.9602   29.8195 C   0  0  0  0  0  0  0  0  0  0  0  0
    2.2131   -4.3738   30.6118 C   0  0  0  0  0  0  0  0  0  0  0  0
    3.5443   -3.2965   29.8123 Br  0  0  0  0  0  0  0  0  0  0  0  0
    2.2120   -4.5717   31.9914 C   0  0  0  0  0  0  0  0  0  0  0  0
    1.2223   -5.3624   32.5989 C   0  0  0  0  0  0  0  0  0  0  0  0
    3.4147   -7.3033   38.7976 C   0  0  0  0  0  0  0  0  0  0  0  0
    3.9494   -7.5817   40.0664 C   0  0  0  0  0  0  0  0  0  0  0  0
    3.1253   -7.9633   41.1283 C   0  0  0  0  0  0  0  0  0  0  0  0
    1.7526   -8.0884   40.9410 C   0  0  0  0  0  0  0  0  0  0  0  0
    1.2015   -7.8352   39.6916 C   0  0  0  0  0  0  0  0  0  0  0  0
    2.0233   -7.4569   38.6294 C   0  0  0  0  0  0  0  0  0  0  0  0
  1  2  3  0
  3  2  1  1
  3  4  1  0
  4  5  1  0
  5  6  2  0
  5  7  1  0
  7  8  1  0
  8  9  1  0
  9 10  2  0
  9 11  1  0
 11 12  1  0
 11 13  1  0
 13 14  2  0
 13 15  1  0
 15 16  2  0
 16 17  1  0
 17 18  2  0
 18 19  1  0
 18 20  1  0
 20 21  2  0
  3 22  1  0
 22 23  2  0
 23 24  1  0
 24 25  2  0
 25 26  1  0
 26 27  2  0
 21  8  1  0
 27 22  1  0
 21 15  1  0
M  END
>  <ref_mols>  (2169) 
B0517a

>  <gnina_score>  (2169) 
4.986

>  <smina_score_min>  (2169) 
-4.983

>  <ref_pdb>  (2169) 
B0517a

>  <inspiration_score>  (2169) 
None

>  <inchikey>  (2169) 
IGXKVIOLFJIGDA-INIZCTEOSA-N

>  <tags>  (2169) 
BulkDock Fragalysis export,openbind_d68ev3c_c2_elabs_scored,openbind_d68ev3c_c2_elabs_scored_4.5plus,openbind_d68ev3c_c2_elabs,openbind_d68ev3c_c2_elabs_scored_5plus,syndirella_product,openbind_d68ev3c_c2_elabs_scored_top80percent,syndirella_placed

>  <smiles>  (2169) 
C#C[C@H](NC(=O)Cn1c(=O)n(C)c(=O)c2ccc(Br)cc21)c1ccccc1

>  <subsites>  (2169) 
None

>  <rmsd(smina/fragmenstein)>  (2169) 
1.113

>  <alias>  (2169) 
None

>  <energy_score>  (2169) 
-4.698336

>  <HIPPO Pose ID>  (2169) 
143986

>  <distance_score>  (2169) 
0.761382

>  <HIPPO Compound ID>  (2169) 
169044

>  <gnina_score_min>  (2169) 
5.135

>  <name>  (2169) 
P143986

>  <exports>  (2169) 
['/opt/xchem-fragalysis-2/maxwin/BulkDock/OUTPUTS/openbind_d68ev3c_c2_elabs_1LOTQJ3.sdf', '/opt/xchem-fragalysis-2/maxwin/BulkDock/OUTPUTS/openbind_d68ev3c_c2_elabs_1LSYI5W.sdf']

$$$$
P143992
     RDKit          3D

 27 29  0  0  0  0  0  0  0  0999 V2000
    0.0101   -7.3793   39.8806 C   0  0  0  0  0  0  0  0  0  0  0  0
    1.4974   -7.5321   39.8550 C   0  0  0  0  0  0  0  0  0  0  0  0
    2.1546   -8.0646   40.9642 C   0  0  0  0  0  0  0  0  0  0  0  0
    3.5401   -8.1842   40.9641 C   0  0  0  0  0  0  0  0  0  0  0  0
    4.2790   -7.7724   39.8549 C   0  0  0  0  0  0  0  0  0  0  0  0
    3.6446   -7.2572   38.7143 C   0  0  0  0  0  0  0  0  0  0  0  0
    4.4965   -6.8007   37.5410 C   0  0  1  0  0  0  0  0  0  0  0  0
    5.1963   -7.9580   36.8329 C   0  0  0  0  0  0  0  0  0  0  0  0
    3.7321   -5.9788   36.6326 N   0  0  0  0  0  0  0  0  0  0  0  0
    2.9990   -6.3470   35.3101 C   0  0  0  0  0  0  0  0  0  0  0  0
    2.9680   -7.3554   34.7152 O   0  0  0  0  0  0  0  0  0  0  0  0
    2.2012   -5.0834   34.9060 C   0  0  0  0  0  0  0  0  0  0  0  0
    1.1375   -5.4991   34.0015 N   0  0  0  0  0  0  0  0  0  0  0  0
    0.0884   -6.1689   34.6118 C   0  0  0  0  0  0  0  0  0  0  0  0
   -0.0186   -6.2097   35.8407 O   0  0  0  0  0  0  0  0  0  0  0  0
   -0.8051   -6.8177   33.7838 N   0  0  0  0  0  0  0  0  0  0  0  0
   -1.8360   -7.5297   34.4777 C   0  0  0  0  0  0  0  0  0  0  0  0
   -0.7654   -6.8323   32.4012 C   0  0  0  0  0  0  0  0  0  0  0  0
   -1.5115   -7.4864   31.6742 O   0  0  0  0  0  0  0  0  0  0  0  0
    0.2683   -5.9727   31.7921 C   0  0  0  0  0  0  0  0  0  0  0  0
    0.2805   -5.7847   30.4077 C   0  0  0  0  0  0  0  0  0  0  0  0
    1.2471   -4.9730   29.8161 C   0  0  0  0  0  0  0  0  0  0  0  0
    2.2198   -4.3809   30.6048 C   0  0  0  0  0  0  0  0  0  0  0  0
    3.5540   -3.3125   29.7985 Br  0  0  0  0  0  0  0  0  0  0  0  0
    2.2156   -4.5668   31.9859 C   0  0  0  0  0  0  0  0  0  0  0  0
    1.2233   -5.3503   32.5989 C   0  0  0  0  0  0  0  0  0  0  0  0
    2.2409   -7.1614   38.7266 C   0  0  0  0  0  0  0  0  0  0  0  0
  1  2  1  0
  2  3  2  0
  3  4  1  0
  4  5  2  0
  5  6  1  0
  6  7  1  0
  7  8  1  6
  7  9  1  0
  9 10  1  0
 10 11  2  0
 10 12  1  0
 12 13  1  0
 13 14  1  0
 14 15  2  0
 14 16  1  0
 16 17  1  0
 16 18  1  0
 18 19  2  0
 18 20  1  0
 20 21  2  0
 21 22  1  0
 22 23  2  0
 23 24  1  0
 23 25  1  0
 25 26  2  0
  6 27  2  0
 27  2  1  0
 26 13  1  0
 26 20  1  0
M  END
>  <ref_mols>  (2170) 
B0517a

>  <gnina_score>  (2170) 
5.068

>  <smina_score_min>  (2170) 
-5.047

>  <ref_pdb>  (2170) 
B0517a

>  <inspiration_score>  (2170) 
None

>  <inchikey>  (2170) 
VESYJXIUBZIUNF-CYBMUJFWSA-N

>  <tags>  (2170) 
BulkDock Fragalysis export,openbind_d68ev3c_c2_elabs_scored,openbind_d68ev3c_c2_elabs_scored_4.5plus,openbind_d68ev3c_c2_elabs,openbind_d68ev3c_c2_elabs_scored_5plus,syndirella_product,openbind_d68ev3c_c2_elabs_scored_top80percent,syndirella_placed

>  <smiles>  (2170) 
Cc1cccc([C@@H](C)NC(=O)Cn2c(=O)n(C)c(=O)c3ccc(Br)cc32)c1

>  <subsites>  (2170) 
None

>  <rmsd(smina/fragmenstein)>  (2170) 
0.719

>  <alias>  (2170) 
None

>  <energy_score>  (2170) 
-5.532369

>  <HIPPO Pose ID>  (2170) 
143992

>  <distance_score>  (2170) 
0.809733

>  <HIPPO Compound ID>  (2170) 
169049

>  <gnina_score_min>  (2170) 
5.088

>  <name>  (2170) 
P143992

>  <exports>  (2170) 
['/opt/xchem-fragalysis-2/maxwin/BulkDock/OUTPUTS/openbind_d68ev3c_c2_elabs_1LOTQJ3.sdf', '/opt/xchem-fragalysis-2/maxwin/BulkDock/OUTPUTS/openbind_d68ev3c_c2_elabs_1LSYI5W.sdf']

$$$$
P143995
     RDKit          3D

 27 29  0  0  0  0  0  0  0  0999 V2000
   -1.8364   -7.5304   34.4697 C   0  0  0  0  0  0  0  0  0  0  0  0
   -0.8065   -6.8170   33.7780 N   0  0  0  0  0  0  0  0  0  0  0  0
   -0.7672   -6.8280   32.3953 C   0  0  0  0  0  0  0  0  0  0  0  0
   -1.5208   -7.4758   31.6705 O   0  0  0  0  0  0  0  0  0  0  0  0
    0.2699   -5.9705   31.7889 C   0  0  0  0  0  0  0  0  0  0  0  0
    0.2784   -5.7722   30.4061 C   0  0  0  0  0  0  0  0  0  0  0  0
    1.2446   -4.9573   29.8182 C   0  0  0  0  0  0  0  0  0  0  0  0
    2.2191   -4.3708   30.6095 C   0  0  0  0  0  0  0  0  0  0  0  0
    3.5494   -3.2937   29.8085 Br  0  0  0  0  0  0  0  0  0  0  0  0
    2.2193   -4.5680   31.9893 C   0  0  0  0  0  0  0  0  0  0  0  0
    1.2304   -5.3586   32.5980 C   0  0  0  0  0  0  0  0  0  0  0  0
    1.1515   -5.5237   33.9994 N   0  0  0  0  0  0  0  0  0  0  0  0
    2.2295   -5.1442   34.9040 C   0  0  0  0  0  0  0  0  0  0  0  0
    2.9579   -6.4459   35.3228 C   0  0  0  0  0  0  0  0  0  0  0  0
    2.9585   -7.4222   34.6787 O   0  0  0  0  0  0  0  0  0  0  0  0
    3.5749   -6.1614   36.7169 N   0  0  0  0  0  0  0  0  0  0  0  0
    4.2325   -7.0392   37.6410 C   0  0  0  0  0  0  0  0  0  0  0  0
    3.3332   -7.3626   38.7998 C   0  0  0  0  0  0  0  0  0  0  0  0
    1.9459   -7.5317   38.6535 C   0  0  0  0  0  0  0  0  0  0  0  0
    1.1505   -7.8827   39.7457 C   0  0  0  0  0  0  0  0  0  0  0  0
    1.7286   -8.0871   40.9963 C   0  0  0  0  0  0  0  0  0  0  0  0
    3.1040   -7.9350   41.1521 C   0  0  0  0  0  0  0  0  0  0  0  0
    3.8147   -8.1947   42.6997 Cl  0  0  0  0  0  0  0  0  0  0  0  0
    3.8961   -7.5790   40.0605 C   0  0  0  0  0  0  0  0  0  0  0  0
    5.2240   -7.4428   40.2112 F   0  0  0  0  0  0  0  0  0  0  0  0
    0.0925   -6.1788   34.6071 C   0  0  0  0  0  0  0  0  0  0  0  0
   -0.0169   -6.2243   35.8357 O   0  0  0  0  0  0  0  0  0  0  0  0
  1  2  1  0
  2  3  1  0
  3  4  2  0
  3  5  1  0
  5  6  2  0
  6  7  1  0
  7  8  2  0
  8  9  1  0
  8 10  1  0
 10 11  2  0
 11 12  1  0
 12 13  1  0
 13 14  1  0
 14 15  2  0
 14 16  1  0
 16 17  1  0
 17 18  1  0
 18 19  2  0
 19 20  1  0
 20 21  2  0
 21 22  1  0
 22 23  1  0
 22 24  2  0
 24 25  1  0
 12 26  1  0
 26 27  2  0
 26  2  1  0
 11  5  1  0
 24 18  1  0
M  END
>  <ref_mols>  (2171) 
B0517a

>  <gnina_score>  (2171) 
5.088

>  <smina_score_min>  (2171) 
-5.293

>  <ref_pdb>  (2171) 
B0517a

>  <inspiration_score>  (2171) 
None

>  <inchikey>  (2171) 
GFWVHJWEORLBTL-UHFFFAOYSA-N

>  <tags>  (2171) 
BulkDock Fragalysis export,openbind_d68ev3c_c2_elabs_scored,openbind_d68ev3c_c2_elabs_scored_4.5plus,openbind_d68ev3c_c2_elabs,openbind_d68ev3c_c2_elabs_scored_5plus,syndirella_product,openbind_d68ev3c_c2_elabs_scored_top80percent,syndirella_placed

>  <smiles>  (2171) 
Cn1c(=O)c2ccc(Br)cc2n(CC(=O)NCc2cccc(Cl)c2F)c1=O

>  <subsites>  (2171) 
None

>  <rmsd(smina/fragmenstein)>  (2171) 
1.092

>  <alias>  (2171) 
None

>  <energy_score>  (2171) 
-4.242764

>  <HIPPO Pose ID>  (2171) 
143995

>  <distance_score>  (2171) 
0.774229

>  <HIPPO Compound ID>  (2171) 
169051

>  <gnina_score_min>  (2171) 
5.009

>  <name>  (2171) 
P143995

>  <exports>  (2171) 
['/opt/xchem-fragalysis-2/maxwin/BulkDock/OUTPUTS/openbind_d68ev3c_c2_elabs_1LOTQJ3.sdf', '/opt/xchem-fragalysis-2/maxwin/BulkDock/OUTPUTS/openbind_d68ev3c_c2_elabs_1LSYI5W.sdf']

$$$$
P143996
     RDKit          3D

 27 29  0  0  0  0  0  0  0  0999 V2000
    5.3980   -7.0646   40.3562 C   0  0  0  0  0  0  0  0  0  0  0  0
    3.9443   -7.3511   40.0950 C   0  0  0  0  0  0  0  0  0  0  0  0
    3.1157   -7.6726   41.1856 C   0  0  0  0  0  0  0  0  0  0  0  0
    1.7626   -7.9583   41.0063 C   0  0  0  0  0  0  0  0  0  0  0  0
    1.2184   -7.9319   39.7314 C   0  0  0  0  0  0  0  0  0  0  0  0
    2.0298   -7.6251   38.6472 C   0  0  0  0  0  0  0  0  0  0  0  0
    1.4795   -7.6626   37.4264 F   0  0  0  0  0  0  0  0  0  0  0  0
    3.3915   -7.3058   38.7984 C   0  0  0  0  0  0  0  0  0  0  0  0
    4.2264   -6.9942   37.5824 C   0  0  0  0  0  0  0  0  0  0  0  0
    3.5354   -6.1015   36.6979 N   0  0  0  0  0  0  0  0  0  0  0  0
    2.9238   -6.3481   35.2931 C   0  0  0  0  0  0  0  0  0  0  0  0
    2.9565   -7.2958   34.6077 O   0  0  0  0  0  0  0  0  0  0  0  0
    2.1485   -5.0567   34.9261 C   0  0  0  0  0  0  0  0  0  0  0  0
    1.0843   -5.4379   34.0054 N   0  0  0  0  0  0  0  0  0  0  0  0
    0.0121   -6.0839   34.5998 C   0  0  0  0  0  0  0  0  0  0  0  0
   -0.1581   -6.0609   35.8208 O   0  0  0  0  0  0  0  0  0  0  0  0
   -0.8337   -6.7858   33.7646 N   0  0  0  0  0  0  0  0  0  0  0  0
   -1.8412   -7.5329   34.4543 C   0  0  0  0  0  0  0  0  0  0  0  0
   -0.7687   -6.8170   32.3842 C   0  0  0  0  0  0  0  0  0  0  0  0
   -1.4958   -7.4865   31.6516 O   0  0  0  0  0  0  0  0  0  0  0  0
    0.2702   -5.9566   31.7850 C   0  0  0  0  0  0  0  0  0  0  0  0
    0.3129   -5.7909   30.3987 C   0  0  0  0  0  0  0  0  0  0  0  0
    1.2963   -4.9934   29.8154 C   0  0  0  0  0  0  0  0  0  0  0  0
    2.2523   -4.3894   30.6166 C   0  0  0  0  0  0  0  0  0  0  0  0
    3.6067   -3.3371   29.8227 Br  0  0  0  0  0  0  0  0  0  0  0  0
    2.2155   -4.5503   32.0005 C   0  0  0  0  0  0  0  0  0  0  0  0
    1.2076   -5.3216   32.6026 C   0  0  0  0  0  0  0  0  0  0  0  0
  1  2  1  0
  2  3  2  0
  3  4  1  0
  4  5  2  0
  5  6  1  0
  6  7  1  0
  6  8  2  0
  8  9  1  0
  9 10  1  0
 10 11  1  0
 11 12  2  0
 11 13  1  0
 13 14  1  0
 14 15  1  0
 15 16  2  0
 15 17  1  0
 17 18  1  0
 17 19  1  0
 19 20  2  0
 19 21  1  0
 21 22  2  0
 22 23  1  0
 23 24  2  0
 24 25  1  0
 24 26  1  0
 26 27  2  0
  8  2  1  0
 27 14  1  0
 27 21  1  0
M  END
>  <ref_mols>  (2172) 
B0517a

>  <gnina_score>  (2172) 
5.069

>  <smina_score_min>  (2172) 
-4.855

>  <ref_pdb>  (2172) 
B0517a

>  <inspiration_score>  (2172) 
None

>  <inchikey>  (2172) 
JUYHEQXWRWJBMQ-UHFFFAOYSA-N

>  <tags>  (2172) 
BulkDock Fragalysis export,openbind_d68ev3c_c2_elabs_scored,openbind_d68ev3c_c2_elabs_scored_4.5plus,openbind_d68ev3c_c2_elabs,openbind_d68ev3c_c2_elabs_scored_5plus,syndirella_product,openbind_d68ev3c_c2_elabs_scored_top80percent,syndirella_placed

>  <smiles>  (2172) 
Cc1cccc(F)c1CNC(=O)Cn1c(=O)n(C)c(=O)c2ccc(Br)cc21

>  <subsites>  (2172) 
None

>  <rmsd(smina/fragmenstein)>  (2172) 
0.868

>  <alias>  (2172) 
None

>  <energy_score>  (2172) 
-6.944281

>  <HIPPO Pose ID>  (2172) 
143996

>  <distance_score>  (2172) 
0.769675

>  <HIPPO Compound ID>  (2172) 
169052

>  <gnina_score_min>  (2172) 
5.035

>  <name>  (2172) 
P143996

>  <exports>  (2172) 
['/opt/xchem-fragalysis-2/maxwin/BulkDock/OUTPUTS/openbind_d68ev3c_c2_elabs_1LOTQJ3.sdf', '/opt/xchem-fragalysis-2/maxwin/BulkDock/OUTPUTS/openbind_d68ev3c_c2_elabs_1LSYI5W.sdf']

$$$$
P143998
     RDKit          3D

 27 29  0  0  0  0  0  0  0  0999 V2000
    5.2876   -7.8573   36.8571 C   0  0  0  0  0  0  0  0  0  0  0  0
    4.4668   -6.7897   37.5825 C   0  0  1  0  0  0  0  0  0  0  0  0
    3.7305   -5.9792   36.6400 N   0  0  0  0  0  0  0  0  0  0  0  0
    3.0097   -6.3709   35.3175 C   0  0  0  0  0  0  0  0  0  0  0  0
    2.9682   -7.3948   34.7505 O   0  0  0  0  0  0  0  0  0  0  0  0
    2.2379   -5.1039   34.8763 C   0  0  0  0  0  0  0  0  0  0  0  0
    1.1686   -5.5187   33.9798 N   0  0  0  0  0  0  0  0  0  0  0  0
    0.1149   -6.1732   34.6004 C   0  0  0  0  0  0  0  0  0  0  0  0
    0.0148   -6.2030   35.8298 O   0  0  0  0  0  0  0  0  0  0  0  0
   -0.7896   -6.8171   33.7801 N   0  0  0  0  0  0  0  0  0  0  0  0
   -1.8223   -7.5188   34.4830 C   0  0  0  0  0  0  0  0  0  0  0  0
   -0.7590   -6.8343   32.3972 C   0  0  0  0  0  0  0  0  0  0  0  0
   -1.5101   -7.4883   31.6753 O   0  0  0  0  0  0  0  0  0  0  0  0
    0.2709   -5.9754   31.7800 C   0  0  0  0  0  0  0  0  0  0  0  0
    0.2663   -5.7771   30.3972 C   0  0  0  0  0  0  0  0  0  0  0  0
    1.2250   -4.9600   29.7997 C   0  0  0  0  0  0  0  0  0  0  0  0
    2.2086   -4.3750   30.5796 C   0  0  0  0  0  0  0  0  0  0  0  0
    3.5322   -3.3003   29.7644 Br  0  0  0  0  0  0  0  0  0  0  0  0
    2.2222   -4.5723   31.9586 C   0  0  0  0  0  0  0  0  0  0  0  0
    1.2373   -5.3603   32.5782 C   0  0  0  0  0  0  0  0  0  0  0  0
    3.5398   -7.3229   38.6691 C   0  0  0  0  0  0  0  0  0  0  0  0
    3.9765   -8.3202   39.5551 C   0  0  0  0  0  0  0  0  0  0  0  0
    3.1561   -8.7825   40.5889 C   0  0  0  0  0  0  0  0  0  0  0  0
    1.8932   -8.2337   40.7835 C   0  0  0  0  0  0  0  0  0  0  0  0
    1.4586   -7.2186   39.9434 C   0  0  0  0  0  0  0  0  0  0  0  0
   -0.1767   -6.3474   40.2992 Br  0  0  0  0  0  0  0  0  0  0  0  0
    2.2583   -6.7774   38.8878 C   0  0  0  0  0  0  0  0  0  0  0  0
  2  1  1  6
  2  3  1  0
  3  4  1  0
  4  5  2  0
  4  6  1  0
  6  7  1  0
  7  8  1  0
  8  9  2  0
  8 10  1  0
 10 11  1  0
 10 12  1  0
 12 13  2  0
 12 14  1  0
 14 15  2  0
 15 16  1  0
 16 17  2  0
 17 18  1  0
 17 19  1  0
 19 20  2  0
  2 21  1  0
 21 22  2  0
 22 23  1  0
 23 24  2  0
 24 25  1  0
 25 26  1  0
 25 27  2  0
 20  7  1  0
 27 21  1  0
 20 14  1  0
M  END
>  <ref_mols>  (2173) 
B0517a

>  <gnina_score>  (2173) 
5.096

>  <smina_score_min>  (2173) 
-5.013

>  <ref_pdb>  (2173) 
B0517a

>  <inspiration_score>  (2173) 
None

>  <inchikey>  (2173) 
MKQWFONBNVASMZ-LLVKDONJSA-N

>  <tags>  (2173) 
BulkDock Fragalysis export,openbind_d68ev3c_c2_elabs_scored,openbind_d68ev3c_c2_elabs_scored_4.5plus,openbind_d68ev3c_c2_elabs,openbind_d68ev3c_c2_elabs_scored_5plus,syndirella_product,openbind_d68ev3c_c2_elabs_scored_top80percent,syndirella_placed

>  <smiles>  (2173) 
C[C@@H](NC(=O)Cn1c(=O)n(C)c(=O)c2ccc(Br)cc21)c1cccc(Br)c1

>  <subsites>  (2173) 
None

>  <rmsd(smina/fragmenstein)>  (2173) 
0.729

>  <alias>  (2173) 
None

>  <energy_score>  (2173) 
-0.711778

>  <HIPPO Pose ID>  (2173) 
143998

>  <distance_score>  (2173) 
0.837526

>  <HIPPO Compound ID>  (2173) 
169053

>  <gnina_score_min>  (2173) 
5.159

>  <name>  (2173) 
P143998

>  <exports>  (2173) 
['/opt/xchem-fragalysis-2/maxwin/BulkDock/OUTPUTS/openbind_d68ev3c_c2_elabs_1LOTQJ3.sdf', '/opt/xchem-fragalysis-2/maxwin/BulkDock/OUTPUTS/openbind_d68ev3c_c2_elabs_1LSYI5W.sdf']

$$$$
P144000
     RDKit          3D

 27 30  0  0  0  0  0  0  0  0999 V2000
   -1.8310   -7.5242   34.4641 C   0  0  0  0  0  0  0  0  0  0  0  0
   -0.8002   -6.8128   33.7688 N   0  0  0  0  0  0  0  0  0  0  0  0
   -0.7609   -6.8272   32.3863 C   0  0  0  0  0  0  0  0  0  0  0  0
   -1.5060   -7.4826   31.6595 O   0  0  0  0  0  0  0  0  0  0  0  0
    0.2705   -5.9640   31.7778 C   0  0  0  0  0  0  0  0  0  0  0  0
    0.2711   -5.7589   30.3960 C   0  0  0  0  0  0  0  0  0  0  0  0
    1.2311   -4.9379   29.8064 C   0  0  0  0  0  0  0  0  0  0  0  0
    2.2087   -4.3527   30.5945 C   0  0  0  0  0  0  0  0  0  0  0  0
    3.5313   -3.2679   29.7910 Br  0  0  0  0  0  0  0  0  0  0  0  0
    2.2171   -4.5565   31.9731 C   0  0  0  0  0  0  0  0  0  0  0  0
    1.2340   -5.3532   32.5835 C   0  0  0  0  0  0  0  0  0  0  0  0
    1.1637   -5.5258   33.9834 N   0  0  0  0  0  0  0  0  0  0  0  0
    2.2454   -5.1481   34.8849 C   0  0  0  0  0  0  0  0  0  0  0  0
    2.9606   -6.4548   35.3127 C   0  0  0  0  0  0  0  0  0  0  0  0
    2.9651   -7.4279   34.6640 O   0  0  0  0  0  0  0  0  0  0  0  0
    3.5391   -6.1867   36.7251 N   0  0  0  0  0  0  0  0  0  0  0  0
    4.1518   -7.0759   37.6609 C   0  0  1  0  0  0  0  0  0  0  0  0
    5.3312   -6.4560   38.4236 C   0  0  0  0  0  0  0  0  0  0  0  0
    5.3432   -7.1309   39.8048 C   0  0  0  0  0  0  0  0  0  0  0  0
    3.8864   -7.4115   40.0020 C   0  0  0  0  0  0  0  0  0  0  0  0
    3.2250   -7.7244   41.1760 C   0  0  0  0  0  0  0  0  0  0  0  0
    1.8521   -7.9765   41.1186 C   0  0  0  0  0  0  0  0  0  0  0  0
    1.1631   -7.9182   39.8998 C   0  0  0  0  0  0  0  0  0  0  0  0
    1.8391   -7.6191   38.7190 C   0  0  0  0  0  0  0  0  0  0  0  0
    3.2029   -7.3715   38.7835 C   0  0  0  0  0  0  0  0  0  0  0  0
    0.1042   -6.1782   34.5953 C   0  0  0  0  0  0  0  0  0  0  0  0
    0.0028   -6.2241   35.8242 O   0  0  0  0  0  0  0  0  0  0  0  0
  1  2  1  0
  2  3  1  0
  3  4  2  0
  3  5  1  0
  5  6  2  0
  6  7  1  0
  7  8  2  0
  8  9  1  0
  8 10  1  0
 10 11  2  0
 11 12  1  0
 12 13  1  0
 13 14  1  0
 14 15  2  0
 14 16  1  0
 17 16  1  6
 17 18  1  0
 18 19  1  0
 19 20  1  0
 20 21  2  0
 21 22  1  0
 22 23  2  0
 23 24  1  0
 24 25  2  0
 12 26  1  0
 26 27  2  0
 26  2  1  0
 11  5  1  0
 25 17  1  0
 25 20  1  0
M  END
>  <ref_mols>  (2174) 
B0517a

>  <gnina_score>  (2174) 
4.998

>  <smina_score_min>  (2174) 
-5.167

>  <ref_pdb>  (2174) 
B0517a

>  <inspiration_score>  (2174) 
None

>  <inchikey>  (2174) 
PPSLOJYMGWTGQQ-INIZCTEOSA-N

>  <tags>  (2174) 
BulkDock Fragalysis export,openbind_d68ev3c_c2_elabs_scored,openbind_d68ev3c_c2_elabs_scored_4.5plus,openbind_d68ev3c_c2_elabs,openbind_d68ev3c_c2_elabs_scored_5plus,syndirella_product,openbind_d68ev3c_c2_elabs_scored_top80percent,syndirella_placed

>  <smiles>  (2174) 
Cn1c(=O)c2ccc(Br)cc2n(CC(=O)N[C@H]2CCc3ccccc32)c1=O

>  <subsites>  (2174) 
None

>  <rmsd(smina/fragmenstein)>  (2174) 
0.925

>  <alias>  (2174) 
None

>  <energy_score>  (2174) 
-3.796609

>  <HIPPO Pose ID>  (2174) 
144000

>  <distance_score>  (2174) 
0.788962

>  <HIPPO Compound ID>  (2174) 
169054

>  <gnina_score_min>  (2174) 
5.008

>  <name>  (2174) 
P144000

>  <exports>  (2174) 
['/opt/xchem-fragalysis-2/maxwin/BulkDock/OUTPUTS/openbind_d68ev3c_c2_elabs_1LOTQJ3.sdf', '/opt/xchem-fragalysis-2/maxwin/BulkDock/OUTPUTS/openbind_d68ev3c_c2_elabs_1LSYI5W.sdf']

$$$$
P144003
     RDKit          3D

 27 29  0  0  0  0  0  0  0  0999 V2000
    5.1051   -7.8533   36.9894 C   0  0  0  0  0  0  0  0  0  0  0  0
    4.3565   -6.7026   37.6532 C   0  0  1  0  0  0  0  0  0  0  0  0
    3.6113   -5.8938   36.7191 N   0  0  0  0  0  0  0  0  0  0  0  0
    2.9716   -6.2626   35.3493 C   0  0  0  0  0  0  0  0  0  0  0  0
    3.0177   -7.2579   34.7339 O   0  0  0  0  0  0  0  0  0  0  0  0
    2.1511   -5.0229   34.9207 C   0  0  0  0  0  0  0  0  0  0  0  0
    1.1115   -5.4747   34.0052 N   0  0  0  0  0  0  0  0  0  0  0  0
    0.0691   -6.1600   34.6085 C   0  0  0  0  0  0  0  0  0  0  0  0
   -0.0422   -6.2081   35.8364 O   0  0  0  0  0  0  0  0  0  0  0  0
   -0.8130   -6.8177   33.7762 N   0  0  0  0  0  0  0  0  0  0  0  0
   -1.8418   -7.5371   34.4656 C   0  0  0  0  0  0  0  0  0  0  0  0
   -0.7675   -6.8304   32.3941 C   0  0  0  0  0  0  0  0  0  0  0  0
   -1.5076   -7.4876   31.6637 O   0  0  0  0  0  0  0  0  0  0  0  0
    0.2664   -5.9672   31.7904 C   0  0  0  0  0  0  0  0  0  0  0  0
    0.2898   -5.7869   30.4051 C   0  0  0  0  0  0  0  0  0  0  0  0
    1.2592   -4.9759   29.8171 C   0  0  0  0  0  0  0  0  0  0  0  0
    2.2226   -4.3756   30.6111 C   0  0  0  0  0  0  0  0  0  0  0  0
    3.5617   -3.3093   29.8101 Br  0  0  0  0  0  0  0  0  0  0  0  0
    2.2060   -4.5521   31.9934 C   0  0  0  0  0  0  0  0  0  0  0  0
    1.2105   -5.3346   32.6024 C   0  0  0  0  0  0  0  0  0  0  0  0
    3.4541   -7.1818   38.7739 C   0  0  0  0  0  0  0  0  0  0  0  0
    2.0902   -7.4616   38.5753 C   0  0  0  0  0  0  0  0  0  0  0  0
    1.2865   -7.8943   39.6311 C   0  0  0  0  0  0  0  0  0  0  0  0
    1.8339   -8.0731   40.8967 C   0  0  0  0  0  0  0  0  0  0  0  0
    3.1814   -7.8135   41.1001 C   0  0  0  0  0  0  0  0  0  0  0  0
    3.6829   -8.0053   42.3546 O   0  0  0  0  0  0  0  0  0  0  0  0
    3.9928   -7.3709   40.0569 C   0  0  0  0  0  0  0  0  0  0  0  0
  2  1  1  6
  2  3  1  0
  3  4  1  0
  4  5  2  0
  4  6  1  0
  6  7  1  0
  7  8  1  0
  8  9  2  0
  8 10  1  0
 10 11  1  0
 10 12  1  0
 12 13  2  0
 12 14  1  0
 14 15  2  0
 15 16  1  0
 16 17  2  0
 17 18  1  0
 17 19  1  0
 19 20  2  0
  2 21  1  0
 21 22  2  0
 22 23  1  0
 23 24  2  0
 24 25  1  0
 25 26  1  0
 25 27  2  0
 20  7  1  0
 27 21  1  0
 20 14  1  0
M  END
>  <ref_mols>  (2175) 
B0517a

>  <gnina_score>  (2175) 
4.975

>  <smina_score_min>  (2175) 
-5.185

>  <ref_pdb>  (2175) 
B0517a

>  <inspiration_score>  (2175) 
None

>  <inchikey>  (2175) 
HVVKMECQVVSURR-LLVKDONJSA-N

>  <tags>  (2175) 
BulkDock Fragalysis export,openbind_d68ev3c_c2_elabs_scored,openbind_d68ev3c_c2_elabs_scored_4.5plus,openbind_d68ev3c_c2_elabs,openbind_d68ev3c_c2_elabs_scored_5plus,syndirella_product,openbind_d68ev3c_c2_elabs_scored_top80percent,syndirella_placed

>  <smiles>  (2175) 
C[C@@H](NC(=O)Cn1c(=O)n(C)c(=O)c2ccc(Br)cc21)c1cccc(O)c1

>  <subsites>  (2175) 
None

>  <rmsd(smina/fragmenstein)>  (2175) 
0.954

>  <alias>  (2175) 
None

>  <energy_score>  (2175) 
-6.911283

>  <HIPPO Pose ID>  (2175) 
144003

>  <distance_score>  (2175) 
0.747266

>  <HIPPO Compound ID>  (2175) 
169056

>  <gnina_score_min>  (2175) 
5.054

>  <name>  (2175) 
P144003

>  <exports>  (2175) 
['/opt/xchem-fragalysis-2/maxwin/BulkDock/OUTPUTS/openbind_d68ev3c_c2_elabs_1LOTQJ3.sdf', '/opt/xchem-fragalysis-2/maxwin/BulkDock/OUTPUTS/openbind_d68ev3c_c2_elabs_1LSYI5W.sdf']

$$$$
P144006
     RDKit          3D

 27 29  0  0  0  0  0  0  0  0999 V2000
   -1.8301   -7.5203   34.4814 C   0  0  0  0  0  0  0  0  0  0  0  0
   -0.7973   -6.8169   33.7808 N   0  0  0  0  0  0  0  0  0  0  0  0
   -0.7634   -6.8336   32.3979 C   0  0  0  0  0  0  0  0  0  0  0  0
   -1.5125   -7.4877   31.6740 O   0  0  0  0  0  0  0  0  0  0  0  0
    0.2672   -5.9732   31.7838 C   0  0  0  0  0  0  0  0  0  0  0  0
    0.2608   -5.7660   30.4023 C   0  0  0  0  0  0  0  0  0  0  0  0
    1.2181   -4.9442   29.8092 C   0  0  0  0  0  0  0  0  0  0  0  0
    2.2008   -4.3616   30.5927 C   0  0  0  0  0  0  0  0  0  0  0  0
    3.5193   -3.2756   29.7840 Br  0  0  0  0  0  0  0  0  0  0  0  0
    2.2172   -4.5690   31.9705 C   0  0  0  0  0  0  0  0  0  0  0  0
    1.2367   -5.3661   32.5846 C   0  0  0  0  0  0  0  0  0  0  0  0
    1.1752   -5.5417   33.9844 N   0  0  0  0  0  0  0  0  0  0  0  0
    2.2682   -5.1807   34.8768 C   0  0  0  0  0  0  0  0  0  0  0  0
    2.9806   -6.4933   35.2891 C   0  0  0  0  0  0  0  0  0  0  0  0
    2.9444   -7.4765   34.6570 O   0  0  0  0  0  0  0  0  0  0  0  0
    3.6377   -6.2062   36.6633 N   0  0  0  0  0  0  0  0  0  0  0  0
    4.2992   -7.0869   37.5811 C   0  0  0  0  0  0  0  0  0  0  0  0
    3.4198   -7.4526   38.7494 C   0  0  0  0  0  0  0  0  0  0  0  0
    2.0988   -6.9894   38.8928 C   0  0  0  0  0  0  0  0  0  0  0  0
    1.3420   -7.3420   40.0098 C   0  0  0  0  0  0  0  0  0  0  0  0
   -0.2158   -6.6582   40.2363 Cl  0  0  0  0  0  0  0  0  0  0  0  0
    1.8635   -8.1902   40.9794 C   0  0  0  0  0  0  0  0  0  0  0  0
    3.1640   -8.6703   40.8473 C   0  0  0  0  0  0  0  0  0  0  0  0
    3.9304   -8.2940   39.7447 C   0  0  0  0  0  0  0  0  0  0  0  0
    5.2114   -8.7570   39.6165 O   0  0  0  0  0  0  0  0  0  0  0  0
    0.1154   -6.1878   34.6029 C   0  0  0  0  0  0  0  0  0  0  0  0
    0.0226   -6.2301   35.8326 O   0  0  0  0  0  0  0  0  0  0  0  0
  1  2  1  0
  2  3  1  0
  3  4  2  0
  3  5  1  0
  5  6  2  0
  6  7  1  0
  7  8  2  0
  8  9  1  0
  8 10  1  0
 10 11  2  0
 11 12  1  0
 12 13  1  0
 13 14  1  0
 14 15  2  0
 14 16  1  0
 16 17  1  0
 17 18  1  0
 18 19  2  0
 19 20  1  0
 20 21  1  0
 20 22  2  0
 22 23  1  0
 23 24  2  0
 24 25  1  0
 12 26  1  0
 26 27  2  0
 26  2  1  0
 11  5  1  0
 24 18  1  0
M  END
>  <ref_mols>  (2176) 
B0517a

>  <gnina_score>  (2176) 
5.085

>  <smina_score_min>  (2176) 
-5.068

>  <ref_pdb>  (2176) 
B0517a

>  <inspiration_score>  (2176) 
None

>  <inchikey>  (2176) 
UWEZAUFZFSITLK-UHFFFAOYSA-N

>  <tags>  (2176) 
BulkDock Fragalysis export,openbind_d68ev3c_c2_elabs_scored,openbind_d68ev3c_c2_elabs_scored_4.5plus,openbind_d68ev3c_c2_elabs,openbind_d68ev3c_c2_elabs_scored_5plus,syndirella_product,openbind_d68ev3c_c2_elabs_scored_top80percent,syndirella_placed

>  <smiles>  (2176) 
Cn1c(=O)c2ccc(Br)cc2n(CC(=O)NCc2cc(Cl)ccc2O)c1=O

>  <subsites>  (2176) 
None

>  <rmsd(smina/fragmenstein)>  (2176) 
0.681

>  <alias>  (2176) 
None

>  <energy_score>  (2176) 
-16.157173

>  <HIPPO Pose ID>  (2176) 
144006

>  <distance_score>  (2176) 
0.837256

>  <HIPPO Compound ID>  (2176) 
169058

>  <gnina_score_min>  (2176) 
5.036

>  <name>  (2176) 
P144006

>  <exports>  (2176) 
['/opt/xchem-fragalysis-2/maxwin/BulkDock/OUTPUTS/openbind_d68ev3c_c2_elabs_1LOTQJ3.sdf', '/opt/xchem-fragalysis-2/maxwin/BulkDock/OUTPUTS/openbind_d68ev3c_c2_elabs_1LSYI5W.sdf']

$$$$
P144007
     RDKit          3D

 27 30  0  0  0  0  0  0  0  0999 V2000
   -1.8320   -7.5257   34.4681 C   0  0  0  0  0  0  0  0  0  0  0  0
   -0.8060   -6.8043   33.7774 N   0  0  0  0  0  0  0  0  0  0  0  0
   -0.7637   -6.8177   32.3948 C   0  0  0  0  0  0  0  0  0  0  0  0
   -1.5101   -7.4706   31.6672 O   0  0  0  0  0  0  0  0  0  0  0  0
    0.2707   -5.9567   31.7890 C   0  0  0  0  0  0  0  0  0  0  0  0
    0.2807   -5.7599   30.4059 C   0  0  0  0  0  0  0  0  0  0  0  0
    1.2456   -4.9436   29.8180 C   0  0  0  0  0  0  0  0  0  0  0  0
    2.2170   -4.3529   30.6102 C   0  0  0  0  0  0  0  0  0  0  0  0
    3.5452   -3.2725   29.8098 Br  0  0  0  0  0  0  0  0  0  0  0  0
    2.2157   -4.5481   31.9903 C   0  0  0  0  0  0  0  0  0  0  0  0
    1.2291   -5.3422   32.5982 C   0  0  0  0  0  0  0  0  0  0  0  0
    1.1519   -5.5090   33.9993 N   0  0  0  0  0  0  0  0  0  0  0  0
    2.2432   -5.1550   34.9002 C   0  0  0  0  0  0  0  0  0  0  0  0
    2.9587   -6.4723   35.2832 C   0  0  0  0  0  0  0  0  0  0  0  0
    2.9084   -7.4482   34.6356 O   0  0  0  0  0  0  0  0  0  0  0  0
    3.6214   -6.2138   36.6697 N   0  0  0  0  0  0  0  0  0  0  0  0
    4.2599   -7.1075   37.5650 C   0  0  0  0  0  0  0  0  0  0  0  0
    3.4082   -7.3465   38.8078 C   0  0  0  0  0  0  0  0  0  0  0  0
    2.0477   -7.6970   38.6788 C   0  0  0  0  0  0  0  0  0  0  0  0
    1.2313   -7.9226   39.7879 C   0  0  0  0  0  0  0  0  0  0  0  0
    1.7574   -7.8096   41.0663 C   0  0  0  0  0  0  0  0  0  0  0  0
    3.0910   -7.4515   41.2305 C   0  0  0  0  0  0  0  0  0  0  0  0
    3.9004   -7.2122   40.1152 C   0  0  0  0  0  0  0  0  0  0  0  0
    5.0329   -8.2928   37.0195 C   0  0  0  0  0  0  0  0  0  0  0  0
    5.7730   -7.1341   37.6081 C   0  0  0  0  0  0  0  0  0  0  0  0
    0.0955   -6.1701   34.6074 C   0  0  0  0  0  0  0  0  0  0  0  0
   -0.0041   -6.2252   35.8364 O   0  0  0  0  0  0  0  0  0  0  0  0
  1  2  1  0
  2  3  1  0
  3  4  2  0
  3  5  1  0
  5  6  2  0
  6  7  1  0
  7  8  2  0
  8  9  1  0
  8 10  1  0
 10 11  2  0
 11 12  1  0
 12 13  1  0
 13 14  1  0
 14 15  2  0
 14 16  1  0
 16 17  1  0
 17 18  1  0
 18 19  2  0
 19 20  1  0
 20 21  2  0
 21 22  1  0
 22 23  2  0
 17 24  1  0
 24 25  1  0
 12 26  1  0
 26 27  2  0
 26  2  1  0
 11  5  1  0
 25 17  1  0
 23 18  1  0
M  END
>  <ref_mols>  (2177) 
B0517a

>  <gnina_score>  (2177) 
4.984

>  <smina_score_min>  (2177) 
-5.14

>  <ref_pdb>  (2177) 
B0517a

>  <inspiration_score>  (2177) 
None

>  <inchikey>  (2177) 
IVBQYSHTJNADAS-UHFFFAOYSA-N

>  <tags>  (2177) 
BulkDock Fragalysis export,openbind_d68ev3c_c2_elabs_scored,openbind_d68ev3c_c2_elabs_scored_4.5plus,openbind_d68ev3c_c2_elabs,openbind_d68ev3c_c2_elabs_scored_5plus,syndirella_product,openbind_d68ev3c_c2_elabs_scored_top80percent,syndirella_placed

>  <smiles>  (2177) 
Cn1c(=O)c2ccc(Br)cc2n(CC(=O)NC2(c3ccccc3)CC2)c1=O

>  <subsites>  (2177) 
None

>  <rmsd(smina/fragmenstein)>  (2177) 
0.828

>  <alias>  (2177) 
None

>  <energy_score>  (2177) 
-14.661415

>  <HIPPO Pose ID>  (2177) 
144007

>  <distance_score>  (2177) 
0.815389

>  <HIPPO Compound ID>  (2177) 
169059

>  <gnina_score_min>  (2177) 
5.039

>  <name>  (2177) 
P144007

>  <exports>  (2177) 
['/opt/xchem-fragalysis-2/maxwin/BulkDock/OUTPUTS/openbind_d68ev3c_c2_elabs_1LOTQJ3.sdf', '/opt/xchem-fragalysis-2/maxwin/BulkDock/OUTPUTS/openbind_d68ev3c_c2_elabs_1LSYI5W.sdf']

$$$$
P144012
     RDKit          3D

 27 29  0  0  0  0  0  0  0  0999 V2000
    5.1062   -7.8522   36.9502 C   0  0  0  0  0  0  0  0  0  0  0  0
    4.3812   -6.6966   37.6351 C   0  0  1  0  0  0  0  0  0  0  0  0
    3.6276   -5.8834   36.7038 N   0  0  0  0  0  0  0  0  0  0  0  0
    2.9696   -6.2530   35.3423 C   0  0  0  0  0  0  0  0  0  0  0  0
    3.0024   -7.2506   34.7297 O   0  0  0  0  0  0  0  0  0  0  0  0
    2.1489   -5.0112   34.9206 C   0  0  0  0  0  0  0  0  0  0  0  0
    1.1074   -5.4604   34.0056 N   0  0  0  0  0  0  0  0  0  0  0  0
    0.0658   -6.1478   34.6079 C   0  0  0  0  0  0  0  0  0  0  0  0
   -0.0497   -6.1948   35.8358 O   0  0  0  0  0  0  0  0  0  0  0  0
   -0.8123   -6.8097   33.7747 N   0  0  0  0  0  0  0  0  0  0  0  0
   -1.8365   -7.5363   34.4622 C   0  0  0  0  0  0  0  0  0  0  0  0
   -0.7660   -6.8225   32.3925 C   0  0  0  0  0  0  0  0  0  0  0  0
   -1.5076   -7.4792   31.6632 O   0  0  0  0  0  0  0  0  0  0  0  0
    0.2685   -5.9601   31.7894 C   0  0  0  0  0  0  0  0  0  0  0  0
    0.2955   -5.7841   30.4036 C   0  0  0  0  0  0  0  0  0  0  0  0
    1.2665   -4.9751   29.8157 C   0  0  0  0  0  0  0  0  0  0  0  0
    2.2275   -4.3718   30.6106 C   0  0  0  0  0  0  0  0  0  0  0  0
    3.5683   -3.3075   29.8100 Br  0  0  0  0  0  0  0  0  0  0  0  0
    2.2070   -4.5438   31.9936 C   0  0  0  0  0  0  0  0  0  0  0  0
    1.2101   -5.3247   32.6023 C   0  0  0  0  0  0  0  0  0  0  0  0
    3.4884   -7.1732   38.7696 C   0  0  0  0  0  0  0  0  0  0  0  0
    2.1240   -7.4488   38.5379 C   0  0  0  0  0  0  0  0  0  0  0  0
    1.2840   -7.8899   39.5610 C   0  0  0  0  0  0  0  0  0  0  0  0
    1.7890   -8.0921   40.8372 C   0  0  0  0  0  0  0  0  0  0  0  0
    3.1338   -7.8411   41.0926 C   0  0  0  0  0  0  0  0  0  0  0  0
    3.9775   -7.3847   40.0717 C   0  0  0  0  0  0  0  0  0  0  0  0
    5.7935   -7.0776   40.5526 Br  0  0  0  0  0  0  0  0  0  0  0  0
  2  1  1  6
  2  3  1  0
  3  4  1  0
  4  5  2  0
  4  6  1  0
  6  7  1  0
  7  8  1  0
  8  9  2  0
  8 10  1  0
 10 11  1  0
 10 12  1  0
 12 13  2  0
 12 14  1  0
 14 15  2  0
 15 16  1  0
 16 17  2  0
 17 18  1  0
 17 19  1  0
 19 20  2  0
  2 21  1  0
 21 22  2  0
 22 23  1  0
 23 24  2  0
 24 25  1  0
 25 26  2  0
 26 27  1  0
 20  7  1  0
 26 21  1  0
 20 14  1  0
M  END
>  <ref_mols>  (2178) 
B0517a

>  <gnina_score>  (2178) 
5.102

>  <smina_score_min>  (2178) 
-4.96

>  <ref_pdb>  (2178) 
B0517a

>  <inspiration_score>  (2178) 
None

>  <inchikey>  (2178) 
VYIRLVAJNITGLN-LLVKDONJSA-N

>  <tags>  (2178) 
BulkDock Fragalysis export,openbind_d68ev3c_c2_elabs_scored,openbind_d68ev3c_c2_elabs_scored_4.5plus,openbind_d68ev3c_c2_elabs,openbind_d68ev3c_c2_elabs_scored_5plus,syndirella_product,openbind_d68ev3c_c2_elabs_scored_top80percent,syndirella_placed

>  <smiles>  (2178) 
C[C@@H](NC(=O)Cn1c(=O)n(C)c(=O)c2ccc(Br)cc21)c1ccccc1Br

>  <subsites>  (2178) 
None

>  <rmsd(smina/fragmenstein)>  (2178) 
0.866

>  <alias>  (2178) 
None

>  <energy_score>  (2178) 
-11.437371

>  <HIPPO Pose ID>  (2178) 
144012

>  <distance_score>  (2178) 
0.747053

>  <HIPPO Compound ID>  (2178) 
169065

>  <gnina_score_min>  (2178) 
5.146

>  <name>  (2178) 
P144012

>  <exports>  (2178) 
['/opt/xchem-fragalysis-2/maxwin/BulkDock/OUTPUTS/openbind_d68ev3c_c2_elabs_1LOTQJ3.sdf', '/opt/xchem-fragalysis-2/maxwin/BulkDock/OUTPUTS/openbind_d68ev3c_c2_elabs_1LSYI5W.sdf']

$$$$
P144015
     RDKit          3D

 27 29  0  0  0  0  0  0  0  0999 V2000
   -1.8224   -7.5145   34.4821 C   0  0  0  0  0  0  0  0  0  0  0  0
   -0.7902   -6.8128   33.7786 N   0  0  0  0  0  0  0  0  0  0  0  0
   -0.7594   -6.8313   32.3955 C   0  0  0  0  0  0  0  0  0  0  0  0
   -1.5106   -7.4856   31.6739 O   0  0  0  0  0  0  0  0  0  0  0  0
    0.2697   -5.9714   31.7782 C   0  0  0  0  0  0  0  0  0  0  0  0
    0.2575   -5.7610   30.3973 C   0  0  0  0  0  0  0  0  0  0  0  0
    1.2123   -4.9379   29.8018 C   0  0  0  0  0  0  0  0  0  0  0  0
    2.1989   -4.3576   30.5820 C   0  0  0  0  0  0  0  0  0  0  0  0
    3.5136   -3.2697   29.7700 Br  0  0  0  0  0  0  0  0  0  0  0  0
    2.2215   -4.5686   31.9590 C   0  0  0  0  0  0  0  0  0  0  0  0
    1.2435   -5.3670   32.5757 C   0  0  0  0  0  0  0  0  0  0  0  0
    1.1880   -5.5453   33.9751 N   0  0  0  0  0  0  0  0  0  0  0  0
    2.2869   -5.1902   34.8626 C   0  0  0  0  0  0  0  0  0  0  0  0
    2.9872   -6.5069   35.2823 C   0  0  0  0  0  0  0  0  0  0  0  0
    2.9347   -7.4963   34.6612 O   0  0  0  0  0  0  0  0  0  0  0  0
    3.6480   -6.2158   36.6539 N   0  0  0  0  0  0  0  0  0  0  0  0
    4.2936   -7.0976   37.5823 C   0  0  0  0  0  0  0  0  0  0  0  0
    3.3980   -7.4424   38.7453 C   0  0  0  0  0  0  0  0  0  0  0  0
    2.1380   -6.8486   38.9455 C   0  0  0  0  0  0  0  0  0  0  0  0
    1.3698   -7.1754   40.0628 C   0  0  0  0  0  0  0  0  0  0  0  0
   -0.2384   -6.2451   40.3949 Br  0  0  0  0  0  0  0  0  0  0  0  0
    1.8140   -8.1250   40.9750 C   0  0  0  0  0  0  0  0  0  0  0  0
    3.0537   -8.7310   40.7865 C   0  0  0  0  0  0  0  0  0  0  0  0
    3.8366   -8.3797   39.6869 C   0  0  0  0  0  0  0  0  0  0  0  0
    5.0616   -8.9628   39.5099 O   0  0  0  0  0  0  0  0  0  0  0  0
    0.1254   -6.1835   34.5979 C   0  0  0  0  0  0  0  0  0  0  0  0
    0.0321   -6.2186   35.8278 O   0  0  0  0  0  0  0  0  0  0  0  0
  1  2  1  0
  2  3  1  0
  3  4  2  0
  3  5  1  0
  5  6  2  0
  6  7  1  0
  7  8  2  0
  8  9  1  0
  8 10  1  0
 10 11  2  0
 11 12  1  0
 12 13  1  0
 13 14  1  0
 14 15  2  0
 14 16  1  0
 16 17  1  0
 17 18  1  0
 18 19  2  0
 19 20  1  0
 20 21  1  0
 20 22  2  0
 22 23  1  0
 23 24  2  0
 24 25  1  0
 12 26  1  0
 26 27  2  0
 26  2  1  0
 11  5  1  0
 24 18  1  0
M  END
>  <ref_mols>  (2179) 
B0517a

>  <gnina_score>  (2179) 
5.058

>  <smina_score_min>  (2179) 
-5.096

>  <ref_pdb>  (2179) 
B0517a

>  <inspiration_score>  (2179) 
None

>  <inchikey>  (2179) 
XAHGZXRWHUUCHE-UHFFFAOYSA-N

>  <tags>  (2179) 
BulkDock Fragalysis export,openbind_d68ev3c_c2_elabs_scored,openbind_d68ev3c_c2_elabs_scored_4.5plus,openbind_d68ev3c_c2_elabs,openbind_d68ev3c_c2_elabs_scored_5plus,syndirella_product,openbind_d68ev3c_c2_elabs_scored_top80percent,syndirella_placed

>  <smiles>  (2179) 
Cn1c(=O)c2ccc(Br)cc2n(CC(=O)NCc2cc(Br)ccc2O)c1=O

>  <subsites>  (2179) 
None

>  <rmsd(smina/fragmenstein)>  (2179) 
0.718

>  <alias>  (2179) 
None

>  <energy_score>  (2179) 
-28.403087

>  <HIPPO Pose ID>  (2179) 
144015

>  <distance_score>  (2179) 
0.856677

>  <HIPPO Compound ID>  (2179) 
169068

>  <gnina_score_min>  (2179) 
5.041

>  <name>  (2179) 
P144015

>  <exports>  (2179) 
['/opt/xchem-fragalysis-2/maxwin/BulkDock/OUTPUTS/openbind_d68ev3c_c2_elabs_1LOTQJ3.sdf', '/opt/xchem-fragalysis-2/maxwin/BulkDock/OUTPUTS/openbind_d68ev3c_c2_elabs_1LSYI5W.sdf']

$$$$
P144017
     RDKit          3D

 27 29  0  0  0  0  0  0  0  0999 V2000
    5.1159   -7.8367   36.9960 C   0  0  0  0  0  0  0  0  0  0  0  0
    4.3472   -6.6998   37.6615 C   0  0  1  0  0  0  0  0  0  0  0  0
    3.6090   -5.8906   36.7221 N   0  0  0  0  0  0  0  0  0  0  0  0
    2.9706   -6.2616   35.3519 C   0  0  0  0  0  0  0  0  0  0  0  0
    3.0127   -7.2598   34.7407 O   0  0  0  0  0  0  0  0  0  0  0  0
    2.1552   -5.0204   34.9175 C   0  0  0  0  0  0  0  0  0  0  0  0
    1.1146   -5.4723   34.0030 N   0  0  0  0  0  0  0  0  0  0  0  0
    0.0712   -6.1558   34.6071 C   0  0  0  0  0  0  0  0  0  0  0  0
   -0.0406   -6.2020   35.8352 O   0  0  0  0  0  0  0  0  0  0  0  0
   -0.8107   -6.8147   33.7757 N   0  0  0  0  0  0  0  0  0  0  0  0
   -1.8388   -7.5346   34.4655 C   0  0  0  0  0  0  0  0  0  0  0  0
   -0.7649   -6.8295   32.3935 C   0  0  0  0  0  0  0  0  0  0  0  0
   -1.5036   -7.4896   31.6644 O   0  0  0  0  0  0  0  0  0  0  0  0
    0.2679   -5.9657   31.7889 C   0  0  0  0  0  0  0  0  0  0  0  0
    0.2899   -5.7854   30.4036 C   0  0  0  0  0  0  0  0  0  0  0  0
    1.2583   -4.9740   29.8147 C   0  0  0  0  0  0  0  0  0  0  0  0
    2.2222   -4.3731   30.6077 C   0  0  0  0  0  0  0  0  0  0  0  0
    3.5599   -3.3060   29.8054 Br  0  0  0  0  0  0  0  0  0  0  0  0
    2.2069   -4.5495   31.9901 C   0  0  0  0  0  0  0  0  0  0  0  0
    1.2124   -5.3325   32.6001 C   0  0  0  0  0  0  0  0  0  0  0  0
    3.4347   -7.2000   38.7654 C   0  0  0  0  0  0  0  0  0  0  0  0
    2.0650   -7.4442   38.5651 C   0  0  0  0  0  0  0  0  0  0  0  0
    1.2572   -7.9048   39.6064 C   0  0  0  0  0  0  0  0  0  0  0  0
    1.8059   -8.1509   40.8609 C   0  0  0  0  0  0  0  0  0  0  0  0
    3.1613   -7.9240   41.0708 C   0  0  0  0  0  0  0  0  0  0  0  0
    3.8512   -8.2298   42.6185 Cl  0  0  0  0  0  0  0  0  0  0  0  0
    3.9723   -7.4506   40.0376 C   0  0  0  0  0  0  0  0  0  0  0  0
  2  1  1  6
  2  3  1  0
  3  4  1  0
  4  5  2  0
  4  6  1  0
  6  7  1  0
  7  8  1  0
  8  9  2  0
  8 10  1  0
 10 11  1  0
 10 12  1  0
 12 13  2  0
 12 14  1  0
 14 15  2  0
 15 16  1  0
 16 17  2  0
 17 18  1  0
 17 19  1  0
 19 20  2  0
  2 21  1  0
 21 22  2  0
 22 23  1  0
 23 24  2  0
 24 25  1  0
 25 26  1  0
 25 27  2  0
 20  7  1  0
 27 21  1  0
 20 14  1  0
M  END
>  <ref_mols>  (2180) 
B0517a

>  <gnina_score>  (2180) 
5.072

>  <smina_score_min>  (2180) 
-5.211

>  <ref_pdb>  (2180) 
B0517a

>  <inspiration_score>  (2180) 
None

>  <inchikey>  (2180) 
PJTKWCGDGNFAFP-LLVKDONJSA-N

>  <tags>  (2180) 
BulkDock Fragalysis export,openbind_d68ev3c_c2_elabs_scored,openbind_d68ev3c_c2_elabs_scored_4.5plus,openbind_d68ev3c_c2_elabs,openbind_d68ev3c_c2_elabs_scored_5plus,syndirella_product,openbind_d68ev3c_c2_elabs_scored_top80percent,syndirella_placed

>  <smiles>  (2180) 
C[C@@H](NC(=O)Cn1c(=O)n(C)c(=O)c2ccc(Br)cc21)c1cccc(Cl)c1

>  <subsites>  (2180) 
None

>  <rmsd(smina/fragmenstein)>  (2180) 
0.964

>  <alias>  (2180) 
None

>  <energy_score>  (2180) 
-8.012626

>  <HIPPO Pose ID>  (2180) 
144017

>  <distance_score>  (2180) 
0.741955

>  <HIPPO Compound ID>  (2180) 
169069

>  <gnina_score_min>  (2180) 
5.11

>  <name>  (2180) 
P144017

>  <exports>  (2180) 
['/opt/xchem-fragalysis-2/maxwin/BulkDock/OUTPUTS/openbind_d68ev3c_c2_elabs_1LOTQJ3.sdf', '/opt/xchem-fragalysis-2/maxwin/BulkDock/OUTPUTS/openbind_d68ev3c_c2_elabs_1LSYI5W.sdf']

$$$$
P144018
     RDKit          3D

 27 29  0  0  0  0  0  0  0  0999 V2000
   -1.8167   -7.5144   34.4811 C   0  0  0  0  0  0  0  0  0  0  0  0
   -0.7859   -6.8117   33.7772 N   0  0  0  0  0  0  0  0  0  0  0  0
   -0.7585   -6.8285   32.3938 C   0  0  0  0  0  0  0  0  0  0  0  0
   -1.5152   -7.4790   31.6749 O   0  0  0  0  0  0  0  0  0  0  0  0
    0.2710   -5.9705   31.7747 C   0  0  0  0  0  0  0  0  0  0  0  0
    0.2579   -5.7622   30.3936 C   0  0  0  0  0  0  0  0  0  0  0  0
    1.2123   -4.9397   29.7964 C   0  0  0  0  0  0  0  0  0  0  0  0
    2.1997   -4.3588   30.5748 C   0  0  0  0  0  0  0  0  0  0  0  0
    3.5144   -3.2729   29.7602 Br  0  0  0  0  0  0  0  0  0  0  0  0
    2.2231   -4.5677   31.9521 C   0  0  0  0  0  0  0  0  0  0  0  0
    1.2449   -5.3644   32.5708 C   0  0  0  0  0  0  0  0  0  0  0  0
    1.1892   -5.5394   33.9708 N   0  0  0  0  0  0  0  0  0  0  0  0
    2.2815   -5.1679   34.8590 C   0  0  0  0  0  0  0  0  0  0  0  0
    2.9885   -6.4747   35.2996 C   0  0  0  0  0  0  0  0  0  0  0  0
    2.9370   -7.4753   34.6960 O   0  0  0  0  0  0  0  0  0  0  0  0
    3.6558   -6.1568   36.6634 N   0  0  0  0  0  0  0  0  0  0  0  0
    4.3098   -7.0193   37.6031 C   0  0  0  0  0  0  0  0  0  0  0  0
    3.4004   -7.4132   38.7345 C   0  0  0  0  0  0  0  0  0  0  0  0
    2.1320   -6.8510   38.9589 C   0  0  0  0  0  0  0  0  0  0  0  0
    1.3787   -7.2349   40.0706 C   0  0  0  0  0  0  0  0  0  0  0  0
   -0.2430   -6.3473   40.4490 Br  0  0  0  0  0  0  0  0  0  0  0  0
    1.8474   -8.2083   40.9474 C   0  0  0  0  0  0  0  0  0  0  0  0
    3.0978   -8.7795   40.7290 C   0  0  0  0  0  0  0  0  0  0  0  0
    3.8621   -8.3721   39.6401 C   0  0  0  0  0  0  0  0  0  0  0  0
    5.0737   -8.9193   39.4620 F   0  0  0  0  0  0  0  0  0  0  0  0
    0.1285   -6.1791   34.5949 C   0  0  0  0  0  0  0  0  0  0  0  0
    0.0348   -6.2108   35.8253 O   0  0  0  0  0  0  0  0  0  0  0  0
  1  2  1  0
  2  3  1  0
  3  4  2  0
  3  5  1  0
  5  6  2  0
  6  7  1  0
  7  8  2  0
  8  9  1  0
  8 10  1  0
 10 11  2  0
 11 12  1  0
 12 13  1  0
 13 14  1  0
 14 15  2  0
 14 16  1  0
 16 17  1  0
 17 18  1  0
 18 19  2  0
 19 20  1  0
 20 21  1  0
 20 22  2  0
 22 23  1  0
 23 24  2  0
 24 25  1  0
 12 26  1  0
 26 27  2  0
 26  2  1  0
 11  5  1  0
 24 18  1  0
M  END
>  <ref_mols>  (2181) 
B0517a

>  <gnina_score>  (2181) 
5.115

>  <smina_score_min>  (2181) 
-5.075

>  <ref_pdb>  (2181) 
B0517a

>  <inspiration_score>  (2181) 
None

>  <inchikey>  (2181) 
ZVUBGUOSWFYLQQ-UHFFFAOYSA-N

>  <tags>  (2181) 
BulkDock Fragalysis export,openbind_d68ev3c_c2_elabs_scored,openbind_d68ev3c_c2_elabs_scored_4.5plus,openbind_d68ev3c_c2_elabs,openbind_d68ev3c_c2_elabs_scored_5plus,syndirella_product,openbind_d68ev3c_c2_elabs_scored_top80percent,syndirella_placed

>  <smiles>  (2181) 
Cn1c(=O)c2ccc(Br)cc2n(CC(=O)NCc2cc(Br)ccc2F)c1=O

>  <subsites>  (2181) 
None

>  <rmsd(smina/fragmenstein)>  (2181) 
0.715

>  <alias>  (2181) 
None

>  <energy_score>  (2181) 
-19.46288

>  <HIPPO Pose ID>  (2181) 
144018

>  <distance_score>  (2181) 
0.852182

>  <HIPPO Compound ID>  (2181) 
169072

>  <gnina_score_min>  (2181) 
5.118

>  <name>  (2181) 
P144018

>  <exports>  (2181) 
['/opt/xchem-fragalysis-2/maxwin/BulkDock/OUTPUTS/openbind_d68ev3c_c2_elabs_1LOTQJ3.sdf', '/opt/xchem-fragalysis-2/maxwin/BulkDock/OUTPUTS/openbind_d68ev3c_c2_elabs_1LSYI5W.sdf']

$$$$
P144021
     RDKit          3D

 27 29  0  0  0  0  0  0  0  0999 V2000
    1.0187   -7.2648   37.9507 C   0  0  0  0  0  0  0  0  0  0  0  0
    2.0012   -7.4716   39.0594 C   0  0  0  0  0  0  0  0  0  0  0  0
    1.4503   -7.8070   40.3071 C   0  0  0  0  0  0  0  0  0  0  0  0
    2.2615   -8.0148   41.4085 C   0  0  0  0  0  0  0  0  0  0  0  0
    3.6368   -7.8852   41.2783 C   0  0  0  0  0  0  0  0  0  0  0  0
    4.2217   -7.5522   40.0447 C   0  0  0  0  0  0  0  0  0  0  0  0
    5.7259   -7.4669   39.9862 C   0  0  0  0  0  0  0  0  0  0  0  0
    3.4036   -7.3193   38.9091 C   0  0  0  0  0  0  0  0  0  0  0  0
    4.0659   -7.0551   37.5708 C   0  0  0  0  0  0  0  0  0  0  0  0
    3.3727   -6.1265   36.7261 N   0  0  0  0  0  0  0  0  0  0  0  0
    2.8177   -6.2941   35.2867 C   0  0  0  0  0  0  0  0  0  0  0  0
    2.9078   -7.1895   34.5390 O   0  0  0  0  0  0  0  0  0  0  0  0
    2.0431   -4.9922   34.9471 C   0  0  0  0  0  0  0  0  0  0  0  0
    1.0000   -5.3572   33.9912 N   0  0  0  0  0  0  0  0  0  0  0  0
   -0.0902   -6.0027   34.5437 C   0  0  0  0  0  0  0  0  0  0  0  0
   -0.3192   -5.9621   35.7534 O   0  0  0  0  0  0  0  0  0  0  0  0
   -0.8793   -6.7466   33.6950 N   0  0  0  0  0  0  0  0  0  0  0  0
   -1.8512   -7.5517   34.3693 C   0  0  0  0  0  0  0  0  0  0  0  0
   -0.7731   -6.7856   32.3193 C   0  0  0  0  0  0  0  0  0  0  0  0
   -1.4643   -7.4777   31.5734 O   0  0  0  0  0  0  0  0  0  0  0  0
    0.2707   -5.9114   31.7488 C   0  0  0  0  0  0  0  0  0  0  0  0
    0.3582   -5.7600   30.3641 C   0  0  0  0  0  0  0  0  0  0  0  0
    1.3610   -4.9705   29.8041 C   0  0  0  0  0  0  0  0  0  0  0  0
    2.2881   -4.3547   30.6314 C   0  0  0  0  0  0  0  0  0  0  0  0
    3.6683   -3.3106   29.8715 Br  0  0  0  0  0  0  0  0  0  0  0  0
    2.2033   -4.4959   32.0160 C   0  0  0  0  0  0  0  0  0  0  0  0
    1.1767   -5.2618   32.5914 C   0  0  0  0  0  0  0  0  0  0  0  0
  1  2  1  0
  2  3  2  0
  3  4  1  0
  4  5  2  0
  5  6  1  0
  6  7  1  0
  6  8  2  0
  8  9  1  0
  9 10  1  0
 10 11  1  0
 11 12  2  0
 11 13  1  0
 13 14  1  0
 14 15  1  0
 15 16  2  0
 15 17  1  0
 17 18  1  0
 17 19  1  0
 19 20  2  0
 19 21  1  0
 21 22  2  0
 22 23  1  0
 23 24  2  0
 24 25  1  0
 24 26  1  0
 26 27  2  0
  8  2  1  0
 27 14  1  0
 27 21  1  0
M  END
>  <ref_mols>  (2182) 
B0517a

>  <gnina_score>  (2182) 
5.043

>  <smina_score_min>  (2182) 
-4.564

>  <ref_pdb>  (2182) 
B0517a

>  <inspiration_score>  (2182) 
None

>  <inchikey>  (2182) 
YGSLWXCNIRHCKH-UHFFFAOYSA-N

>  <tags>  (2182) 
BulkDock Fragalysis export,openbind_d68ev3c_c2_elabs_scored,openbind_d68ev3c_c2_elabs_scored_4.5plus,openbind_d68ev3c_c2_elabs,openbind_d68ev3c_c2_elabs_scored_5plus,syndirella_product,openbind_d68ev3c_c2_elabs_scored_top80percent,syndirella_placed

>  <smiles>  (2182) 
Cc1cccc(C)c1CNC(=O)Cn1c(=O)n(C)c(=O)c2ccc(Br)cc21

>  <subsites>  (2182) 
None

>  <rmsd(smina/fragmenstein)>  (2182) 
0.952

>  <alias>  (2182) 
None

>  <energy_score>  (2182) 
-4.550745

>  <HIPPO Pose ID>  (2182) 
144021

>  <distance_score>  (2182) 
0.843293

>  <HIPPO Compound ID>  (2182) 
169076

>  <gnina_score_min>  (2182) 
5.036

>  <name>  (2182) 
P144021

>  <exports>  (2182) 
['/opt/xchem-fragalysis-2/maxwin/BulkDock/OUTPUTS/openbind_d68ev3c_c2_elabs_1LOTQJ3.sdf', '/opt/xchem-fragalysis-2/maxwin/BulkDock/OUTPUTS/openbind_d68ev3c_c2_elabs_1LSYI5W.sdf']

$$$$
P144025
     RDKit          3D

 27 29  0  0  0  0  0  0  0  0999 V2000
   -1.2683   -7.6809   35.6226 C   0  0  0  0  0  0  0  0  0  0  0  0
   -1.5020   -7.1548   34.2348 C   0  0  0  0  0  0  0  0  0  0  0  0
   -0.3833   -6.5088   33.5978 N   0  0  0  0  0  0  0  0  0  0  0  0
   -0.4072   -6.5032   32.2084 C   0  0  0  0  0  0  0  0  0  0  0  0
   -1.2135   -7.1292   31.5194 O   0  0  0  0  0  0  0  0  0  0  0  0
    0.6166   -5.6701   31.5592 C   0  0  0  0  0  0  0  0  0  0  0  0
    0.6167   -5.5354   30.1718 C   0  0  0  0  0  0  0  0  0  0  0  0
    1.6035   -4.7869   29.5325 C   0  0  0  0  0  0  0  0  0  0  0  0
    2.6062   -4.1897   30.2800 C   0  0  0  0  0  0  0  0  0  0  0  0
    2.5897   -4.2998   31.6699 C   0  0  0  0  0  0  0  0  0  0  0  0
    1.5688   -5.0067   32.3278 C   0  0  0  0  0  0  0  0  0  0  0  0
    1.4441   -5.0155   33.7347 N   0  0  0  0  0  0  0  0  0  0  0  0
    2.3427   -4.2237   34.5813 C   0  0  0  0  0  0  0  0  0  0  0  0
    3.5123   -5.1126   35.0411 C   0  0  0  0  0  0  0  0  0  0  0  0
    4.5409   -5.1319   34.4884 O   0  0  0  0  0  0  0  0  0  0  0  0
    3.0202   -5.9107   36.2762 N   0  0  0  0  0  0  0  0  0  0  0  0
    3.6566   -6.9595   37.0225 C   0  0  0  0  0  0  0  0  0  0  0  0
    2.9913   -7.2555   38.3404 C   0  0  0  0  0  0  0  0  0  0  0  0
    3.7771   -7.5396   39.4693 C   0  0  0  0  0  0  0  0  0  0  0  0
    3.1843   -7.8739   40.6926 C   0  0  0  0  0  0  0  0  0  0  0  0
    1.7957   -7.9264   40.8013 C   0  0  0  0  0  0  0  0  0  0  0  0
    1.0060   -8.3630   42.4624 Br  0  0  0  0  0  0  0  0  0  0  0  0
    1.0083   -7.6501   39.6905 C   0  0  0  0  0  0  0  0  0  0  0  0
   -0.3297   -7.6677   39.7755 F   0  0  0  0  0  0  0  0  0  0  0  0
    1.5954   -7.3326   38.4667 C   0  0  0  0  0  0  0  0  0  0  0  0
    0.4265   -5.6959   34.3744 C   0  0  0  0  0  0  0  0  0  0  0  0
    0.2948   -5.5788   35.5949 O   0  0  0  0  0  0  0  0  0  0  0  0
  1  2  1  0
  2  3  1  0
  3  4  1  0
  4  5  2  0
  4  6  1  0
  6  7  2  0
  7  8  1  0
  8  9  2  0
  9 10  1  0
 10 11  2  0
 11 12  1  0
 12 13  1  0
 13 14  1  0
 14 15  2  0
 14 16  1  0
 16 17  1  0
 17 18  1  0
 18 19  2  0
 19 20  1  0
 20 21  2  0
 21 22  1  0
 21 23  1  0
 23 24  1  0
 23 25  2  0
 12 26  1  0
 26 27  2  0
 26  3  1  0
 11  6  1  0
 25 18  1  0
M  END
>  <ref_mols>  (2183) 
B0517a

>  <gnina_score>  (2183) 
5.104

>  <smina_score_min>  (2183) 
-4.032

>  <ref_pdb>  (2183) 
B0517a

>  <inspiration_score>  (2183) 
None

>  <inchikey>  (2183) 
BWFKIDJWAUPRTQ-UHFFFAOYSA-N

>  <tags>  (2183) 
BulkDock Fragalysis export,openbind_d68ev3c_c2_elabs_scored,openbind_d68ev3c_c2_elabs_scored_4.5plus,openbind_d68ev3c_c2_elabs,openbind_d68ev3c_c2_elabs_scored_5plus,syndirella_product,openbind_d68ev3c_c2_elabs_scored_top80percent,syndirella_placed

>  <smiles>  (2183) 
CCn1c(=O)c2ccccc2n(CC(=O)NCc2ccc(Br)c(F)c2)c1=O

>  <subsites>  (2183) 
None

>  <rmsd(smina/fragmenstein)>  (2183) 
1.197

>  <alias>  (2183) 
None

>  <energy_score>  (2183) 
-18.074645

>  <HIPPO Pose ID>  (2183) 
144025

>  <distance_score>  (2183) 
1.202036

>  <HIPPO Compound ID>  (2183) 
169083

>  <gnina_score_min>  (2183) 
5.059

>  <name>  (2183) 
P144025

>  <exports>  (2183) 
['/opt/xchem-fragalysis-2/maxwin/BulkDock/OUTPUTS/openbind_d68ev3c_c2_elabs_1LOTQJ3.sdf', '/opt/xchem-fragalysis-2/maxwin/BulkDock/OUTPUTS/openbind_d68ev3c_c2_elabs_1LSYI5W.sdf']

$$$$
P144035
     RDKit          3D

 27 29  0  0  0  0  0  0  0  0999 V2000
   -1.3010   -7.6799   35.6059 C   0  0  0  0  0  0  0  0  0  0  0  0
   -1.4968   -7.1719   34.2056 C   0  0  0  0  0  0  0  0  0  0  0  0
   -0.3679   -6.5328   33.5800 N   0  0  0  0  0  0  0  0  0  0  0  0
   -0.4030   -6.5016   32.1904 C   0  0  0  0  0  0  0  0  0  0  0  0
   -1.2139   -7.1184   31.4983 O   0  0  0  0  0  0  0  0  0  0  0  0
    0.6101   -5.6517   31.5470 C   0  0  0  0  0  0  0  0  0  0  0  0
    0.5915   -5.4855   30.1630 C   0  0  0  0  0  0  0  0  0  0  0  0
    1.5647   -4.7162   29.5282 C   0  0  0  0  0  0  0  0  0  0  0  0
    2.5734   -4.1301   30.2766 C   0  0  0  0  0  0  0  0  0  0  0  0
    2.5747   -4.2709   31.6640 C   0  0  0  0  0  0  0  0  0  0  0  0
    1.5663   -4.9982   32.3189 C   0  0  0  0  0  0  0  0  0  0  0  0
    1.4602   -5.0407   33.7268 N   0  0  0  0  0  0  0  0  0  0  0  0
    2.3559   -4.2522   34.5799 C   0  0  0  0  0  0  0  0  0  0  0  0
    3.5368   -5.1360   35.0155 C   0  0  0  0  0  0  0  0  0  0  0  0
    4.5346   -5.1915   34.4113 O   0  0  0  0  0  0  0  0  0  0  0  0
    3.0944   -5.8906   36.2957 N   0  0  0  0  0  0  0  0  0  0  0  0
    3.7496   -6.9347   37.0382 C   0  0  0  0  0  0  0  0  0  0  0  0
    3.1120   -7.1951   38.3792 C   0  0  0  0  0  0  0  0  0  0  0  0
    1.7258   -7.4528   38.4352 C   0  0  0  0  0  0  0  0  0  0  0  0
    1.0901   -7.7474   39.6417 C   0  0  0  0  0  0  0  0  0  0  0  0
    1.8333   -7.7981   40.8083 C   0  0  0  0  0  0  0  0  0  0  0  0
    1.2276   -8.0725   41.9708 F   0  0  0  0  0  0  0  0  0  0  0  0
    3.2004   -7.5638   40.7900 C   0  0  0  0  0  0  0  0  0  0  0  0
    3.8402   -7.2671   39.5812 C   0  0  0  0  0  0  0  0  0  0  0  0
    5.7186   -6.9879   39.6661 Br  0  0  0  0  0  0  0  0  0  0  0  0
    0.4635   -5.7517   34.3656 C   0  0  0  0  0  0  0  0  0  0  0  0
    0.3697   -5.6872   35.5937 O   0  0  0  0  0  0  0  0  0  0  0  0
  1  2  1  0
  2  3  1  0
  3  4  1  0
  4  5  2  0
  4  6  1  0
  6  7  2  0
  7  8  1  0
  8  9  2  0
  9 10  1  0
 10 11  2  0
 11 12  1  0
 12 13  1  0
 13 14  1  0
 14 15  2  0
 14 16  1  0
 16 17  1  0
 17 18  1  0
 18 19  2  0
 19 20  1  0
 20 21  2  0
 21 22  1  0
 21 23  1  0
 23 24  2  0
 24 25  1  0
 12 26  1  0
 26 27  2  0
 26  3  1  0
 11  6  1  0
 24 18  1  0
M  END
>  <ref_mols>  (2184) 
B0517a

>  <gnina_score>  (2184) 
5.119

>  <smina_score_min>  (2184) 
-4.014

>  <ref_pdb>  (2184) 
B0517a

>  <inspiration_score>  (2184) 
None

>  <inchikey>  (2184) 
TXJISVKOJDEFAW-UHFFFAOYSA-N

>  <tags>  (2184) 
BulkDock Fragalysis export,openbind_d68ev3c_c2_elabs_scored,openbind_d68ev3c_c2_elabs_scored_4.5plus,openbind_d68ev3c_c2_elabs,openbind_d68ev3c_c2_elabs_scored_5plus,syndirella_product,openbind_d68ev3c_c2_elabs_scored_top80percent,syndirella_placed

>  <smiles>  (2184) 
CCn1c(=O)c2ccccc2n(CC(=O)NCc2ccc(F)cc2Br)c1=O

>  <subsites>  (2184) 
None

>  <rmsd(smina/fragmenstein)>  (2184) 
1.692

>  <alias>  (2184) 
None

>  <energy_score>  (2184) 
-18.271866

>  <HIPPO Pose ID>  (2184) 
144035

>  <distance_score>  (2184) 
1.201253

>  <HIPPO Compound ID>  (2184) 
169102

>  <gnina_score_min>  (2184) 
5.141

>  <name>  (2184) 
P144035

>  <exports>  (2184) 
['/opt/xchem-fragalysis-2/maxwin/BulkDock/OUTPUTS/openbind_d68ev3c_c2_elabs_1LOTQJ3.sdf', '/opt/xchem-fragalysis-2/maxwin/BulkDock/OUTPUTS/openbind_d68ev3c_c2_elabs_1LSYI5W.sdf']

$$$$
P144041
     RDKit          3D

 27 29  0  0  0  0  0  0  0  0999 V2000
   -2.2548   -7.7639   34.8039 C   0  0  0  0  0  0  0  0  0  0  0  0
   -0.8024   -7.4999   35.0069 C   0  0  0  0  0  0  0  0  0  0  0  0
   -0.3058   -6.4799   34.1163 N   0  0  0  0  0  0  0  0  0  0  0  0
   -0.3144   -6.6772   32.7389 C   0  0  0  0  0  0  0  0  0  0  0  0
   -0.8893   -7.5899   32.1483 O   0  0  0  0  0  0  0  0  0  0  0  0
    0.4818   -5.7132   31.9586 C   0  0  0  0  0  0  0  0  0  0  0  0
    0.6280   -5.8915   30.5778 C   0  0  0  0  0  0  0  0  0  0  0  0
    1.4611   -5.0436   29.8505 C   0  0  0  0  0  0  0  0  0  0  0  0
    2.1478   -4.0254   30.4965 C   0  0  0  0  0  0  0  0  0  0  0  0
    1.9937   -3.8445   31.8709 C   0  0  0  0  0  0  0  0  0  0  0  0
    1.1481   -4.6782   32.6192 C   0  0  0  0  0  0  0  0  0  0  0  0
    0.9408   -4.4912   34.0091 N   0  0  0  0  0  0  0  0  0  0  0  0
    1.6437   -3.4529   34.7642 C   0  0  0  0  0  0  0  0  0  0  0  0
    2.9942   -4.0218   35.2552 C   0  0  0  0  0  0  0  0  0  0  0  0
    3.9665   -3.9421   34.6107 O   0  0  0  0  0  0  0  0  0  0  0  0
    2.7415   -4.7365   36.6125 N   0  0  0  0  0  0  0  0  0  0  0  0
    3.6568   -5.4171   37.4983 C   0  0  0  0  0  0  0  0  0  0  0  0
    3.0768   -6.4229   38.4739 C   0  0  0  0  0  0  0  0  0  0  0  0
    1.7311   -6.8178   38.4012 C   0  0  0  0  0  0  0  0  0  0  0  0
    1.1867   -7.7259   39.3058 C   0  0  0  0  0  0  0  0  0  0  0  0
    1.9780   -8.2861   40.2989 C   0  0  0  0  0  0  0  0  0  0  0  0
    3.3327   -7.9492   40.4071 C   0  0  0  0  0  0  0  0  0  0  0  0
    4.1317   -8.6161   41.4954 C   0  0  0  0  0  0  0  0  0  0  0  0
    3.8765   -7.0197   39.4869 C   0  0  0  0  0  0  0  0  0  0  0  0
    5.9580   -6.5319   39.6275 I   0  0  0  0  0  0  0  0  0  0  0  0
    0.1669   -5.3555   34.7513 C   0  0  0  0  0  0  0  0  0  0  0  0
   -0.0347   -5.1597   35.9528 O   0  0  0  0  0  0  0  0  0  0  0  0
  1  2  1  0
  2  3  1  0
  3  4  1  0
  4  5  2  0
  4  6  1  0
  6  7  2  0
  7  8  1  0
  8  9  2  0
  9 10  1  0
 10 11  2  0
 11 12  1  0
 12 13  1  0
 13 14  1  0
 14 15  2  0
 14 16  1  0
 16 17  1  0
 17 18  1  0
 18 19  2  0
 19 20  1  0
 20 21  2  0
 21 22  1  0
 22 23  1  0
 22 24  2  0
 24 25  1  0
 12 26  1  0
 26 27  2  0
 26  3  1  0
 11  6  1  0
 24 18  1  0
M  END
>  <ref_mols>  (2185) 
B0517a

>  <gnina_score>  (2185) 
5.178

>  <smina_score_min>  (2185) 
-3.831

>  <ref_pdb>  (2185) 
B0517a

>  <inspiration_score>  (2185) 
None

>  <inchikey>  (2185) 
MVBTWRXYRMZABF-UHFFFAOYSA-N

>  <tags>  (2185) 
BulkDock Fragalysis export,openbind_d68ev3c_c2_elabs_scored,openbind_d68ev3c_c2_elabs_scored_4.5plus,openbind_d68ev3c_c2_elabs,openbind_d68ev3c_c2_elabs_scored_5plus,syndirella_product,openbind_d68ev3c_c2_elabs_scored_top80percent,syndirella_placed

>  <smiles>  (2185) 
CCn1c(=O)c2ccccc2n(CC(=O)NCc2cccc(C)c2I)c1=O

>  <subsites>  (2185) 
None

>  <rmsd(smina/fragmenstein)>  (2185) 
1.564

>  <alias>  (2185) 
None

>  <energy_score>  (2185) 
-16.826962

>  <HIPPO Pose ID>  (2185) 
144041

>  <distance_score>  (2185) 
1.43442

>  <HIPPO Compound ID>  (2185) 
169118

>  <gnina_score_min>  (2185) 
5.19

>  <name>  (2185) 
P144041

>  <exports>  (2185) 
['/opt/xchem-fragalysis-2/maxwin/BulkDock/OUTPUTS/openbind_d68ev3c_c2_elabs_1LOTQJ3.sdf', '/opt/xchem-fragalysis-2/maxwin/BulkDock/OUTPUTS/openbind_d68ev3c_c2_elabs_1LSYI5W.sdf']

$$$$
P144048
     RDKit          3D

 27 29  0  0  0  0  0  0  0  0999 V2000
    6.2990   -7.9430   39.3044 C   0  0  0  0  0  0  0  0  0  0  0  0
    5.4104   -6.8548   39.8890 C   0  0  0  0  0  0  0  0  0  0  0  0
    3.9392   -7.1544   39.7000 C   0  0  0  0  0  0  0  0  0  0  0  0
    3.2411   -7.7093   40.7905 C   0  0  0  0  0  0  0  0  0  0  0  0
    1.8930   -8.0437   40.6908 C   0  0  0  0  0  0  0  0  0  0  0  0
    1.2209   -7.8394   39.4955 C   0  0  0  0  0  0  0  0  0  0  0  0
    1.8973   -7.3077   38.3997 C   0  0  0  0  0  0  0  0  0  0  0  0
    3.2557   -6.9359   38.4825 C   0  0  0  0  0  0  0  0  0  0  0  0
    3.9447   -6.3965   37.2504 C   0  0  0  0  0  0  0  0  0  0  0  0
    3.0981   -5.5122   36.4977 N   0  0  0  0  0  0  0  0  0  0  0  0
    3.1002   -5.1590   34.9880 C   0  0  0  0  0  0  0  0  0  0  0  0
    3.8381   -5.4727   34.1384 O   0  0  0  0  0  0  0  0  0  0  0  0
    1.8539   -4.2884   34.7153 C   0  0  0  0  0  0  0  0  0  0  0  0
    1.0499   -4.9116   33.6636 N   0  0  0  0  0  0  0  0  0  0  0  0
    0.2272   -5.9472   34.0749 C   0  0  0  0  0  0  0  0  0  0  0  0
    0.3073   -6.3789   35.2275 O   0  0  0  0  0  0  0  0  0  0  0  0
   -0.6440   -6.4685   33.1319 N   0  0  0  0  0  0  0  0  0  0  0  0
   -1.4381   -7.6112   33.4895 C   0  0  0  0  0  0  0  0  0  0  0  0
   -2.0459   -7.5679   34.8722 C   0  0  0  0  0  0  0  0  0  0  0  0
   -0.5385   -6.2520   31.7683 C   0  0  0  0  0  0  0  0  0  0  0  0
   -1.0793   -6.9622   30.9197 O   0  0  0  0  0  0  0  0  0  0  0  0
    0.3080   -5.1211   31.3657 C   0  0  0  0  0  0  0  0  0  0  0  0
    0.2841   -4.6745   30.0403 C   0  0  0  0  0  0  0  0  0  0  0  0
    1.0999   -3.6252   29.6303 C   0  0  0  0  0  0  0  0  0  0  0  0
    1.9581   -3.0338   30.5461 C   0  0  0  0  0  0  0  0  0  0  0  0
    1.9704   -3.4680   31.8758 C   0  0  0  0  0  0  0  0  0  0  0  0
    1.1192   -4.4970   32.3119 C   0  0  0  0  0  0  0  0  0  0  0  0
  1  2  1  0
  2  3  1  0
  3  4  2  0
  4  5  1  0
  5  6  2  0
  6  7  1  0
  7  8  2  0
  8  9  1  0
  9 10  1  0
 10 11  1  0
 11 12  2  0
 11 13  1  0
 13 14  1  0
 14 15  1  0
 15 16  2  0
 15 17  1  0
 17 18  1  0
 18 19  1  0
 17 20  1  0
 20 21  2  0
 20 22  1  0
 22 23  2  0
 23 24  1  0
 24 25  2  0
 25 26  1  0
 26 27  2  0
  8  3  1  0
 27 14  1  0
 27 22  1  0
M  END
>  <ref_mols>  (2186) 
B0517a

>  <gnina_score>  (2186) 
4.969

>  <smina_score_min>  (2186) 
-3.877

>  <ref_pdb>  (2186) 
B0517a

>  <inspiration_score>  (2186) 
None

>  <inchikey>  (2186) 
OLUWIZQYRLTVPZ-UHFFFAOYSA-N

>  <tags>  (2186) 
BulkDock Fragalysis export,openbind_d68ev3c_c2_elabs_scored,openbind_d68ev3c_c2_elabs_scored_4.5plus,openbind_d68ev3c_c2_elabs,openbind_d68ev3c_c2_elabs_scored_5plus,syndirella_product,openbind_d68ev3c_c2_elabs_scored_top80percent,syndirella_placed

>  <smiles>  (2186) 
CCc1ccccc1CNC(=O)Cn1c(=O)n(CC)c(=O)c2ccccc21

>  <subsites>  (2186) 
None

>  <rmsd(smina/fragmenstein)>  (2186) 
1.316

>  <alias>  (2186) 
None

>  <energy_score>  (2186) 
-11.352484

>  <HIPPO Pose ID>  (2186) 
144048

>  <distance_score>  (2186) 
1.097403

>  <HIPPO Compound ID>  (2186) 
169140

>  <gnina_score_min>  (2186) 
5.012

>  <name>  (2186) 
P144048

>  <exports>  (2186) 
['/opt/xchem-fragalysis-2/maxwin/BulkDock/OUTPUTS/openbind_d68ev3c_c2_elabs_1LOTQJ3.sdf', '/opt/xchem-fragalysis-2/maxwin/BulkDock/OUTPUTS/openbind_d68ev3c_c2_elabs_1LSYI5W.sdf']

$$$$
