XX01ZVNS2B-x1750_B_301_1_XX01ZVNS2B-x4590+B+203+1__LIG
     RDKit          3D

 23 25  0  0  0  0  0  0  0  0999 V2000
   -3.0310    5.5600  -15.3420 C   0  0  0  0  0  0  0  0  0  0  0  0
   -4.3490    5.3440  -16.0200 C   0  0  0  0  0  0  0  0  0  0  0  0
   -5.3700    4.9980  -15.2510 N   0  0  0  0  0  0  0  0  0  0  0  0
   -6.5880    4.7770  -15.8210 C   0  0  0  0  0  0  0  0  0  0  0  0
   -6.7890    4.9230  -17.2250 C   0  0  0  0  0  0  0  0  0  0  0  0
   -8.0780    4.6810  -17.7630 C   0  0  0  0  0  0  0  0  0  0  0  0
   -9.1120    4.3200  -16.9540 C   0  0  0  0  0  0  0  0  0  0  0  0
   -8.9300    4.1910  -15.5700 C   0  0  0  0  0  0  0  0  0  0  0  0
   -7.7110    4.4440  -14.9920 C   0  0  0  0  0  0  0  0  0  0  0  0
   -7.4900    4.2450  -13.6190 N   0  0  0  0  0  0  0  0  0  0  0  0
   -7.4650    2.9970  -13.0820 C   0  0  0  0  0  0  0  0  0  0  0  0
   -7.3330    1.9920  -13.7650 O   0  0  0  0  0  0  0  0  0  0  0  0
   -7.6640    2.8460  -11.5800 C   0  0  2  0  0  0  0  0  0  0  0  0
   -8.5390    3.9140  -10.9390 C   0  0  0  0  0  0  0  0  0  0  0  0
   -8.8940    3.5270   -9.5080 C   0  0  0  0  0  0  0  0  0  0  0  0
   -8.0580    2.3590   -9.0240 C   0  0  2  0  0  0  0  0  0  0  0  0
   -8.2550    2.1570   -7.5520 N   0  0  0  0  0  0  0  0  0  0  0  0
   -6.5860    2.5400   -9.3280 C   0  0  0  0  0  0  0  0  0  0  0  0
   -6.3460    2.7500  -10.8170 C   0  0  0  0  0  0  0  0  0  0  0  0
   -5.6720    5.2990  -18.0350 C   0  0  0  0  0  0  0  0  0  0  0  0
   -5.8500    5.4520  -19.5290 C   0  0  0  0  0  0  0  0  0  0  0  0
   -4.6270    5.4490  -20.2590 O   0  0  0  0  0  0  0  0  0  0  0  0
   -4.4670    5.5050  -17.4190 C   0  0  0  0  0  0  0  0  0  0  0  0
  1  2  1  0
  2  3  2  0
  3  4  1  0
  4  5  2  0
  5  6  1  0
  6  7  2  0
  7  8  1  0
  8  9  2  0
  9 10  1  0
 10 11  1  0
 11 12  2  0
 13 11  1  6
 13 14  1  0
 14 15  1  0
 15 16  1  0
 16 17  1  1
 16 18  1  0
 18 19  1  0
  5 20  1  0
 20 21  1  0
 21 22  1  0
 20 23  2  0
  2 23  1  0
  4  9  1  0
 13 19  1  0
M  CHG  1  17   1
M  END
$$$$
