XX01ZVNS2B-x4245_B_203_1_XX01ZVNS2B-x4590+B+203+1__LIG
     RDKit          3D

 22 25  0  0  0  0  0  0  0  0999 V2000
   -5.9660    4.2850  -20.7270 O   0  0  0  0  0  0  0  0  0  0  0  0
   -6.4930    4.3590  -19.6180 C   0  0  0  0  0  0  0  0  0  0  0  0
   -7.7800    4.0170  -19.2950 N   0  0  0  0  0  0  0  0  0  0  0  0
   -5.8890    4.7180  -18.4370 N   0  0  0  0  0  0  0  0  0  0  0  0
   -6.7730    4.5770  -17.3800 C   0  0  0  0  0  0  0  0  0  0  0  0
   -7.9800    4.1440  -17.9240 C   0  0  0  0  0  0  0  0  0  0  0  0
   -9.0750    3.8770  -17.1120 C   0  0  0  0  0  0  0  0  0  0  0  0
   -8.9300    4.0300  -15.7410 C   0  0  0  0  0  0  0  0  0  0  0  0
   -6.6290    4.7330  -16.0040 C   0  0  0  0  0  0  0  0  0  0  0  0
   -7.7200    4.4530  -15.1810 C   0  0  0  0  0  0  0  0  0  0  0  0
   -7.5580    4.6050  -13.7010 C   0  0  0  0  0  0  0  0  0  0  0  0
   -6.6250    5.2520  -13.2340 O   0  0  0  0  0  0  0  0  0  0  0  0
   -8.4820    3.9930  -12.9210 N   0  0  0  0  0  0  0  0  0  0  0  0
   -8.5230    4.0160  -11.4970 C   0  0  0  0  0  0  0  0  0  0  0  0
   -8.8570    2.8630  -10.7900 C   0  0  0  0  0  0  0  0  0  0  0  0
   -8.8930    2.8780   -9.3990 C   0  0  0  0  0  0  0  0  0  0  0  0
   -9.1730    1.7560   -8.4440 C   0  0  0  0  0  0  0  0  0  0  0  0
   -8.7930    2.3620   -7.1550 N   0  0  0  0  0  0  0  0  0  0  0  0
   -8.7040    3.8210   -7.2270 C   0  0  0  0  0  0  0  0  0  0  0  0
   -8.6140    4.0490   -8.7060 C   0  0  0  0  0  0  0  0  0  0  0  0
   -8.2840    5.2010   -9.4110 C   0  0  0  0  0  0  0  0  0  0  0  0
   -8.2320    5.1850  -10.7970 C   0  0  0  0  0  0  0  0  0  0  0  0
 12 11  2  0
 13 11  1  0
 14 13  1  0
 14 22  2  0
 22 21  1  0
 21 20  2  0
 20 16  1  0
 16 15  2  0
 15 14  1  0
 17 16  1  0
 18 17  1  0
 19 18  1  0
 20 19  1  0
 11 10  1  0
 10  8  2  0
  8  7  1  0
  7  6  2  0
  6  3  1  0
  3  2  1  0
  2  1  2  0
  4  2  1  0
  5  4  1  0
  6  5  1  0
  9  5  2  0
 10  9  1  0
M  END
$$$$
