A71EV2A-x4806_C_201_1_A71EV2A-x0911+A+147+1__LIG
     RDKit          3D

 20 22  0  0  0  0  0  0  0  0999 V2000
    7.2240   13.4950   22.4530 O   0  0  0  0  0  0  0  0  0  0  0  0
    8.0820   13.8500   23.2480 C   0  0  0  0  0  0  0  0  0  0  0  0
    8.9690   14.8220   22.9410 N   0  0  0  0  0  0  0  0  0  0  0  0
    9.9350   15.4290   23.8720 C   0  0  0  0  0  0  0  0  0  0  0  0
   11.3620   15.2720   23.3560 C   0  0  0  0  0  0  0  0  0  0  0  0
   11.4790   15.7570   21.9040 C   0  0  0  0  0  0  0  0  0  0  0  0
    9.0430   15.3600   21.5810 C   0  0  0  0  0  0  0  0  0  0  0  0
   10.4300   15.0860   21.0020 C   0  0  1  0  0  0  0  0  0  0  0  0
   10.4910   15.6220   19.5830 C   0  0  0  0  0  0  0  0  0  0  0  0
   10.1740   16.7880   19.3300 O   0  0  0  0  0  0  0  0  0  0  0  0
   10.8680   14.7530   18.6580 N   0  0  0  0  0  0  0  0  0  0  0  0
    8.1910   13.1760   24.6130 C   0  0  2  0  0  0  0  0  0  0  0  0
    8.4030   11.7040   24.3250 C   0  0  0  0  0  0  0  0  0  0  0  0
    7.6110   10.8330   25.0760 C   0  0  0  0  0  0  0  0  0  0  0  0
    6.4580   11.6400   26.1260 S   0  0  0  0  0  0  0  0  0  0  0  0
    6.8960   13.2510   25.4380 C   0  0  0  0  0  0  0  0  0  0  0  0
    9.3350   11.1640   23.4440 C   0  0  0  0  0  0  0  0  0  0  0  0
    9.4560    9.7920   23.3050 C   0  0  0  0  0  0  0  0  0  0  0  0
    8.6400    8.9420   24.0230 C   0  0  0  0  0  0  0  0  0  0  0  0
    7.7170    9.4520   24.9210 C   0  0  0  0  0  0  0  0  0  0  0  0
 11  9  1  0
 10  9  2  0
  8  9  1  6
  8  6  1  0
  6  5  1  0
  5  4  1  0
  4  3  1  0
  3  2  1  0
  2  1  2  0
 12  2  1  6
 12 16  1  0
 16 15  1  0
 15 14  1  0
 14 20  2  0
 20 19  1  0
 19 18  2  0
 18 17  1  0
 17 13  2  0
 14 13  1  0
 13 12  1  0
  7  3  1  0
  8  7  1  0
M  END
$$$$
