A71EV2A-x2972_A_201_1_A71EV2A-x0911+A+147+1__LIG
     RDKit          3D

 19 21  0  0  0  0  0  0  0  0999 V2000
   11.0450   13.9570   24.5530 O   0  0  0  0  0  0  0  0  0  0  0  0
   10.9000   13.1160   23.6690 C   0  0  0  0  0  0  0  0  0  0  0  0
   10.0430   11.8880   23.9120 C   0  0  0  0  0  0  0  0  0  0  0  0
   10.2800   10.7670   23.2370 N   0  0  0  0  0  0  0  0  0  0  0  0
    8.9530   11.7070   24.8410 C   0  0  0  0  0  0  0  0  0  0  0  0
    8.5620   10.3720   24.6630 C   0  0  0  0  0  0  0  0  0  0  0  0
    7.5330    9.8100   25.4050 C   0  0  0  0  0  0  0  0  0  0  0  0
    6.8890   10.6000   26.3460 C   0  0  0  0  0  0  0  0  0  0  0  0
    7.2620   11.9220   26.5340 C   0  0  0  0  0  0  0  0  0  0  0  0
    8.2880   12.4850   25.7880 C   0  0  0  0  0  0  0  0  0  0  0  0
    9.3890    9.8410   23.7190 N   0  0  0  0  0  0  0  0  0  0  0  0
    9.5050    8.4520   23.3030 C   0  0  0  0  0  0  0  0  0  0  0  0
   11.4860   13.1930   22.4680 N   0  0  0  0  0  0  0  0  0  0  0  0
   12.2020   14.3860   22.0470 C   0  0  0  0  0  0  0  0  0  0  0  0
   11.6070   15.0280   20.8330 C   0  0  0  0  0  0  0  0  0  0  0  0
   10.6980   16.0710   20.9490 N   0  0  0  0  0  0  0  0  0  0  0  0
   10.2770   16.3060   19.7140 C   0  0  0  0  0  0  0  0  0  0  0  0
   10.8790   15.5080   18.8220 N   0  0  0  0  0  0  0  0  0  0  0  0
   11.7320   14.6940   19.5200 C   0  0  0  0  0  0  0  0  0  0  0  0
 12 11  1  0
 11  4  1  0
  4  3  2  0
  3  2  1  0
  2  1  2  0
 13  2  1  0
 14 13  1  0
 15 14  1  0
 15 19  2  0
 19 18  1  0
 18 17  1  0
 17 16  2  0
 16 15  1  0
  5  3  1  0
  5 10  2  0
 10  9  1  0
  9  8  2  0
  8  7  1  0
  7  6  2  0
  6  5  1  0
 11  6  1  0
M  END
$$$$
