A71EV2A-x4331_A_201_1_A71EV2A-x0911+A+147+1__LIG
     RDKit          3D

 20 21  0  0  0  0  0  0  0  0999 V2000
   10.3900   16.6700   19.1820 O   0  0  0  0  0  0  0  0  0  0  0  0
   10.7360   15.5110   19.4360 C   0  0  0  0  0  0  0  0  0  0  0  0
   11.0280   14.6230   18.4940 N   0  0  0  0  0  0  0  0  0  0  0  0
   10.7800   15.0020   20.8680 C   0  0  1  0  0  0  0  0  0  0  0  0
   11.8980   15.6810   21.6880 C   0  0  0  0  0  0  0  0  0  0  0  0
   11.9190   15.1450   23.1250 C   0  0  0  0  0  0  0  0  0  0  0  0
   10.5450   15.2800   23.7800 C   0  0  0  0  0  0  0  0  0  0  0  0
    9.4340   15.2130   21.5770 C   0  0  0  0  0  0  0  0  0  0  0  0
    9.4880   14.6820   22.9410 N   0  0  0  0  0  0  0  0  0  0  0  0
    8.6260   13.7250   23.3540 C   0  0  0  0  0  0  0  0  0  0  0  0
    7.7820   13.2410   22.6090 O   0  0  0  0  0  0  0  0  0  0  0  0
    8.7500   13.2780   24.8000 C   0  0  0  0  0  0  0  0  0  0  0  0
    7.7870   12.1660   25.1510 C   0  0  0  0  0  0  0  0  0  0  0  0
    8.0110   10.8310   24.7630 C   0  0  0  0  0  0  0  0  0  0  0  0
    9.2700   10.4120   24.0200 C   0  0  0  0  0  0  0  0  0  0  0  0
    9.3670    8.9500   23.6050 C   0  0  0  0  0  0  0  0  0  0  0  0
    6.6710   12.4690   25.9320 C   0  0  0  0  0  0  0  0  0  0  0  0
    5.7840   11.4780   26.3240 C   0  0  0  0  0  0  0  0  0  0  0  0
    5.9880   10.1810   25.9220 C   0  0  0  0  0  0  0  0  0  0  0  0
    7.0890    9.8580   25.1420 C   0  0  0  0  0  0  0  0  0  0  0  0
 16 15  1  0
 15 14  1  0
 14 20  2  0
 20 19  1  0
 19 18  2  0
 18 17  1  0
 17 13  2  0
 14 13  1  0
 13 12  1  0
 12 10  1  0
 11 10  2  0
 10  9  1  0
  9  7  1  0
  7  6  1  0
  6  5  1  0
  5  4  1  0
  4  2  1  6
  3  2  1  0
  2  1  2  0
  8  4  1  0
  9  8  1  0
M  END
$$$$
