XX01ZVNS2B-x3802_B_203_5_XX01ZVNS2B-x4590+B+203+1__LIG
     RDKit          3D

 29 32  0  0  0  0  0  0  0  0999 V2000
   -7.0590    5.9800  -13.1500 O   0  0  0  0  0  0  0  0  0  0  0  0
   -7.6420    5.0300  -13.6640 C   0  0  0  0  0  0  0  0  0  0  0  0
   -7.6770    4.8680  -15.1560 C   0  0  0  0  0  0  0  0  0  0  0  0
   -8.8610    4.4240  -15.7540 C   0  0  0  0  0  0  0  0  0  0  0  0
   -8.9030    4.3010  -17.1270 C   0  0  0  0  0  0  0  0  0  0  0  0
  -10.0520    3.8510  -17.6960 F   0  0  0  0  0  0  0  0  0  0  0  0
   -7.8390    4.5860  -17.9500 C   0  0  0  0  0  0  0  0  0  0  0  0
   -6.5660    5.1610  -15.9520 C   0  0  0  0  0  0  0  0  0  0  0  0
   -6.6670    5.0040  -17.3300 C   0  0  0  0  0  0  0  0  0  0  0  0
   -5.4220    5.2310  -17.9160 N   0  0  0  0  0  0  0  0  0  0  0  0
   -4.4760    5.5370  -16.9960 C   0  0  0  0  0  0  0  0  0  0  0  0
   -3.2950    5.7660  -17.2130 O   0  0  0  0  0  0  0  0  0  0  0  0
   -5.1490    5.5750  -15.6160 C   0  0  2  0  0  0  0  0  0  0  0  0
   -4.6490    4.5270  -14.7570 O   0  0  0  0  0  0  0  0  0  0  0  0
   -3.8390    4.8820  -13.6200 C   0  0  0  0  0  0  0  0  0  0  0  0
   -4.2900    4.0360  -12.4470 C   0  0  0  0  0  0  0  0  0  0  0  0
   -4.2070    4.8430  -11.1400 C   0  0  0  0  0  0  0  0  0  0  0  0
   -4.9740    6.0450  -11.0910 O   0  0  0  0  0  0  0  0  0  0  0  0
   -5.0680    6.9990  -15.0540 C   0  0  0  0  0  0  0  0  0  0  0  0
   -8.3040    4.0880  -12.9430 N   0  0  0  0  0  0  0  0  0  0  0  0
   -8.4480    4.0470  -11.5310 C   0  0  0  0  0  0  0  0  0  0  0  0
   -8.7420    2.8500  -10.8800 C   0  0  0  0  0  0  0  0  0  0  0  0
   -8.8510    2.8180   -9.4930 C   0  0  0  0  0  0  0  0  0  0  0  0
   -9.2310    1.6790   -8.5940 C   0  0  0  0  0  0  0  0  0  0  0  0
   -8.9400    2.2330   -7.2750 N   0  0  0  0  0  0  0  0  0  0  0  0
   -8.7550    3.6830   -7.2830 C   0  0  0  0  0  0  0  0  0  0  0  0
   -8.6420    3.9720   -8.7500 C   0  0  0  0  0  0  0  0  0  0  0  0
   -8.3580    5.1670   -9.4020 C   0  0  0  0  0  0  0  0  0  0  0  0
   -8.2700    5.2080  -10.7820 C   0  0  0  0  0  0  0  0  0  0  0  0
 13 19  1  1
 14 13  1  0
 15 14  1  0
 16 15  1  0
 17 16  1  0
 18 17  1  0
 13 11  1  0
 12 11  2  0
 11 10  1  0
 10  9  1  0
  9  7  2  0
  7  5  1  0
  6  5  1  0
  5  4  2  0
  4  3  1  0
  3  2  1  0
  2  1  2  0
 20  2  1  0
 21 20  1  0
 21 29  2  0
 29 28  1  0
 28 27  2  0
 27 23  1  0
 23 22  2  0
 22 21  1  0
 24 23  1  0
 25 24  1  0
 26 25  1  0
 27 26  1  0
  8  3  2  0
  9  8  1  0
 13  8  1  0
M  END
$$$$
