A71EV2A-x5262_C_201_3_A71EV2A-x0911+A+147+1__LIG
     RDKit          3D

 21 23  0  0  0  0  0  0  0  0999 V2000
   10.1430   16.8300   18.9240 O   0  0  0  0  0  0  0  0  0  0  0  0
   10.1790   15.6270   19.2430 C   0  0  0  0  0  0  0  0  0  0  0  0
   10.6030   14.6740   18.4170 N   0  0  0  0  0  0  0  0  0  0  0  0
    9.7380   15.1800   20.6220 C   0  0  0  0  0  0  0  0  0  0  0  0
   10.9290   15.1870   21.6010 C   0  0  2  0  0  0  0  0  0  0  0  0
   11.7930   16.4440   21.9340 C   0  0  0  0  0  0  0  0  0  0  0  0
   12.2700   14.4620   21.2690 C   0  0  0  0  0  0  0  0  0  0  0  0
   12.7710   15.3520   22.4340 C   0  0  2  0  0  0  0  0  0  0  0  0
   12.0070   14.7560   23.6220 C   0  0  0  0  0  0  0  0  0  0  0  0
   10.6870   14.7080   22.9680 N   0  0  0  0  0  0  0  0  0  0  0  0
    9.5250   14.3500   23.5660 C   0  0  0  0  0  0  0  0  0  0  0  0
    8.4370   14.4230   23.0000 O   0  0  0  0  0  0  0  0  0  0  0  0
    9.6110   13.8850   25.0110 C   0  0  0  0  0  0  0  0  0  0  0  0
    8.5500   12.8570   25.3370 C   0  0  0  0  0  0  0  0  0  0  0  0
    8.5930   11.5460   24.8420 C   0  0  0  0  0  0  0  0  0  0  0  0
    9.9410   11.1140   23.7820 S   0  0  0  0  0  0  0  0  0  0  0  0
    9.7840    9.3350   23.6230 C   0  0  0  0  0  0  0  0  0  0  0  0
    7.4980   13.2100   26.1850 C   0  0  0  0  0  0  0  0  0  0  0  0
    6.5290   12.2810   26.5430 C   0  0  0  0  0  0  0  0  0  0  0  0
    6.5860   10.9960   26.0490 C   0  0  0  0  0  0  0  0  0  0  0  0
    7.6120   10.6210   25.1950 C   0  0  0  0  0  0  0  0  0  0  0  0
 17 16  1  0
 16 15  1  0
 15 21  2  0
 21 20  1  0
 20 19  2  0
 19 18  1  0
 18 14  2  0
 15 14  1  0
 14 13  1  0
 13 11  1  0
 12 11  2  0
 11 10  1  0
 10  9  1  0
  8  9  1  1
  8  6  1  0
  6  5  1  0
 10  5  1  0
  5  4  1  6
  4  2  1  0
  3  2  1  0
  2  1  2  0
  7  5  1  0
  8  7  1  0
M  END
$$$$
