A71EV2A-x1105_A_147_1_A71EV2A-x3977+A+202+1__LIG
     RDKit          3D

 12 13  0  0  0  0  0  0  0  0999 V2000
    8.4090   -9.4190    9.8870 C   0  0  0  0  0  0  0  0  0  0  0  0
    7.5380   -9.0820    8.8660 C   0  0  0  0  0  0  0  0  0  0  0  0
    7.1180   -7.8330    8.6270 N   0  0  0  0  0  0  0  0  0  0  0  0
    7.5140   -6.8990    9.4920 C   0  0  0  0  0  0  0  0  0  0  0  0
    8.3490   -7.1480   10.5670 C   0  0  0  0  0  0  0  0  0  0  0  0
    8.8680   -8.4250   10.7510 C   0  0  0  0  0  0  0  0  0  0  0  0
   10.0250   -8.6640   11.6740 C   0  0  0  0  0  0  0  0  0  0  0  0
   10.4340   -7.6920   12.5920 C   0  0  0  0  0  0  0  0  0  0  0  0
   11.5710   -7.8770   13.3630 C   0  0  0  0  0  0  0  0  0  0  0  0
   10.7970   -9.8220   11.5760 C   0  0  0  0  0  0  0  0  0  0  0  0
   11.9350   -9.9910   12.3510 C   0  0  0  0  0  0  0  0  0  0  0  0
   12.3150   -9.0290   13.2450 C   0  0  0  0  0  0  0  0  0  0  0  0
 12  9  1  0
  9  8  2  0
  8  7  1  0
 10  7  2  0
 11 10  1  0
 12 11  2  0
  7  6  1  0
  6  5  2  0
  5  4  1  0
  4  3  2  0
  3  2  1  0
  2  1  2  0
  6  1  1  0
M  END
$$$$
