XX01ZVNS2B-x2439_B_301_1_XX01ZVNS2B-x4590+B+203+1__LIG
     RDKit          3D

 23 25  0  0  0  0  0  0  0  0999 V2000
   -9.1460    4.1670  -16.4980 C   0  0  0  0  0  0  0  0  0  0  0  0
   -7.9490    4.4600  -17.3590 C   0  0  0  0  0  0  0  0  0  0  0  0
   -8.0030    4.2510  -18.7220 C   0  0  0  0  0  0  0  0  0  0  0  0
   -6.9610    4.4690  -19.5390 N   0  0  0  0  0  0  0  0  0  0  0  0
   -5.8270    4.8980  -18.9820 C   0  0  0  0  0  0  0  0  0  0  0  0
   -5.6700    5.1180  -17.6400 C   0  0  0  0  0  0  0  0  0  0  0  0
   -6.7520    4.9010  -16.7990 C   0  0  0  0  0  0  0  0  0  0  0  0
   -6.6830    5.0750  -15.3870 N   0  0  0  0  0  0  0  0  0  0  0  0
   -5.6110    5.3130  -14.5940 C   0  0  0  0  0  0  0  0  0  0  0  0
   -4.4560    5.3310  -15.0090 O   0  0  0  0  0  0  0  0  0  0  0  0
   -5.9050    5.5570  -13.1440 C   0  0  0  0  0  0  0  0  0  0  0  0
   -5.0100    6.3200  -12.3840 C   0  0  0  0  0  0  0  0  0  0  0  0
   -5.2430    6.5590  -11.0230 C   0  0  0  0  0  0  0  0  0  0  0  0
   -6.3180    6.0130  -10.4230 C   0  0  0  0  0  0  0  0  0  0  0  0
   -7.1960    5.2200  -11.1090 N   0  0  0  0  0  0  0  0  0  0  0  0
   -8.3610    4.6560  -10.3910 C   0  0  0  0  0  0  0  0  0  0  0  0
   -7.9030    3.8320   -9.1830 C   0  0  2  0  0  0  0  0  0  0  0  0
   -7.6030    2.3570   -9.4930 C   0  0  0  0  0  0  0  0  0  0  0  0
   -8.2430    1.6220   -8.3460 C   0  0  0  0  0  0  0  0  0  0  0  0
   -9.4210    2.4270   -8.0390 N   0  0  0  0  0  0  0  0  0  0  0  0
   -8.8670    3.7840   -7.9950 C   0  0  0  0  0  0  0  0  0  0  0  0
   -7.0460    4.9580  -12.4820 C   0  0  0  0  0  0  0  0  0  0  0  0
   -7.8740    4.2240  -13.0380 O   0  0  0  0  0  0  0  0  0  0  0  0
  1  2  1  0
  2  3  2  0
  3  4  1  0
  4  5  2  0
  5  6  1  0
  6  7  2  0
  7  8  1  0
  8  9  1  0
  9 10  2  0
  9 11  1  0
 11 12  2  0
 12 13  1  0
 13 14  2  0
 14 15  1  0
 15 16  1  0
 17 16  1  6
 17 18  1  0
 18 19  1  0
 19 20  1  0
 20 21  1  0
 15 22  1  0
 22 23  2  0
  2  7  1  0
 11 22  1  0
 17 21  1  0
M  END
$$$$
