A71EV2A-x4317_A_201_1_A71EV2A-x0911+A+147+1__LIG
     RDKit          3D

 21 23  0  0  0  0  0  0  0  0999 V2000
   10.3940   16.5480   19.2530 O   0  0  0  0  0  0  0  0  0  0  0  0
   10.8390   15.4100   19.4510 C   0  0  0  0  0  0  0  0  0  0  0  0
   11.1610   14.5880   18.4590 N   0  0  0  0  0  0  0  0  0  0  0  0
   10.9680   14.8440   20.8570 C   0  0  2  0  0  0  0  0  0  0  0  0
    9.6080   14.6330   21.5280 C   0  0  0  0  0  0  0  0  0  0  0  0
   11.7260   15.7050   21.8820 C   0  0  0  0  0  0  0  0  0  0  0  0
   11.3010   15.0300   23.2090 C   0  0  0  0  0  0  0  0  0  0  0  0
   11.6480   15.6390   24.5300 C   0  0  0  0  0  0  0  0  0  0  0  0
   12.2610   14.3270   24.1140 C   0  0  0  0  0  0  0  0  0  0  0  0
    9.9570   14.4810   22.9490 N   0  0  0  0  0  0  0  0  0  0  0  0
    9.1360   13.9960   23.9150 C   0  0  0  0  0  0  0  0  0  0  0  0
    9.4460   13.9480   25.0960 O   0  0  0  0  0  0  0  0  0  0  0  0
    7.7760   13.4990   23.4690 C   0  0  0  0  0  0  0  0  0  0  0  0
    7.2460   12.4610   24.4320 C   0  0  0  0  0  0  0  0  0  0  0  0
    7.6360   11.1280   24.3070 C   0  0  0  0  0  0  0  0  0  0  0  0
    8.6070   10.8980   23.3720 O   0  0  0  0  0  0  0  0  0  0  0  0
    9.1190    9.5620   23.2500 C   0  0  0  0  0  0  0  0  0  0  0  0
    6.3050   12.7820   25.4050 C   0  0  0  0  0  0  0  0  0  0  0  0
    5.7340   11.7980   26.2010 C   0  0  0  0  0  0  0  0  0  0  0  0
    6.1030   10.4800   26.0390 C   0  0  0  0  0  0  0  0  0  0  0  0
    7.0460   10.1350   25.0830 C   0  0  0  0  0  0  0  0  0  0  0  0
 17 16  1  0
 16 15  1  0
 15 21  2  0
 21 20  1  0
 20 19  2  0
 19 18  1  0
 18 14  2  0
 15 14  1  0
 14 13  1  0
 13 11  1  0
 12 11  2  0
 11 10  1  0
 10  5  1  0
  5  4  1  0
  4  2  1  6
  3  2  1  0
  2  1  2  0
  6  4  1  0
  7  6  1  0
 10  7  1  0
  7  9  1  0
  9  8  1  0
  8  7  1  0
M  END
$$$$
