A71EV2A-x4290_A_201_1_A71EV2A-x0911+A+147+1__LIG
     RDKit          3D

 21 22  0  0  0  0  0  0  0  0999 V2000
   10.3440   16.8840   19.1770 O   0  0  0  0  0  0  0  0  0  0  0  0
   10.6780   15.7210   19.4230 C   0  0  0  0  0  0  0  0  0  0  0  0
   10.9390   14.8250   18.4860 N   0  0  0  0  0  0  0  0  0  0  0  0
   10.8120   15.2320   20.8530 C   0  0  1  0  0  0  0  0  0  0  0  0
   12.0520   15.8270   21.5430 C   0  0  0  0  0  0  0  0  0  0  0  0
   12.1810   15.3510   22.9930 C   0  0  0  0  0  0  0  0  0  0  0  0
   10.8890   15.5800   23.7580 C   0  0  0  0  0  0  0  0  0  0  0  0
    9.5900   15.6090   21.6850 C   0  0  0  0  0  0  0  0  0  0  0  0
    9.7630   15.0090   23.0060 N   0  0  0  0  0  0  0  0  0  0  0  0
    9.0660   13.9080   23.3440 C   0  0  0  0  0  0  0  0  0  0  0  0
    8.0940   13.5280   22.7090 O   0  0  0  0  0  0  0  0  0  0  0  0
    9.5890   13.1230   24.5280 C   0  0  0  0  0  0  0  0  0  0  0  0
    8.6750   11.9560   24.8040 C   0  0  0  0  0  0  0  0  0  0  0  0
    7.5020   12.1000   25.5590 C   0  0  0  0  0  0  0  0  0  0  0  0
    7.0010   13.7600   26.1620 S   0  0  0  0  0  0  0  0  0  0  0  0
    5.6720   14.2100   25.0440 C   0  0  0  0  0  0  0  0  0  0  0  0
    8.9810   10.7030   24.2730 C   0  0  0  0  0  0  0  0  0  0  0  0
    8.1720    9.6120   24.5180 C   0  0  0  0  0  0  0  0  0  0  0  0
    7.0430    9.7480   25.3010 C   0  0  0  0  0  0  0  0  0  0  0  0
    6.7100   10.9920   25.8040 C   0  0  0  0  0  0  0  0  0  0  0  0
    5.1000   11.1080   26.7900 Br  0  0  0  0  0  0  0  0  0  0  0  0
 16 15  1  0
 15 14  1  0
 14 20  2  0
 21 20  1  0
 20 19  1  0
 19 18  2  0
 18 17  1  0
 17 13  2  0
 14 13  1  0
 13 12  1  0
 12 10  1  0
 11 10  2  0
 10  9  1  0
  9  7  1  0
  7  6  1  0
  6  5  1  0
  5  4  1  0
  4  2  1  6
  3  2  1  0
  2  1  2  0
  8  4  1  0
  9  8  1  0
M  END
$$$$
