XX01ZVNS2B-x3691_B_203_1_XX01ZVNS2B-x4590+B+203+1__LIG
     RDKit          3D

 26 29  0  0  0  0  0  0  0  0999 V2000
   -7.6760    6.5440  -13.8180 O   0  0  0  0  0  0  0  0  0  0  0  0
   -8.3030    5.5420  -13.4830 C   0  0  0  0  0  0  0  0  0  0  0  0
   -8.4720    5.1940  -12.0400 C   0  0  0  0  0  0  0  0  0  0  0  0
   -8.4810    6.2010  -11.0810 C   0  0  0  0  0  0  0  0  0  0  0  0
   -8.5260    3.8680  -11.6300 C   0  0  0  0  0  0  0  0  0  0  0  0
   -8.5470    3.5420  -10.2860 C   0  0  0  0  0  0  0  0  0  0  0  0
   -8.5470    4.5290   -9.2930 C   0  0  0  0  0  0  0  0  0  0  0  0
   -8.5370    5.8690   -9.7310 C   0  0  0  0  0  0  0  0  0  0  0  0
   -8.6270    6.9730   -8.3970 S   0  0  0  0  0  0  0  0  0  0  0  0
   -8.6530    5.6750   -7.2710 C   0  0  0  0  0  0  0  0  0  0  0  0
   -8.5860    4.4450   -7.8480 C   0  0  0  0  0  0  0  0  0  0  0  0
   -8.4490    3.1970   -7.0210 C   0  0  0  0  0  0  0  0  0  0  0  0
   -9.5070    2.1410   -7.3340 C   0  0  0  0  0  0  0  0  0  0  0  0
   -9.1110    1.4570   -8.5620 N   0  0  0  0  0  0  0  0  0  0  0  0
   -8.8830    4.6910  -14.3660 N   0  0  0  0  0  0  0  0  0  0  0  0
   -8.8310    4.7390  -15.7670 C   0  0  0  0  0  0  0  0  0  0  0  0
   -9.9790    4.5190  -16.4260 N   0  0  0  0  0  0  0  0  0  0  0  0
   -9.9180    4.4700  -17.7650 C   0  0  0  0  0  0  0  0  0  0  0  0
   -8.7550    4.6290  -18.4840 C   0  0  0  0  0  0  0  0  0  0  0  0
   -7.5730    4.8640  -17.8010 C   0  0  0  0  0  0  0  0  0  0  0  0
   -7.6110    4.9260  -16.4130 C   0  0  0  0  0  0  0  0  0  0  0  0
   -6.2650    5.0460  -18.5450 C   0  0  2  0  0  0  0  0  0  0  0  0
   -5.0280    4.6070  -17.7540 C   0  0  0  0  0  0  0  0  0  0  0  0
   -4.0730    5.6570  -17.8620 O   0  0  0  0  0  0  0  0  0  0  0  0
   -4.8290    6.8510  -17.9470 C   0  0  0  0  0  0  0  0  0  0  0  0
   -5.9530    6.5230  -18.8900 C   0  0  0  0  0  0  0  0  0  0  0  0
 14 13  1  0
 13 12  1  0
 12 11  1  0
 11 10  2  0
 10  9  1  0
  9  8  1  0
  8  4  2  0
  4  3  1  0
  3  2  1  0
  2  1  2  0
 15  2  1  0
 16 15  1  0
 16 21  2  0
 21 20  1  0
 22 20  1  1
 22 26  1  0
 26 25  1  0
 25 24  1  0
 24 23  1  0
 23 22  1  0
 20 19  2  0
 19 18  1  0
 18 17  2  0
 17 16  1  0
  5  3  2  0
  6  5  1  0
  7  6  2  0
 11  7  1  0
  8  7  1  0
M  END
$$$$
