XX01ZVNS2B-x5243_B_203_6_XX01ZVNS2B-x4590+B+203+1__LIG
     RDKit          3D

 28 32  0  0  0  0  0  0  0  0999 V2000
   -9.7400    3.7570  -17.9910 Cl  0  0  0  0  0  0  0  0  0  0  0  0
   -8.4150    4.3010  -17.0080 C   0  0  0  0  0  0  0  0  0  0  0  0
   -8.5240    4.2770  -15.6230 C   0  0  0  0  0  0  0  0  0  0  0  0
   -7.2430    4.7440  -17.6240 C   0  0  0  0  0  0  0  0  0  0  0  0
   -6.1530    5.1520  -16.8380 C   0  0  0  0  0  0  0  0  0  0  0  0
   -5.1240    5.4830  -17.8190 C   0  0  0  0  0  0  0  0  0  0  0  0
   -3.8020    5.8900  -17.5850 N   0  0  0  0  0  0  0  0  0  0  0  0
   -3.2250    5.9820  -16.2340 C   0  0  0  0  0  0  0  0  0  0  0  0
   -1.7130    5.8500  -16.2760 C   0  0  0  0  0  0  0  0  0  0  0  0
   -1.1170    6.7460  -17.2240 O   0  0  0  0  0  0  0  0  0  0  0  0
   -1.6450    6.5230  -18.5320 C   0  0  0  0  0  0  0  0  0  0  0  0
   -3.1360    6.7560  -18.5740 C   0  0  0  0  0  0  0  0  0  0  0  0
   -5.5670    5.3160  -19.0390 N   0  0  0  0  0  0  0  0  0  0  0  0
   -6.8640    4.8620  -18.9200 N   0  0  0  0  0  0  0  0  0  0  0  0
   -6.2650    5.1220  -15.4450 C   0  0  0  0  0  0  0  0  0  0  0  0
   -7.4480    4.6930  -14.8350 C   0  0  0  0  0  0  0  0  0  0  0  0
   -7.4520    4.7760  -13.3340 C   0  0  0  0  0  0  0  0  0  0  0  0
   -6.6620    5.5010  -12.7400 O   0  0  0  0  0  0  0  0  0  0  0  0
   -8.3550    4.0070  -12.6830 N   0  0  0  0  0  0  0  0  0  0  0  0
   -8.5190    3.9690  -11.2660 C   0  0  0  0  0  0  0  0  0  0  0  0
   -8.6930    2.7470  -10.6220 C   0  0  0  0  0  0  0  0  0  0  0  0
   -8.7760    2.6910   -9.2300 C   0  0  0  0  0  0  0  0  0  0  0  0
   -9.0030    1.5100   -8.3340 C   0  0  0  0  0  0  0  0  0  0  0  0
   -8.7530    2.0620   -6.9830 N   0  0  0  0  0  0  0  0  0  0  0  0
   -8.7460    3.5390   -7.0160 C   0  0  0  0  0  0  0  0  0  0  0  0
   -8.6680    3.8560   -8.4810 C   0  0  0  0  0  0  0  0  0  0  0  0
   -8.4960    5.0800   -9.1240 C   0  0  0  0  0  0  0  0  0  0  0  0
   -8.4280    5.1380  -10.5060 C   0  0  0  0  0  0  0  0  0  0  0  0
 18 17  2  0
 19 17  1  0
 20 19  1  0
 20 28  2  0
 28 27  1  0
 27 26  2  0
 26 22  1  0
 22 21  2  0
 21 20  1  0
 23 22  1  0
 24 23  1  0
 25 24  1  0
 26 25  1  0
 17 16  1  0
 16  3  1  0
  3  2  2  0
  2  1  1  0
  4  2  1  0
  4 14  1  0
 14 13  1  0
 13  6  2  0
  7  6  1  0
  7 12  1  0
 12 11  1  0
 11 10  1  0
 10  9  1  0
  9  8  1  0
  8  7  1  0
  6  5  1  0
  5  4  2  0
 15  5  1  0
 16 15  2  0
M  END
$$$$
