A71EV2A-x3963_A_201_1_A71EV2A-x0911+A+147+1__LIG
     RDKit          3D

 19 20  0  0  0  0  0  0  0  0999 V2000
    7.5720   13.3200   22.4770 O   0  0  0  0  0  0  0  0  0  0  0  0
    8.5180   13.6500   23.1740 C   0  0  0  0  0  0  0  0  0  0  0  0
    9.3070   14.6950   22.8660 N   0  0  0  0  0  0  0  0  0  0  0  0
   10.3470   15.2600   23.7390 C   0  0  0  0  0  0  0  0  0  0  0  0
   11.7300   15.1470   23.1040 C   0  0  0  0  0  0  0  0  0  0  0  0
   11.7140   15.6710   21.6660 C   0  0  0  0  0  0  0  0  0  0  0  0
    9.2660   15.2610   21.5150 C   0  0  0  0  0  0  0  0  0  0  0  0
   10.6100   14.9960   20.8380 C   0  0  1  0  0  0  0  0  0  0  0  0
   10.6510   15.4240   19.3820 C   0  0  0  0  0  0  0  0  0  0  0  0
   10.9480   14.6200   18.4920 O   0  0  0  0  0  0  0  0  0  0  0  0
   10.3230   16.6850   19.1350 N   0  0  0  0  0  0  0  0  0  0  0  0
    8.9590   12.8490   24.3840 C   0  0  0  0  0  0  0  0  0  0  0  0
    7.8970   11.9000   24.8820 C   0  0  0  0  0  0  0  0  0  0  0  0
    8.0030   10.4810   24.7260 C   0  0  0  0  0  0  0  0  0  0  0  0
    9.0030    9.9230   24.0230 N   0  0  0  0  0  0  0  0  0  0  0  0
    7.1450    9.6420   25.3410 N   0  0  0  0  0  0  0  0  0  0  0  0
    6.2030   10.1590   26.1430 C   0  0  0  0  0  0  0  0  0  0  0  0
    6.0200   11.5030   26.3340 C   0  0  0  0  0  0  0  0  0  0  0  0
    6.8640   12.3790   25.6830 C   0  0  0  0  0  0  0  0  0  0  0  0
 11  9  1  0
 10  9  2  0
  8  9  1  6
  8  6  1  0
  6  5  1  0
  5  4  1  0
  4  3  1  0
  3  2  1  0
  2  1  2  0
 12  2  1  0
 13 12  1  0
 13 19  2  0
 19 18  1  0
 18 17  2  0
 17 16  1  0
 16 14  2  0
 14 13  1  0
 15 14  1  0
  7  3  1  0
  8  7  1  0
M  END
$$$$
