XX01ZVNS2B-x0788_B_302_1_XX01ZVNS2B-x0788+B+302+1__LIG
     RDKit          3D

 15 16  0  0  0  0  0  0  0  0999 V2000
   -6.1400    9.7380  -24.2650 O   0  0  0  0  0  0  0  0  0  0  0  0
   -6.1520    9.1740  -25.5840 S   0  0  0  0  0  0  0  0  0  0  0  0
   -5.1390    9.5890  -26.5090 O   0  0  0  0  0  0  0  0  0  0  0  0
   -6.1020    7.4280  -25.4400 C   0  0  0  0  0  0  0  0  0  0  0  0
   -7.7270    9.5820  -26.3080 C   0  0  0  0  0  0  0  0  0  0  0  0
   -8.6570    8.7180  -26.8240 N   0  0  0  0  0  0  0  0  0  0  0  0
   -9.7840    9.4560  -27.1000 C   0  0  0  0  0  0  0  0  0  0  0  0
   -9.4800   10.7330  -26.7810 C   0  0  0  0  0  0  0  0  0  0  0  0
   -8.1940   10.8180  -26.2960 N   0  0  0  0  0  0  0  0  0  0  0  0
   -8.4780    7.2950  -27.1050 C   0  0  0  0  0  0  0  0  0  0  0  0
   -8.0510    6.9110  -28.4910 C   0  0  0  0  0  0  0  0  0  0  0  0
   -6.7040    6.8250  -28.7970 N   0  0  0  0  0  0  0  0  0  0  0  0
   -6.5600    6.3390  -29.9920 C   0  0  0  0  0  0  0  0  0  0  0  0
   -8.0070    5.9870  -30.8270 S   0  0  0  0  0  0  0  0  0  0  0  0
   -8.8880    6.5160  -29.4770 C   0  0  0  0  0  0  0  0  0  0  0  0
  4  2  1  0
  3  2  2  0
  2  1  2  0
  5  2  1  0
  5  9  2  0
  9  8  1  0
  8  7  2  0
  7  6  1  0
  6  5  1  0
 10  6  1  0
 11 10  1  0
 11 15  2  0
 15 14  1  0
 14 13  1  0
 13 12  2  0
 12 11  1  0
M  END
$$$$
