XX01ZVNS2B-x3767_B_203_1_XX01ZVNS2B-x4590+B+203+1__LIG
     RDKit          3D

 28 31  0  0  0  0  0  0  0  0999 V2000
  -10.2520    3.9470  -18.2160 Br  0  0  0  0  0  0  0  0  0  0  0  0
   -8.6900    4.3990  -17.2280 C   0  0  0  0  0  0  0  0  0  0  0  0
   -8.6830    4.2380  -15.8470 C   0  0  0  0  0  0  0  0  0  0  0  0
   -7.6230    4.9540  -17.8940 C   0  0  0  0  0  0  0  0  0  0  0  0
   -6.5440    5.4160  -17.1630 C   0  0  0  0  0  0  0  0  0  0  0  0
   -6.5110    5.2950  -15.7760 C   0  0  0  0  0  0  0  0  0  0  0  0
   -5.3540    5.9420  -15.0250 C   0  0  0  0  0  0  0  0  0  0  0  0
   -4.1770    6.5000  -15.7860 C   0  0  0  0  0  0  0  0  0  0  0  0
   -3.9940    5.2960  -14.9350 C   0  0  0  0  0  0  0  0  0  0  0  0
   -7.5730    4.6590  -15.1100 C   0  0  0  0  0  0  0  0  0  0  0  0
   -7.4800    4.3630  -13.6130 C   0  0  2  0  0  0  0  0  0  0  0  0
   -6.6300    3.0990  -13.3100 C   0  0  0  0  0  0  0  0  0  0  0  0
   -5.6940    3.2720  -12.3780 N   0  0  0  0  0  0  0  0  0  0  0  0
   -4.5290    2.4120  -12.2530 C   0  0  0  0  0  0  0  0  0  0  0  0
   -3.5470    2.8160  -13.3840 C   0  0  0  0  0  0  0  0  0  0  0  0
   -2.3000    2.4190  -13.0220 F   0  0  0  0  0  0  0  0  0  0  0  0
   -3.8700    2.0610  -14.4630 F   0  0  0  0  0  0  0  0  0  0  0  0
   -6.8790    2.0110  -13.8140 O   0  0  0  0  0  0  0  0  0  0  0  0
   -8.7230    4.2560  -12.8780 N   0  0  0  0  0  0  0  0  0  0  0  0
   -8.6880    4.2040  -11.4790 C   0  0  0  0  0  0  0  0  0  0  0  0
   -8.9700    3.0210  -10.7940 C   0  0  0  0  0  0  0  0  0  0  0  0
   -8.9130    2.9900   -9.4040 C   0  0  0  0  0  0  0  0  0  0  0  0
   -9.1910    1.8560   -8.4630 C   0  0  0  0  0  0  0  0  0  0  0  0
   -8.7810    2.4250   -7.1840 N   0  0  0  0  0  0  0  0  0  0  0  0
   -8.6720    3.8850   -7.2190 C   0  0  0  0  0  0  0  0  0  0  0  0
   -8.5810    4.1350   -8.6950 C   0  0  0  0  0  0  0  0  0  0  0  0
   -8.2810    5.3060   -9.3820 C   0  0  0  0  0  0  0  0  0  0  0  0
   -8.3320    5.3410  -10.7630 C   0  0  0  0  0  0  0  0  0  0  0  0
 18 12  2  0
 13 12  1  0
 14 13  1  0
 15 14  1  0
 17 15  1  0
 16 15  1  0
 12 11  1  0
 11 19  1  6
 20 19  1  0
 20 28  2  0
 28 27  1  0
 27 26  2  0
 26 22  1  0
 22 21  2  0
 21 20  1  0
 23 22  1  0
 24 23  1  0
 25 24  1  0
 26 25  1  0
 11 10  1  0
 10  3  1  0
  3  2  2  0
  2  1  1  0
  4  2  1  0
  5  4  2  0
  6  5  1  0
 10  6  2  0
  7  6  1  0
  7  9  1  0
  9  8  1  0
  8  7  1  0
M  END
$$$$
