XX01ZVNS2B-x4070_B_203_3_XX01ZVNS2B-x4590+B+203+1__LIG
     RDKit          3D

 25 28  0  0  0  0  0  0  0  0999 V2000
  -10.4620    4.0900  -17.9790 Cl  0  0  0  0  0  0  0  0  0  0  0  0
   -8.9390    4.2900  -17.1450 C   0  0  0  0  0  0  0  0  0  0  0  0
   -7.7960    4.4940  -17.8940 C   0  0  0  0  0  0  0  0  0  0  0  0
   -6.5840    4.6990  -17.2470 C   0  0  0  0  0  0  0  0  0  0  0  0
   -6.5580    4.7110  -15.8380 C   0  0  0  0  0  0  0  0  0  0  0  0
   -5.2650    4.9440  -15.4330 N   0  0  0  0  0  0  0  0  0  0  0  0
   -4.4690    5.0640  -16.5400 C   0  0  0  0  0  0  0  0  0  0  0  0
   -5.2220    4.9170  -17.6860 C   0  0  0  0  0  0  0  0  0  0  0  0
   -4.6900    4.9420  -19.0850 C   0  0  0  0  0  0  0  0  0  0  0  0
   -3.4650    4.8550  -19.2750 O   0  0  0  0  0  0  0  0  0  0  0  0
   -5.5700    5.0240  -20.0800 N   0  0  0  0  0  0  0  0  0  0  0  0
   -8.9180    4.2650  -15.7570 C   0  0  0  0  0  0  0  0  0  0  0  0
   -7.7160    4.4970  -15.0720 C   0  0  0  0  0  0  0  0  0  0  0  0
   -7.6580    4.6350  -13.5770 C   0  0  0  0  0  0  0  0  0  0  0  0
   -6.7410    5.2620  -13.0540 O   0  0  0  0  0  0  0  0  0  0  0  0
   -8.6110    4.0030  -12.8440 N   0  0  0  0  0  0  0  0  0  0  0  0
   -8.6630    3.9960  -11.4170 C   0  0  0  0  0  0  0  0  0  0  0  0
   -8.8690    2.8140  -10.7130 C   0  0  0  0  0  0  0  0  0  0  0  0
   -8.9170    2.8240   -9.3190 C   0  0  0  0  0  0  0  0  0  0  0  0
   -9.2150    1.7010   -8.3700 C   0  0  0  0  0  0  0  0  0  0  0  0
   -8.8920    2.3070   -7.0700 N   0  0  0  0  0  0  0  0  0  0  0  0
   -8.8290    3.7770   -7.1440 C   0  0  0  0  0  0  0  0  0  0  0  0
   -8.7300    4.0110   -8.6230 C   0  0  0  0  0  0  0  0  0  0  0  0
   -8.5050    5.1920   -9.3250 C   0  0  0  0  0  0  0  0  0  0  0  0
   -8.4840    5.1900  -10.7130 C   0  0  0  0  0  0  0  0  0  0  0  0
 11  9  1  0
 10  9  2  0
  9  8  1  0
  8  7  2  0
  7  6  1  0
  6  5  1  0
  5 13  2  0
 14 13  1  0
 15 14  2  0
 16 14  1  0
 17 16  1  0
 17 25  2  0
 25 24  1  0
 24 23  2  0
 23 19  1  0
 19 18  2  0
 18 17  1  0
 20 19  1  0
 21 20  1  0
 22 21  1  0
 23 22  1  0
 13 12  1  0
 12  2  2  0
  2  1  1  0
  3  2  1  0
  4  3  2  0
  8  4  1  0
  5  4  1  0
M  END
$$$$
