A71EV2A-x4959_C_201_1_A71EV2A-x0911+A+147+1__LIG
     RDKit          3D

 22 24  0  0  0  0  0  0  0  0999 V2000
    7.9380   13.4640   22.6080 O   0  0  0  0  0  0  0  0  0  0  0  0
    8.9290   13.8460   23.2370 C   0  0  0  0  0  0  0  0  0  0  0  0
    9.5730   15.0140   22.9340 N   0  0  0  0  0  0  0  0  0  0  0  0
   10.6630   15.6120   23.7260 C   0  0  0  0  0  0  0  0  0  0  0  0
   12.0090   15.3530   23.0650 C   0  0  0  0  0  0  0  0  0  0  0  0
   11.9840   15.7830   21.5860 C   0  0  0  0  0  0  0  0  0  0  0  0
    9.5260   15.4360   21.5340 C   0  0  0  0  0  0  0  0  0  0  0  0
   10.8420   15.0920   20.8290 C   0  0  1  0  0  0  0  0  0  0  0  0
   10.7160   15.6210   19.4110 C   0  0  0  0  0  0  0  0  0  0  0  0
   10.3650   16.7890   19.1910 O   0  0  0  0  0  0  0  0  0  0  0  0
   10.9690   14.7460   18.4510 N   0  0  0  0  0  0  0  0  0  0  0  0
    9.4180   13.1570   24.2960 N   0  0  0  0  0  0  0  0  0  0  0  0
    8.8530   11.9240   24.6730 C   0  0  0  0  0  0  0  0  0  0  0  0
    7.7390   11.9170   25.5210 C   0  0  0  0  0  0  0  0  0  0  0  0
    7.1540   13.4620   26.1610 S   0  0  0  0  0  0  0  0  0  0  0  0
    5.8550   12.9600   27.3480 C   0  0  0  0  0  0  0  0  0  0  0  0
    4.8350   14.0200   27.6370 C   0  0  0  0  0  0  0  0  0  0  0  0
    4.4630   12.8410   26.8030 C   0  0  0  0  0  0  0  0  0  0  0  0
    7.0960   10.7160   25.8080 C   0  0  0  0  0  0  0  0  0  0  0  0
    7.5530    9.5380   25.2360 C   0  0  0  0  0  0  0  0  0  0  0  0
    8.6620    9.5430   24.4110 C   0  0  0  0  0  0  0  0  0  0  0  0
    9.3170   10.7270   24.1270 C   0  0  0  0  0  0  0  0  0  0  0  0
 11  9  1  0
 10  9  2  0
  8  9  1  6
  8  6  1  0
  6  5  1  0
  5  4  1  0
  4  3  1  0
  3  2  1  0
  2  1  2  0
 12  2  1  0
 13 12  1  0
 13 22  1  0
 22 21  2  0
 21 20  1  0
 20 19  2  0
 19 14  1  0
 14 13  2  0
 15 14  1  0
 16 15  1  0
 16 18  1  0
 18 17  1  0
 17 16  1  0
  7  3  1  0
  8  7  1  0
M  END
$$$$
