A71EV2A-x5394_A_201_5_A71EV2A-x0911+A+147+1__LIG
     RDKit          3D

 19 20  0  0  0  0  0  0  0  0999 V2000
    9.4040   10.5260   23.4550 Cl  0  0  0  0  0  0  0  0  0  0  0  0
    8.0460   10.8120   24.5030 C   0  0  0  0  0  0  0  0  0  0  0  0
    7.2770    9.7290   24.8860 C   0  0  0  0  0  0  0  0  0  0  0  0
    6.2100    9.9270   25.7460 C   0  0  0  0  0  0  0  0  0  0  0  0
    5.9270   11.1900   26.2150 C   0  0  0  0  0  0  0  0  0  0  0  0
    6.7030   12.2690   25.8210 C   0  0  0  0  0  0  0  0  0  0  0  0
    7.7860   12.1010   24.9600 C   0  0  0  0  0  0  0  0  0  0  0  0
    8.7000   13.2650   24.6590 C   0  0  0  0  0  0  0  0  0  0  0  0
    8.5210   13.8110   23.2550 C   0  0  0  0  0  0  0  0  0  0  0  0
    7.6310   13.3990   22.5160 O   0  0  0  0  0  0  0  0  0  0  0  0
    9.3790   14.7860   22.8740 N   0  0  0  0  0  0  0  0  0  0  0  0
   10.4260   15.3660   23.7310 C   0  0  0  0  0  0  0  0  0  0  0  0
   11.8030   15.1880   23.1130 C   0  0  0  0  0  0  0  0  0  0  0  0
   11.8190   15.7140   21.6650 C   0  0  0  0  0  0  0  0  0  0  0  0
    9.3480   15.3010   21.5040 C   0  0  0  0  0  0  0  0  0  0  0  0
   10.7010   15.0620   20.8240 C   0  0  1  0  0  0  0  0  0  0  0  0
   10.7010   15.5650   19.3900 C   0  0  0  0  0  0  0  0  0  0  0  0
   10.3950   16.7320   19.1220 O   0  0  0  0  0  0  0  0  0  0  0  0
   11.0140   14.6690   18.4590 N   0  0  0  0  0  0  0  0  0  0  0  0
 19 17  1  0
 18 17  2  0
 16 17  1  6
 16 14  1  0
 14 13  1  0
 13 12  1  0
 12 11  1  0
 11  9  1  0
 10  9  2  0
  9  8  1  0
  8  7  1  0
  7  6  2  0
  6  5  1  0
  5  4  2  0
  4  3  1  0
  3  2  2  0
  7  2  1  0
  2  1  1  0
 15 11  1  0
 16 15  1  0
M  END
$$$$
