XX01ZVNS2B-x0951_B_301_1_XX01ZVNS2B-x4590+B+203+1__LIG
     RDKit          3D

 12 13  0  0  0  0  0  0  0  0999 V2000
   -9.7210    6.9140  -13.4090 C   0  0  0  0  0  0  0  0  0  0  0  0
   -8.4850    6.3170  -12.9030 N   0  0  0  0  0  0  0  0  0  0  0  0
   -8.2710    4.9670  -13.4320 C   0  0  0  0  0  0  0  0  0  0  0  0
   -7.3860    5.0090  -14.6340 C   0  0  0  0  0  0  0  0  0  0  0  0
   -7.7810    4.6730  -15.9050 N   0  0  0  0  0  0  0  0  0  0  0  0
   -6.6980    4.9660  -16.7230 C   0  0  0  0  0  0  0  0  0  0  0  0
   -5.7000    5.4150  -15.9770 N   0  0  0  0  0  0  0  0  0  0  0  0
   -6.1480    5.4390  -14.6450 N   0  0  0  0  0  0  0  0  0  0  0  0
   -8.9740    4.1870  -16.3890 C   0  0  0  0  0  0  0  0  0  0  0  0
   -9.1160    4.0180  -17.7200 C   0  0  0  0  0  0  0  0  0  0  0  0
   -8.0430    4.3160  -18.5890 C   0  0  0  0  0  0  0  0  0  0  0  0
   -6.8540    4.7770  -18.1110 C   0  0  0  0  0  0  0  0  0  0  0  0
  2  1  1  0
  3  2  1  0
  4  3  1  0
  4  8  2  0
  8  7  1  0
  7  6  2  0
  6 12  1  0
 12 11  2  0
 11 10  1  0
 10  9  2  0
  9  5  1  0
  5  4  1  0
  6  5  1  0
M  END
$$$$
