XX01ZVNS2B-x0435_B_301_1_XX01ZVNS2B-x4590+B+203+1__LIG
     RDKit          3D

 10 11  0  0  0  0  0  0  0  0999 V2000
   -6.0000    4.8570  -20.2200 N   0  0  0  0  0  0  0  0  0  0  0  0
   -5.9060    4.8640  -18.8880 C   0  0  0  0  0  0  0  0  0  0  0  0
   -7.0080    4.6800  -18.0650 N   0  0  0  0  0  0  0  0  0  0  0  0
   -6.4760    4.7220  -16.7770 C   0  0  0  0  0  0  0  0  0  0  0  0
   -5.1650    4.9140  -16.8190 N   0  0  0  0  0  0  0  0  0  0  0  0
   -4.8010    5.0010  -18.1660 N   0  0  0  0  0  0  0  0  0  0  0  0
   -8.3540    4.4700  -18.2970 C   0  0  0  0  0  0  0  0  0  0  0  0
   -9.1890    4.3000  -17.2470 C   0  0  0  0  0  0  0  0  0  0  0  0
   -8.6850    4.3300  -15.9240 C   0  0  0  0  0  0  0  0  0  0  0  0
   -7.3570    4.5320  -15.6840 C   0  0  0  0  0  0  0  0  0  0  0  0
  2  1  1  0
  2  6  2  0
  6  5  1  0
  5  4  2  0
  4 10  1  0
 10  9  2  0
  9  8  1  0
  8  7  2  0
  7  3  1  0
  3  2  1  0
  4  3  1  0
M  END
$$$$
