XX01ZVNS2B-x3980_B_203_1_XX01ZVNS2B-x4590+B+203+1__LIG
     RDKit          3D

 24 27  0  0  0  0  0  0  0  0999 V2000
  -10.6350    4.0840  -17.9510 Cl  0  0  0  0  0  0  0  0  0  0  0  0
   -9.0900    4.3660  -17.1950 C   0  0  0  0  0  0  0  0  0  0  0  0
   -7.9770    4.5140  -17.9970 C   0  0  0  0  0  0  0  0  0  0  0  0
   -6.7340    4.7100  -17.4030 C   0  0  0  0  0  0  0  0  0  0  0  0
   -6.6430    4.7410  -16.0020 C   0  0  0  0  0  0  0  0  0  0  0  0
   -5.3250    4.9430  -15.6690 N   0  0  0  0  0  0  0  0  0  0  0  0
   -4.5940    5.0440  -16.8220 C   0  0  0  0  0  0  0  0  0  0  0  0
   -5.4040    4.9120  -17.9120 C   0  0  0  0  0  0  0  0  0  0  0  0
   -5.0000    4.9680  -19.3590 C   0  0  0  0  0  0  0  0  0  0  0  0
   -5.7540    6.0300  -20.0420 N   0  0  0  0  0  0  0  0  0  0  0  0
   -9.0140    4.4100  -15.8090 C   0  0  0  0  0  0  0  0  0  0  0  0
   -7.7730    4.5920  -15.1810 C   0  0  0  0  0  0  0  0  0  0  0  0
   -7.6380    4.6570  -13.6890 C   0  0  0  0  0  0  0  0  0  0  0  0
   -6.7100    5.2830  -13.1830 O   0  0  0  0  0  0  0  0  0  0  0  0
   -8.5660    3.9960  -12.9540 N   0  0  0  0  0  0  0  0  0  0  0  0
   -8.6300    3.9750  -11.5340 C   0  0  0  0  0  0  0  0  0  0  0  0
   -8.8140    2.7900  -10.8240 C   0  0  0  0  0  0  0  0  0  0  0  0
   -8.8870    2.8110   -9.4360 C   0  0  0  0  0  0  0  0  0  0  0  0
   -9.1520    1.6850   -8.4820 C   0  0  0  0  0  0  0  0  0  0  0  0
   -8.8560    2.3140   -7.1890 N   0  0  0  0  0  0  0  0  0  0  0  0
   -8.8320    3.7760   -7.2670 C   0  0  0  0  0  0  0  0  0  0  0  0
   -8.7460    4.0070   -8.7470 C   0  0  0  0  0  0  0  0  0  0  0  0
   -8.5490    5.1890   -9.4520 C   0  0  0  0  0  0  0  0  0  0  0  0
   -8.4980    5.1770  -10.8360 C   0  0  0  0  0  0  0  0  0  0  0  0
 10  9  1  0
  9  8  1  0
  8  7  2  0
  7  6  1  0
  6  5  1  0
  5 12  2  0
 13 12  1  0
 14 13  2  0
 15 13  1  0
 16 15  1  0
 16 24  2  0
 24 23  1  0
 23 22  2  0
 22 18  1  0
 18 17  2  0
 17 16  1  0
 19 18  1  0
 20 19  1  0
 21 20  1  0
 22 21  1  0
 12 11  1  0
 11  2  2  0
  2  1  1  0
  3  2  1  0
  4  3  2  0
  8  4  1  0
  5  4  1  0
M  END
$$$$
