XX01ZVNS2B-x4944_B_203_3_XX01ZVNS2B-x4590+B+203+1__LIG
     RDKit          3D

 28 32  0  0  0  0  0  0  0  0999 V2000
   -9.8200    3.7360  -18.0210 Cl  0  0  0  0  0  0  0  0  0  0  0  0
   -8.4750    4.2510  -17.0500 C   0  0  0  0  0  0  0  0  0  0  0  0
   -8.5650    4.2110  -15.6680 C   0  0  0  0  0  0  0  0  0  0  0  0
   -7.3080    4.6900  -17.6760 C   0  0  0  0  0  0  0  0  0  0  0  0
   -6.2090    5.0900  -16.8940 C   0  0  0  0  0  0  0  0  0  0  0  0
   -5.2250    5.5000  -17.8220 C   0  0  0  0  0  0  0  0  0  0  0  0
   -3.8740    6.0850  -17.5340 C   0  0  0  0  0  0  0  0  0  0  0  0
   -3.6990    7.4610  -18.1930 C   0  0  0  0  0  0  0  0  0  0  0  0
   -2.3350    8.0330  -17.8330 C   0  0  0  0  0  0  0  0  0  0  0  0
   -1.2460    7.1090  -18.2330 N   0  0  0  0  0  0  0  0  0  0  0  0
   -1.4010    5.7860  -17.5790 C   0  0  0  0  0  0  0  0  0  0  0  0
   -2.7340    5.1430  -17.9450 C   0  0  0  0  0  0  0  0  0  0  0  0
   -5.6840    5.3600  -19.0810 N   0  0  0  0  0  0  0  0  0  0  0  0
   -6.9540    4.8670  -18.9720 N   0  0  0  0  0  0  0  0  0  0  0  0
   -6.3050    5.0380  -15.5020 C   0  0  0  0  0  0  0  0  0  0  0  0
   -7.4800    4.6110  -14.8870 C   0  0  0  0  0  0  0  0  0  0  0  0
   -7.4130    4.7110  -13.3930 C   0  0  0  0  0  0  0  0  0  0  0  0
   -6.5700    5.4270  -12.8550 O   0  0  0  0  0  0  0  0  0  0  0  0
   -8.3170    3.9770  -12.6890 N   0  0  0  0  0  0  0  0  0  0  0  0
   -8.4600    3.9610  -11.2740 C   0  0  0  0  0  0  0  0  0  0  0  0
   -8.6560    2.7550  -10.6040 C   0  0  0  0  0  0  0  0  0  0  0  0
   -8.8000    2.7350   -9.2180 C   0  0  0  0  0  0  0  0  0  0  0  0
   -9.0980    1.5860   -8.2990 C   0  0  0  0  0  0  0  0  0  0  0  0
   -8.8210    2.1740   -6.9930 N   0  0  0  0  0  0  0  0  0  0  0  0
   -8.8440    3.6400   -7.0260 C   0  0  0  0  0  0  0  0  0  0  0  0
   -8.7220    3.9180   -8.4960 C   0  0  0  0  0  0  0  0  0  0  0  0
   -8.5310    5.1220   -9.1630 C   0  0  0  0  0  0  0  0  0  0  0  0
   -8.4020    5.1470  -10.5420 C   0  0  0  0  0  0  0  0  0  0  0  0
 18 17  2  0
 19 17  1  0
 20 19  1  0
 20 28  2  0
 28 27  1  0
 27 26  2  0
 26 22  1  0
 22 21  2  0
 21 20  1  0
 23 22  1  0
 24 23  1  0
 25 24  1  0
 26 25  1  0
 17 16  1  0
 16  3  1  0
  3  2  2  0
  2  1  1  0
  4  2  1  0
  4 14  1  0
 14 13  1  0
 13  6  2  0
  7  6  1  0
  7 12  1  0
 12 11  1  0
 11 10  1  0
 10  9  1  0
  9  8  1  0
  8  7  1  0
  6  5  1  0
  5  4  2  0
 15  5  1  0
 16 15  2  0
M  END
$$$$
