A71EV2A-x5509_A_201_4_A71EV2A-x0911+A+147+1__LIG
     RDKit          3D

 26 28  0  0  0  0  0  0  0  0999 V2000
   10.4120   16.7180   19.1180 O   0  0  0  0  0  0  0  0  0  0  0  0
   10.7430   15.5590   19.3820 C   0  0  0  0  0  0  0  0  0  0  0  0
   11.1210   14.6900   18.4540 N   0  0  0  0  0  0  0  0  0  0  0  0
   10.7270   15.0440   20.8100 C   0  0  1  0  0  0  0  0  0  0  0  0
   11.7590   15.7790   21.6780 C   0  0  0  0  0  0  0  0  0  0  0  0
   11.7540   15.2490   23.1180 C   0  0  0  0  0  0  0  0  0  0  0  0
   10.3540   15.3160   23.7190 C   0  0  0  0  0  0  0  0  0  0  0  0
    9.3590   15.2910   21.4590 C   0  0  0  0  0  0  0  0  0  0  0  0
    9.3450   14.7350   22.8170 N   0  0  0  0  0  0  0  0  0  0  0  0
    8.4390   13.7930   23.1630 C   0  0  0  0  0  0  0  0  0  0  0  0
    7.6300   13.3470   22.3620 O   0  0  0  0  0  0  0  0  0  0  0  0
    8.4200   13.3570   24.6190 C   0  0  0  0  0  0  0  0  0  0  0  0
    7.5570   12.1390   24.8650 C   0  0  0  0  0  0  0  0  0  0  0  0
    7.9550   10.8360   24.5290 C   0  0  0  0  0  0  0  0  0  0  0  0
    9.4280   10.6370   23.5660 S   0  0  0  0  0  0  0  0  0  0  0  0
    9.5430    8.8640   23.3210 C   0  0  0  0  0  0  0  0  0  0  0  0
    6.3460   12.3080   25.5440 C   0  0  0  0  0  0  0  0  0  0  0  0
    5.5410   11.2280   25.9170 C   0  0  0  0  0  0  0  0  0  0  0  0
    5.9840    9.9470   25.6010 C   0  0  0  0  0  0  0  0  0  0  0  0
    7.1720    9.7480   24.9160 C   0  0  0  0  0  0  0  0  0  0  0  0
    4.2230   11.4450   26.5740 C   0  0  0  0  0  0  0  0  0  0  0  0
    3.5850   12.6840   26.5390 C   0  0  0  0  0  0  0  0  0  0  0  0
    2.3540   12.8300   27.1540 C   0  0  0  0  0  0  0  0  0  0  0  0
    1.7170   11.8380   27.7870 N   0  0  0  0  0  0  0  0  0  0  0  0
    2.3340   10.6540   27.8220 C   0  0  0  0  0  0  0  0  0  0  0  0
    3.5660   10.4120   27.2430 C   0  0  0  0  0  0  0  0  0  0  0  0
 16 15  1  0
 15 14  1  0
 14 20  2  0
 20 19  1  0
 19 18  2  0
 21 18  1  0
 21 26  2  0
 26 25  1  0
 25 24  2  0
 24 23  1  0
 23 22  2  0
 22 21  1  0
 18 17  1  0
 17 13  2  0
 14 13  1  0
 13 12  1  0
 12 10  1  0
 11 10  2  0
 10  9  1  0
  9  7  1  0
  7  6  1  0
  6  5  1  0
  5  4  1  0
  4  2  1  6
  3  2  1  0
  2  1  2  0
  8  4  1  0
  9  8  1  0
M  END
$$$$
