XX01ZVNS2B-x3548_B_203_5_XX01ZVNS2B-x4590+B+203+1__LIG
     RDKit          3D

 23 26  0  0  0  0  0  0  0  0999 V2000
   -5.0630    5.2150  -15.4240 C   0  0  0  0  0  0  0  0  0  0  0  0
   -6.4970    5.3150  -15.9140 C   0  0  1  0  0  0  0  0  0  0  0  0
   -6.7400    4.6460  -17.2680 C   0  0  0  0  0  0  0  0  0  0  0  0
   -8.2540    4.4030  -17.2370 C   0  0  0  0  0  0  0  0  0  0  0  0
   -8.4600    3.8830  -15.8160 C   0  0  0  0  0  0  0  0  0  0  0  0
   -7.4750    4.6430  -15.0240 N   0  0  0  0  0  0  0  0  0  0  0  0
   -7.4250    4.7610  -13.6660 C   0  0  0  0  0  0  0  0  0  0  0  0
   -6.6330    5.5460  -13.1380 O   0  0  0  0  0  0  0  0  0  0  0  0
   -8.2660    3.9670  -12.9400 N   0  0  0  0  0  0  0  0  0  0  0  0
   -8.4090    3.9710  -11.5250 C   0  0  0  0  0  0  0  0  0  0  0  0
   -8.1820    5.1390  -10.7960 C   0  0  0  0  0  0  0  0  0  0  0  0
   -8.3230    5.1520   -9.4170 C   0  0  0  0  0  0  0  0  0  0  0  0
   -8.6140    3.9650   -8.7590 C   0  0  0  0  0  0  0  0  0  0  0  0
   -8.8380    2.7970   -9.4750 C   0  0  0  0  0  0  0  0  0  0  0  0
   -8.7030    2.7740  -10.8580 C   0  0  0  0  0  0  0  0  0  0  0  0
   -9.1950    1.6900   -8.5230 C   0  0  0  0  0  0  0  0  0  0  0  0
   -8.7200    2.2350   -7.2450 N   0  0  0  0  0  0  0  0  0  0  0  0
   -8.8340    3.7030   -7.2960 C   0  0  0  0  0  0  0  0  0  0  0  0
   -9.1450    5.5940  -17.7100 C   0  0  0  0  0  0  0  0  0  0  0  0
   -9.9710    4.6280  -18.5630 C   0  0  0  0  0  0  0  0  0  0  0  0
  -11.1420    4.2720  -18.0100 F   0  0  0  0  0  0  0  0  0  0  0  0
  -10.1920    5.0480  -19.8220 F   0  0  0  0  0  0  0  0  0  0  0  0
   -8.8620    3.5780  -18.4160 C   0  0  0  0  0  0  0  0  0  0  0  0
  2  1  1  1
  2  3  1  0
  3  4  1  0
  4  5  1  0
  5  6  1  0
  6  7  1  0
  7  8  2  0
  7  9  1  0
  9 10  1  0
 10 11  2  0
 11 12  1  0
 12 13  2  0
 13 14  1  0
 14 15  2  0
 14 16  1  0
 16 17  1  0
 17 18  1  0
  4 19  1  0
 19 20  1  0
 20 21  1  0
 20 22  1  0
 20 23  1  0
  2  6  1  0
 10 15  1  0
  4 23  1  0
 13 18  1  0
M  END
$$$$
