A71EV2A-x4812_A_201_1_A71EV2A-x0911+A+147+1__LIG
     RDKit          3D

 20 21  0  0  0  0  0  0  0  0999 V2000
   10.4120   16.7280   19.0730 O   0  0  0  0  0  0  0  0  0  0  0  0
   10.6700   15.5530   19.3440 C   0  0  0  0  0  0  0  0  0  0  0  0
   10.8960   14.6360   18.4180 N   0  0  0  0  0  0  0  0  0  0  0  0
   10.7500   15.0790   20.7850 C   0  0  1  0  0  0  0  0  0  0  0  0
   11.8760   15.7910   21.5480 C   0  0  0  0  0  0  0  0  0  0  0  0
   12.0110   15.2500   22.9740 C   0  0  0  0  0  0  0  0  0  0  0  0
   10.6840   15.3220   23.7140 C   0  0  0  0  0  0  0  0  0  0  0  0
    9.4570   15.2780   21.5800 C   0  0  0  0  0  0  0  0  0  0  0  0
    9.6000   14.7140   22.9250 N   0  0  0  0  0  0  0  0  0  0  0  0
    8.7210   13.7950   23.3850 C   0  0  0  0  0  0  0  0  0  0  0  0
    7.7630   13.4260   22.7200 O   0  0  0  0  0  0  0  0  0  0  0  0
    8.9190   13.3110   24.8120 C   0  0  0  0  0  0  0  0  0  0  0  0
    8.0360   12.1390   25.1410 C   0  0  0  0  0  0  0  0  0  0  0  0
    8.2720   10.8210   24.6780 C   0  0  0  0  0  0  0  0  0  0  0  0
    9.5950   10.4170   23.5810 S   0  0  0  0  0  0  0  0  0  0  0  0
    9.4450    8.6470   23.4210 C   0  0  0  0  0  0  0  0  0  0  0  0
    6.9960   12.4100   25.9420 N   0  0  0  0  0  0  0  0  0  0  0  0
    6.2090   11.3910   26.2910 C   0  0  0  0  0  0  0  0  0  0  0  0
    6.3220   10.1200   25.9220 N   0  0  0  0  0  0  0  0  0  0  0  0
    7.3540    9.8510   25.1230 C   0  0  0  0  0  0  0  0  0  0  0  0
 16 15  1  0
 15 14  1  0
 14 20  2  0
 20 19  1  0
 19 18  2  0
 18 17  1  0
 17 13  2  0
 14 13  1  0
 13 12  1  0
 12 10  1  0
 11 10  2  0
 10  9  1  0
  9  7  1  0
  7  6  1  0
  6  5  1  0
  5  4  1  0
  4  2  1  6
  3  2  1  0
  2  1  2  0
  8  4  1  0
  9  8  1  0
M  END
$$$$
