Z0490a
     RDKit          3D

 11 12  0  0  0  0  0  0  0  0999 V2000
   -3.2790    4.7320  -17.1990 C   0  0  0  0  0  0  0  0  0  0  0  0
   -4.6000    5.3000  -16.7330 C   0  0  0  0  0  0  0  0  0  0  0  0
   -5.6740    5.1070  -17.7360 N   0  0  0  0  0  0  0  0  0  0  0  0
   -7.0080    4.8560  -17.4580 C   0  0  0  0  0  0  0  0  0  0  0  0
   -7.6340    4.7580  -18.6990 C   0  0  0  0  0  0  0  0  0  0  0  0
   -6.7020    4.9550  -19.7240 N   0  0  0  0  0  0  0  0  0  0  0  0
   -5.5690    5.1470  -19.0970 C   0  0  0  0  0  0  0  0  0  0  0  0
   -7.6940    4.6670  -16.2650 C   0  0  0  0  0  0  0  0  0  0  0  0
   -9.0480    4.3730  -16.3440 C   0  0  0  0  0  0  0  0  0  0  0  0
   -9.6920    4.2760  -17.5780 C   0  0  0  0  0  0  0  0  0  0  0  0
   -8.9940    4.4600  -18.7620 C   0  0  0  0  0  0  0  0  0  0  0  0
  2  1  1  0
  3  2  1  0
  4  3  1  0
  5  4  2  0
  6  5  1  0
  7  6  2  0
  7  3  1  0
  8  4  1  0
  9  8  2  0
 10  9  1  0
 11 10  2  0
 11  5  1  0
M  END
>  <smiles>  (1) 
CCn1cnc2ccccc21

>  <inchikey>  (1) 
WVNMLOGVAVGQIT-UHFFFAOYSA-N

>  <alias>  (1) 
Z0490a

$$$$
Z0844a
     RDKit          3D

 12 13  0  0  0  0  0  0  0  0999 V2000
  -10.8240    4.4490  -17.7270 N   0  0  0  0  0  0  0  0  0  0  0  0
   -9.8040    4.2710  -18.1930 C   0  0  0  0  0  0  0  0  0  0  0  0
   -8.5350    4.0070  -18.8640 C   0  0  0  0  0  0  0  0  0  0  0  0
   -7.3720    4.7570  -18.3020 C   0  0  0  0  0  0  0  0  0  0  0  0
   -6.2440    4.9570  -19.0270 N   0  0  0  0  0  0  0  0  0  0  0  0
   -5.3980    5.9310  -18.3490 C   0  0  1  0  0  0  0  0  0  0  0  0
   -6.0220    5.9420  -16.9280 C   0  0  1  0  0  0  0  0  0  0  0  0
   -7.3120    5.2430  -17.1210 N   0  0  0  0  0  0  0  0  0  0  0  0
   -3.8680    5.9290  -18.2910 C   0  0  0  0  0  0  0  0  0  0  0  0
   -3.3110    4.9830  -17.2240 C   0  0  0  0  0  0  0  0  0  0  0  0
   -3.8100    5.3610  -15.8340 C   0  0  0  0  0  0  0  0  0  0  0  0
   -5.3330    5.2600  -15.7430 C   0  0  0  0  0  0  0  0  0  0  0  0
  2  1  3  0
  3  2  1  0
  4  3  1  0
  5  4  2  0
  6  5  1  0
  7  6  1  0
  8  4  1  0
  8  7  1  0
  6  9  1  1
 10  9  1  0
 11 10  1  0
  7 12  1  1
 12 11  1  0
M  END
>  <smiles>  (2) 
N#CCC1=N[C@@H]2CCCC[C@@H]2N1

>  <inchikey>  (2) 
MTYFPGDPOCYMJB-OCAPTIKFSA-N

>  <alias>  (2) 
Z0844a

$$$$
Z1682a
     RDKit          3D

 16 17  0  0  0  0  0  0  0  0999 V2000
   -5.6560    4.8760  -18.7900 C   0  0  0  0  0  0  0  0  0  0  0  0
   -7.4540    5.5760  -13.5380 C   0  0  2  0  0  0  0  0  0  0  0  0
   -4.4110    5.1210  -18.2350 C   0  0  0  0  0  0  0  0  0  0  0  0
   -4.2890    5.1020  -16.8380 C   0  0  0  0  0  0  0  0  0  0  0  0
   -6.5200    4.6160  -16.5080 C   0  0  0  0  0  0  0  0  0  0  0  0
   -7.6080    4.3640  -15.6190 C   0  0  0  0  0  0  0  0  0  0  0  0
   -8.8530    4.1010  -16.1120 C   0  0  0  0  0  0  0  0  0  0  0  0
   -9.0860    4.0990  -17.4950 C   0  0  0  0  0  0  0  0  0  0  0  0
   -8.0730    4.3440  -18.3700 C   0  0  0  0  0  0  0  0  0  0  0  0
   -6.7630    4.6100  -17.9120 C   0  0  0  0  0  0  0  0  0  0  0  0
   -6.8040    6.5910  -14.0810 F   0  0  0  0  0  0  0  0  0  0  0  0
   -8.7220    5.9330  -13.4280 F   0  0  0  0  0  0  0  0  0  0  0  0
   -6.9690    5.4460  -12.3160 F   0  0  0  0  0  0  0  0  0  0  0  0
   -5.8080    4.8890  -20.1650 N   0  0  0  0  0  0  0  0  0  0  0  0
   -5.2740    4.8610  -15.9950 N   0  0  0  0  0  0  0  0  0  0  0  0
   -7.3070    4.3630  -14.2780 O   0  0  0  0  0  0  0  0  0  0  0  0
  3  1  2  0
  4  3  1  0
  6  5  2  0
  7  6  1  0
  8  7  2  0
  9  8  1  0
 10  9  2  0
 10  5  1  0
 10  1  1  0
  2 11  1  6
 12  2  1  0
 13  2  1  0
 14  1  1  0
 15  5  1  0
 15  4  2  0
 16  6  1  0
 16  2  1  0
M  END
>  <smiles>  (3) 
Nc1ccnc2c(OC(F)(F)F)cccc12

>  <inchikey>  (3) 
TXQDWAKYWHIPPR-UHFFFAOYSA-N

>  <alias>  (3) 
Z1682a

$$$$
Z2971a
     RDKit          3D

 22 25  0  0  0  0  0  0  0  0999 V2000
   -6.0020    7.8730  -23.4380 O   0  0  0  0  0  0  0  0  0  0  0  0
   -4.7960    8.0290  -23.6600 C   0  0  0  0  0  0  0  0  0  0  0  0
   -4.1770    8.4020  -24.7970 N   0  0  0  0  0  0  0  0  0  0  0  0
   -2.8040    8.4540  -24.6490 N   0  0  0  0  0  0  0  0  0  0  0  0
   -2.5970    8.1110  -23.4160 C   0  0  0  0  0  0  0  0  0  0  0  0
   -3.7630    7.8380  -22.7550 N   0  0  0  0  0  0  0  0  0  0  0  0
   -3.9150    7.4110  -21.3450 C   0  0  2  0  0  0  0  0  0  0  0  0
   -3.9930    8.5880  -20.3840 C   0  0  0  0  0  0  0  0  0  0  0  0
   -4.2050    8.0920  -18.9570 C   0  0  0  0  0  0  0  0  0  0  0  0
   -3.1710    7.1340  -18.5480 N   0  0  0  0  0  0  0  0  0  0  0  0
   -3.3650    6.6930  -17.1620 C   0  0  0  0  0  0  0  0  0  0  0  0
   -4.7400    6.4860  -16.5990 C   0  0  0  0  0  0  0  0  0  0  0  0
   -5.1010    6.8380  -15.3280 C   0  0  0  0  0  0  0  0  0  0  0  0
   -6.3860    6.4390  -15.0750 N   0  0  0  0  0  0  0  0  0  0  0  0
   -6.8790    5.7790  -16.1680 C   0  0  0  0  0  0  0  0  0  0  0  0
   -8.1230    5.1860  -16.3770 C   0  0  0  0  0  0  0  0  0  0  0  0
   -8.3460    4.5930  -17.5970 C   0  0  0  0  0  0  0  0  0  0  0  0
   -7.3480    4.5440  -18.5680 C   0  0  0  0  0  0  0  0  0  0  0  0
   -6.1220    5.1320  -18.3670 C   0  0  0  0  0  0  0  0  0  0  0  0
   -5.8580    5.7560  -17.1410 C   0  0  0  0  0  0  0  0  0  0  0  0
   -3.0880    5.9870  -19.4640 C   0  0  0  0  0  0  0  0  0  0  0  0
   -2.8490    6.4190  -20.9090 C   0  0  0  0  0  0  0  0  0  0  0  0
  2  1  2  0
  3  2  1  0
  4  3  1  0
  5  4  2  0
  6  5  1  0
  6  2  1  0
  7  6  1  6
  8  7  1  0
  9  8  1  0
 10  9  1  0
 11 10  1  0
 12 11  1  0
 13 12  2  0
 14 13  1  0
 15 14  1  0
 16 15  2  0
 17 16  1  0
 18 17  2  0
 19 18  1  0
 20 19  2  0
 20 15  1  0
 20 12  1  0
 21 10  1  0
 22 21  1  0
 22  7  1  0
M  END
>  <smiles>  (4) 
O=c1[nH]ncn1C1CCN(Cc2c[nH]c3ccccc23)CC1

>  <inchikey>  (4) 
FERNFXYWZPTFED-UHFFFAOYSA-N

>  <alias>  (4) 
Z2971a

$$$$
Z0051a
     RDKit          3D

 12 13  0  0  0  0  0  0  0  0999 V2000
   -9.9790    4.0660  -18.5660 N   0  0  0  0  0  0  0  0  0  0  0  0
   -8.7500    4.4580  -18.2220 C   0  0  0  0  0  0  0  0  0  0  0  0
   -8.4660    5.1540  -16.6340 S   0  0  0  0  0  0  0  0  0  0  0  0
   -7.6950    4.3450  -18.9890 N   0  0  0  0  0  0  0  0  0  0  0  0
   -6.5550    4.8240  -18.3370 C   0  0  0  0  0  0  0  0  0  0  0  0
   -6.7750    5.2880  -17.0350 C   0  0  0  0  0  0  0  0  0  0  0  0
   -5.7250    5.7460  -16.2490 C   0  0  0  0  0  0  0  0  0  0  0  0
   -4.4430    5.7500  -16.7710 C   0  0  0  0  0  0  0  0  0  0  0  0
   -5.2650    4.8640  -18.8690 C   0  0  0  0  0  0  0  0  0  0  0  0
   -4.2200    5.3210  -18.0710 C   0  0  0  0  0  0  0  0  0  0  0  0
   -2.8940    5.4040  -18.4180 O   0  0  0  0  0  0  0  0  0  0  0  0
   -2.5100    4.9890  -19.7310 C   0  0  0  0  0  0  0  0  0  0  0  0
  2  1  1  0
  3  2  1  0
  4  2  2  0
  5  4  1  0
  6  5  2  0
  6  3  1  0
  7  6  1  0
  8  7  2  0
  9  5  1  0
 10  9  2  0
 10  8  1  0
 11 10  1  0
 12 11  1  0
M  END
>  <smiles>  (5) 
COc1ccc2sc(N)nc2c1

>  <inchikey>  (5) 
OMIHQJBWAPWLBO-UHFFFAOYSA-N

>  <alias>  (5) 
Z0051a

$$$$
Z0089a
     RDKit          3D

 13 14  0  0  0  0  0  0  0  0999 V2000
   -1.9020    4.2350  -19.4510 C   0  0  0  0  0  0  0  0  0  0  0  0
   -2.8600    5.2770  -18.9090 C   0  0  1  0  0  0  0  0  0  0  0  0
   -2.3230    6.6800  -19.0920 C   0  0  0  0  0  0  0  0  0  0  0  0
   -4.1560    5.1610  -19.5830 N   0  0  0  0  0  0  0  0  0  0  0  0
   -5.3370    4.9910  -18.9240 C   0  0  0  0  0  0  0  0  0  0  0  0
   -6.5190    4.7700  -19.5490 N   0  0  0  0  0  0  0  0  0  0  0  0
   -7.4660    4.5670  -18.5470 C   0  0  0  0  0  0  0  0  0  0  0  0
   -6.7770    4.7020  -17.3450 C   0  0  0  0  0  0  0  0  0  0  0  0
   -5.4330    4.9680  -17.6040 N   0  0  0  0  0  0  0  0  0  0  0  0
   -8.8130    4.2320  -18.5820 C   0  0  0  0  0  0  0  0  0  0  0  0
   -9.4640    4.0240  -17.3720 C   0  0  0  0  0  0  0  0  0  0  0  0
   -8.7900    4.1710  -16.1670 C   0  0  0  0  0  0  0  0  0  0  0  0
   -7.4480    4.5140  -16.1360 C   0  0  0  0  0  0  0  0  0  0  0  0
  2  1  1  6
  3  2  1  0
  4  2  1  0
  5  4  1  0
  6  5  2  0
  7  6  1  0
  8  7  2  0
  9  8  1  0
  9  5  1  0
 10  7  1  0
 11 10  2  0
 12 11  1  0
 13  8  1  0
 13 12  2  0
M  END
>  <smiles>  (6) 
CC(C)Nc1nc2ccccc2[nH]1

>  <inchikey>  (6) 
KRNAPWQWOXYDPY-UHFFFAOYSA-N

>  <alias>  (6) 
Z0089a

$$$$
Z0101a
     RDKit          3D

 15 15  0  0  0  0  0  0  0  0999 V2000
  -10.3540    3.6840  -18.3730 Cl  0  0  0  0  0  0  0  0  0  0  0  0
   -8.8750    4.1240  -17.5620 C   0  0  0  0  0  0  0  0  0  0  0  0
   -8.8420    4.1370  -16.1840 C   0  0  0  0  0  0  0  0  0  0  0  0
   -7.6810    4.5390  -15.5470 C   0  0  0  0  0  0  0  0  0  0  0  0
   -6.5700    4.9100  -16.2870 C   0  0  0  0  0  0  0  0  0  0  0  0
   -7.7790    4.4910  -18.3200 C   0  0  0  0  0  0  0  0  0  0  0  0
   -6.6090    4.8880  -17.6780 C   0  0  0  0  0  0  0  0  0  0  0  0
   -5.3620    5.2460  -18.4260 C   0  0  0  0  0  0  0  0  0  0  0  0
   -4.3560    5.6200  -17.8280 O   0  0  0  0  0  0  0  0  0  0  0  0
   -5.3930    5.1380  -19.7690 N   0  0  0  0  0  0  0  0  0  0  0  0
   -4.2640    5.4430  -20.6810 C   0  0  1  0  0  0  0  0  0  0  0  0
   -4.0530    6.9590  -20.7330 C   0  0  0  0  0  0  0  0  0  0  0  0
   -2.9820    4.7740  -20.1990 C   0  0  0  0  0  0  0  0  0  0  0  0
   -4.5150    4.8340  -22.0520 C   0  0  0  0  0  0  0  0  0  0  0  0
   -5.3880    5.5970  -22.8680 O   0  0  0  0  0  0  0  0  0  0  0  0
  2  1  1  0
  3  2  2  0
  4  3  1  0
  5  4  2  0
  6  2  1  0
  7  6  2  0
  7  5  1  0
  8  7  1  0
  9  8  2  0
 10  8  1  0
 11 10  1  0
 11 12  1  6
 13 11  1  0
 14 11  1  0
 15 14  1  0
M  END
>  <smiles>  (7) 
CC(C)(CO)NC(=O)c1cccc(Cl)c1

>  <inchikey>  (7) 
XZDXDRPMHCVWBK-UHFFFAOYSA-N

>  <alias>  (7) 
Z0101a

$$$$
Z0182a
     RDKit          3D

 16 17  0  0  0  0  0  0  0  0999 V2000
  -10.5270    4.1060  -17.8370 F   0  0  0  0  0  0  0  0  0  0  0  0
   -9.2240    4.4290  -17.6110 C   0  0  0  0  0  0  0  0  0  0  0  0
   -8.8210    4.6720  -16.3240 C   0  0  0  0  0  0  0  0  0  0  0  0
   -7.5320    5.1320  -16.1170 C   0  0  0  0  0  0  0  0  0  0  0  0
   -8.3950    4.5770  -18.6870 C   0  0  0  0  0  0  0  0  0  0  0  0
   -7.1120    5.0430  -18.4670 C   0  0  0  0  0  0  0  0  0  0  0  0
   -6.6620    5.3430  -17.1840 C   0  0  0  0  0  0  0  0  0  0  0  0
   -5.2600    5.9220  -16.9520 C   0  0  1  0  0  0  0  0  0  0  0  0
   -5.3990    7.4530  -16.7820 C   0  0  0  0  0  0  0  0  0  0  0  0
   -5.8390    7.8910  -15.6090 N   0  0  0  0  0  0  0  0  0  0  0  0
   -5.1140    8.2210  -17.7000 O   0  0  0  0  0  0  0  0  0  0  0  0
   -4.5950    5.3170  -15.6850 C   0  0  0  0  0  0  0  0  0  0  0  0
   -3.2790    4.5810  -15.9190 C   0  0  0  0  0  0  0  0  0  0  0  0
   -2.3420    5.4520  -16.7360 C   0  0  0  0  0  0  0  0  0  0  0  0
   -2.9260    6.0250  -17.9760 N   0  0  0  0  0  0  0  0  0  0  0  0
   -4.3230    5.6450  -18.1640 C   0  0  0  0  0  0  0  0  0  0  0  0
  2  1  1  0
  3  2  2  0
  4  3  1  0
  5  2  1  0
  6  5  2  0
  7  6  1  0
  7  4  2  0
  8  7  1  0
  8  9  1  1
 10  9  1  0
 11  9  2  0
 12  8  1  0
 13 12  1  0
 14 13  1  0
 15 14  1  0
 16 15  1  0
 16  8  1  0
M  END
>  <smiles>  (8) 
NC(=O)[C@]1(c2ccc(F)cc2)CCCNC1

>  <inchikey>  (8) 
AQYHAXBZALQJNL-GFCCVEGCSA-N

>  <alias>  (8) 
Z0182a

$$$$
Z0227a
     RDKit          3D

 13 14  0  0  0  0  0  0  0  0999 V2000
   -5.2800    5.0950  -20.1020 N   0  0  0  0  0  0  0  0  0  0  0  0
   -5.3670    6.1950  -19.1420 C   0  0  0  0  0  0  0  0  0  0  0  0
   -5.6780    5.7030  -17.7100 C   0  0  1  0  0  0  0  0  0  0  0  0
   -4.5730    4.7250  -17.2440 C   0  0  0  0  0  0  0  0  0  0  0  0
   -3.7040    5.5000  -16.2640 C   0  0  0  0  0  0  0  0  0  0  0  0
   -4.5890    6.4700  -15.6510 C   0  0  0  0  0  0  0  0  0  0  0  0
   -5.5150    6.9270  -16.7740 C   0  0  0  0  0  0  0  0  0  0  0  0
   -7.0750    5.1060  -17.5700 C   0  0  0  0  0  0  0  0  0  0  0  0
   -7.6170    4.8700  -16.3110 C   0  0  0  0  0  0  0  0  0  0  0  0
   -8.8850    4.3240  -16.2280 C   0  0  0  0  0  0  0  0  0  0  0  0
   -9.5820    4.0340  -17.3780 C   0  0  0  0  0  0  0  0  0  0  0  0
   -8.9760    4.2970  -18.5860 C   0  0  0  0  0  0  0  0  0  0  0  0
   -7.7410    4.8170  -18.6990 N   0  0  0  0  0  0  0  0  0  0  0  0
  2  1  1  0
  3  2  1  6
  4  3  1  0
  5  4  1  0
  6  5  1  0
  7  3  1  0
  7  6  1  0
  8  3  1  0
  9  8  2  0
 10  9  1  0
 11 10  2  0
 12 11  1  0
 13 12  2  0
 13  8  1  0
M  END
>  <smiles>  (9) 
NCC1(c2ccccn2)CCCC1

>  <inchikey>  (9) 
DQSRGJUPRBBWIV-UHFFFAOYSA-N

>  <alias>  (9) 
Z0227a

$$$$
Z0404a
     RDKit          3D

 16 17  0  0  0  0  0  0  0  0999 V2000
   -8.1120    8.5230  -13.2510 O   0  0  0  0  0  0  0  0  0  0  0  0
   -8.7150    7.2500  -13.5360 S   0  0  2  0  0  0  0  0  0  0  0  0
   -8.2850    6.5490  -14.7120 O   0  0  0  0  0  0  0  0  0  0  0  0
  -10.4540    7.4580  -13.6120 C   0  0  0  0  0  0  0  0  0  0  0  0
   -8.4640    6.1950  -12.1410 C   0  0  0  0  0  0  0  0  0  0  0  0
   -8.2740    6.7570  -10.8910 C   0  0  0  0  0  0  0  0  0  0  0  0
   -8.2560    5.9420   -9.7750 C   0  0  0  0  0  0  0  0  0  0  0  0
   -8.4280    4.5600   -9.8950 C   0  0  0  0  0  0  0  0  0  0  0  0
   -8.5570    4.0080  -11.1740 C   0  0  0  0  0  0  0  0  0  0  0  0
   -8.5720    4.8200  -12.2940 C   0  0  0  0  0  0  0  0  0  0  0  0
   -8.5600    3.7620   -8.7540 N   0  0  0  0  0  0  0  0  0  0  0  0
   -8.5350    2.3010   -8.8880 C   0  0  0  0  0  0  0  0  0  0  0  0
   -9.2770    1.6730   -7.7340 C   0  0  0  0  0  0  0  0  0  0  0  0
   -8.6650    2.0900   -6.4580 N   0  0  0  0  0  0  0  0  0  0  0  0
   -8.6250    3.5640   -6.3180 C   0  0  0  0  0  0  0  0  0  0  0  0
   -7.9490    4.2210   -7.5020 C   0  0  0  0  0  0  0  0  0  0  0  0
  2  1  2  0
  3  2  2  0
  2  4  1  6
  5  2  1  0
  6  5  2  0
  7  6  1  0
  8  7  2  0
  9  8  1  0
 10  9  2  0
 10  5  1  0
 11  8  1  0
 12 11  1  0
 13 12  1  0
 14 13  1  0
 15 14  1  0
 16 15  1  0
 16 11  1  0
M  END
>  <smiles>  (10) 
CS(=O)(=O)c1ccc(N2CCNCC2)cc1

>  <inchikey>  (10) 
KNQFDOLIXOOIGX-UHFFFAOYSA-N

>  <alias>  (10) 
Z0404a

$$$$
Z0422a
     RDKit          3D

 11 12  0  0  0  0  0  0  0  0999 V2000
   -2.3740    5.1750  -17.7900 N   0  0  0  0  0  0  0  0  0  0  0  0
   -3.5900    5.0270  -18.3220 C   0  0  0  0  0  0  0  0  0  0  0  0
   -4.7330    5.0370  -17.5670 N   0  0  0  0  0  0  0  0  0  0  0  0
   -5.7460    4.8110  -18.4650 C   0  0  0  0  0  0  0  0  0  0  0  0
   -5.2590    4.6900  -19.6920 N   0  0  0  0  0  0  0  0  0  0  0  0
   -3.8740    4.8240  -19.6080 N   0  0  0  0  0  0  0  0  0  0  0  0
   -7.1500    4.6840  -18.1130 C   0  0  0  0  0  0  0  0  0  0  0  0
   -7.6660    4.8080  -16.4840 S   0  0  0  0  0  0  0  0  0  0  0  0
   -9.2800    4.5010  -16.9140 C   0  0  0  0  0  0  0  0  0  0  0  0
   -9.4330    4.3190  -18.2380 C   0  0  0  0  0  0  0  0  0  0  0  0
   -8.2110    4.4280  -18.9320 C   0  0  0  0  0  0  0  0  0  0  0  0
  2  1  1  0
  3  2  1  0
  4  3  1  0
  5  4  2  0
  6  5  1  0
  6  2  2  0
  7  4  1  0
  8  7  1  0
  9  8  1  0
 10  9  2  0
 11 10  1  0
 11  7  2  0
M  END
>  <smiles>  (11) 
Nc1nnc(-c2cccs2)[nH]1

>  <inchikey>  (11) 
XMLRXJVRTGHHIJ-UHFFFAOYSA-N

>  <alias>  (11) 
Z0422a

$$$$
Z0425a
     RDKit          3D

 11 11  0  0  0  0  0  0  0  0999 V2000
   -2.2990    5.0160  -16.9210 N   0  0  0  0  0  0  0  0  0  0  0  0
   -3.5920    5.1990  -16.2620 C   0  0  0  0  0  0  0  0  0  0  0  0
   -4.7310    5.1680  -17.2580 C   0  0  0  0  0  0  0  0  0  0  0  0
   -6.0320    4.9150  -16.8330 C   0  0  0  0  0  0  0  0  0  0  0  0
   -4.5180    5.3920  -18.6100 C   0  0  0  0  0  0  0  0  0  0  0  0
   -5.5930    5.3640  -19.4770 C   0  0  0  0  0  0  0  0  0  0  0  0
   -6.8560    5.1170  -19.0930 N   0  0  0  0  0  0  0  0  0  0  0  0
   -7.0630    4.8910  -17.7840 C   0  0  0  0  0  0  0  0  0  0  0  0
   -8.3410    4.6010  -17.3920 N   0  0  0  0  0  0  0  0  0  0  0  0
   -9.3870    4.2670  -18.3500 C   0  0  0  0  0  0  0  0  0  0  0  0
   -8.7210    4.5850  -15.9870 C   0  0  0  0  0  0  0  0  0  0  0  0
  2  1  1  0
  3  2  1  0
  4  3  2  0
  5  3  1  0
  6  5  2  0
  7  6  1  0
  8  7  2  0
  8  4  1  0
  9  8  1  0
 10  9  1  0
 11  9  1  0
M  END
>  <smiles>  (12) 
CN(C)c1cc(CN)ccn1

>  <inchikey>  (12) 
FVBLFJODKIHJMW-UHFFFAOYSA-N

>  <alias>  (12) 
Z0425a

$$$$
Z0429a
     RDKit          3D

 16 18  0  0  0  0  0  0  0  0999 V2000
   -7.4390    4.6770  -16.0770 C   0  0  0  0  0  0  0  0  0  0  0  0
   -8.7410    4.2810  -16.1590 C   0  0  0  0  0  0  0  0  0  0  0  0
   -9.3580    4.1270  -17.3920 C   0  0  0  0  0  0  0  0  0  0  0  0
   -8.6780    4.3820  -18.5480 C   0  0  0  0  0  0  0  0  0  0  0  0
   -6.6930    4.9610  -17.2480 C   0  0  0  0  0  0  0  0  0  0  0  0
   -7.3330    4.8190  -18.5060 C   0  0  0  0  0  0  0  0  0  0  0  0
   -6.7070    5.1120  -19.6920 N   0  0  0  0  0  0  0  0  0  0  0  0
   -5.4610    5.5420  -19.6320 C   0  0  0  0  0  0  0  0  0  0  0  0
   -4.7360    5.6980  -18.4660 C   0  0  0  0  0  0  0  0  0  0  0  0
   -5.3340    5.3990  -17.2570 C   0  0  0  0  0  0  0  0  0  0  0  0
   -4.6190    5.4680  -16.0290 N   0  0  0  0  0  0  0  0  0  0  0  0
   -4.5410    6.8200  -15.4520 C   0  0  0  0  0  0  0  0  0  0  0  0
   -3.3260    4.7670  -16.0620 C   0  0  0  0  0  0  0  0  0  0  0  0
   -2.6440    4.7310  -14.7020 C   0  0  0  0  0  0  0  0  0  0  0  0
   -3.3580    5.5510  -13.6990 N   0  0  0  0  0  0  0  0  0  0  0  0
   -3.6460    6.8970  -14.2260 C   0  0  0  0  0  0  0  0  0  0  0  0
  2  1  2  0
  3  2  1  0
  4  3  2  0
  5  1  1  0
  6  5  2  0
  6  4  1  0
  7  6  1  0
  8  7  2  0
  9  8  1  0
 10  5  1  0
 10  9  2  0
 11 10  1  0
 12 11  1  0
 13 11  1  0
 14 13  1  0
 15 14  1  0
 16 15  1  0
 16 12  1  0
M  END
>  <smiles>  (13) 
c1ccc2c(N3CCNCC3)ccnc2c1

>  <inchikey>  (13) 
CGSWRHKBLLDUHO-UHFFFAOYSA-N

>  <alias>  (13) 
Z0429a

$$$$
Z0435a
     RDKit          3D

 10 11  0  0  0  0  0  0  0  0999 V2000
   -6.0000    4.8570  -20.2200 N   0  0  0  0  0  0  0  0  0  0  0  0
   -5.9060    4.8640  -18.8880 C   0  0  0  0  0  0  0  0  0  0  0  0
   -7.0080    4.6800  -18.0650 N   0  0  0  0  0  0  0  0  0  0  0  0
   -6.4760    4.7220  -16.7770 C   0  0  0  0  0  0  0  0  0  0  0  0
   -5.1650    4.9140  -16.8190 N   0  0  0  0  0  0  0  0  0  0  0  0
   -4.8010    5.0010  -18.1660 N   0  0  0  0  0  0  0  0  0  0  0  0
   -8.3540    4.4700  -18.2970 C   0  0  0  0  0  0  0  0  0  0  0  0
   -9.1890    4.3000  -17.2470 C   0  0  0  0  0  0  0  0  0  0  0  0
   -8.6850    4.3300  -15.9240 C   0  0  0  0  0  0  0  0  0  0  0  0
   -7.3570    4.5320  -15.6840 C   0  0  0  0  0  0  0  0  0  0  0  0
  2  1  1  0
  3  2  1  0
  4  3  1  0
  5  4  2  0
  6  2  2  0
  6  5  1  0
  7  3  1  0
  8  7  2  0
  9  8  1  0
 10  4  1  0
 10  9  2  0
M  END
>  <smiles>  (14) 
Nc1nnc2ccccn12

>  <inchikey>  (14) 
NCZQAIFOXJOCFI-UHFFFAOYSA-N

>  <alias>  (14) 
Z0435a

$$$$
Z0455a
     RDKit          3D

 10 11  0  0  0  0  0  0  0  0999 V2000
   -7.4660    4.7530  -14.7890 C   0  0  0  0  0  0  0  0  0  0  0  0
   -5.9490    4.7480  -14.6660 C   0  0  0  0  0  0  0  0  0  0  0  0
   -7.9360    4.5950  -16.2090 C   0  0  0  0  0  0  0  0  0  0  0  0
   -7.0730    4.8630  -17.2870 C   0  0  0  0  0  0  0  0  0  0  0  0
   -5.7780    5.2760  -17.0920 N   0  0  0  0  0  0  0  0  0  0  0  0
   -5.2000    5.4800  -15.7700 C   0  0  0  0  0  0  0  0  0  0  0  0
   -9.1990    4.1740  -16.3760 N   0  0  0  0  0  0  0  0  0  0  0  0
   -9.6450    4.0080  -17.6310 C   0  0  0  0  0  0  0  0  0  0  0  0
   -8.8700    4.2340  -18.7470 C   0  0  0  0  0  0  0  0  0  0  0  0
   -7.5640    4.6630  -18.5740 C   0  0  0  0  0  0  0  0  0  0  0  0
  2  1  2  0
  3  1  1  0
  4  3  2  0
  5  4  1  0
  6  5  2  0
  6  2  1  0
  7  3  1  0
  8  7  1  0
  9  8  1  0
 10  9  1  0
 10  4  1  0
M  END
>  <smiles>  (15) 
c1cnc2c(c1)NCCC2

>  <inchikey>  (15) 
OALXTMWCXNPUKJ-UHFFFAOYSA-N

>  <alias>  (15) 
Z0455a

$$$$
Z0465a
     RDKit          3D

 13 14  0  0  0  0  0  0  0  0999 V2000
  -10.9440    4.9080  -17.8100 O   0  0  0  0  0  0  0  0  0  0  0  0
   -9.7400    5.0350  -17.7770 C   0  0  0  0  0  0  0  0  0  0  0  0
   -8.9760    5.0780  -16.4810 C   0  0  0  0  0  0  0  0  0  0  0  0
   -7.6250    4.3760  -16.5860 C   0  0  0  0  0  0  0  0  0  0  0  0
   -6.8750    4.8060  -17.7770 N   0  0  0  0  0  0  0  0  0  0  0  0
   -7.6310    4.4960  -18.9940 C   0  0  0  0  0  0  0  0  0  0  0  0
   -8.9400    5.2640  -19.0250 C   0  0  0  0  0  0  0  0  0  0  0  0
   -5.4820    4.8120  -17.7870 C   0  0  0  0  0  0  0  0  0  0  0  0
   -4.8890    4.8640  -19.0030 N   0  0  0  0  0  0  0  0  0  0  0  0
   -3.5440    4.8480  -19.0370 C   0  0  0  0  0  0  0  0  0  0  0  0
   -2.7440    4.7840  -17.9070 C   0  0  0  0  0  0  0  0  0  0  0  0
   -3.3610    4.7320  -16.6710 C   0  0  0  0  0  0  0  0  0  0  0  0
   -4.7470    4.7500  -16.5810 C   0  0  0  0  0  0  0  0  0  0  0  0
  2  1  2  0
  3  2  1  0
  4  3  1  0
  5  4  1  0
  6  5  1  0
  7  6  1  0
  7  2  1  0
  8  5  1  0
  9  8  2  0
 10  9  1  0
 11 10  2  0
 12 11  1  0
 13  8  1  0
 13 12  2  0
M  END
>  <smiles>  (16) 
O=C1CCN(c2ccccn2)CC1

>  <inchikey>  (16) 
CSNJUQMJDHNKHI-UHFFFAOYSA-N

>  <alias>  (16) 
Z0465a

$$$$
Z0472a
     RDKit          3D

 13 14  0  0  0  0  0  0  0  0999 V2000
   -2.8150    4.1160  -15.4000 N   0  0  0  0  0  0  0  0  0  0  0  0
   -2.5290    5.1790  -16.3620 C   0  0  0  0  0  0  0  0  0  0  0  0
   -3.4960    5.1420  -17.5570 C   0  0  2  0  0  0  0  0  0  0  0  0
   -3.0050    6.0920  -18.6360 C   0  0  0  0  0  0  0  0  0  0  0  0
   -4.9130    5.3210  -17.1590 N   0  0  0  0  0  0  0  0  0  0  0  0
   -5.9190    5.3630  -18.2420 C   0  0  0  0  0  0  0  0  0  0  0  0
   -7.2760    5.0220  -17.6790 C   0  0  0  0  0  0  0  0  0  0  0  0
   -8.4010    4.5830  -18.4330 C   0  0  0  0  0  0  0  0  0  0  0  0
   -9.4560    4.2690  -17.6510 C   0  0  0  0  0  0  0  0  0  0  0  0
   -9.1120    4.5000  -15.9910 S   0  0  0  0  0  0  0  0  0  0  0  0
   -7.5180    5.0470  -16.3420 C   0  0  0  0  0  0  0  0  0  0  0  0
   -6.5370    5.5120  -15.3070 C   0  0  0  0  0  0  0  0  0  0  0  0
   -5.3480    6.1450  -16.0200 C   0  0  0  0  0  0  0  0  0  0  0  0
  2  1  1  0
  3  2  1  0
  3  4  1  6
  5  3  1  0
  6  5  1  0
  7  6  1  0
  8  7  1  0
  9  8  2  0
 10  9  1  0
 11  7  2  0
 11 10  1  0
 12 11  1  0
 13 12  1  0
 13  5  1  0
M  END
>  <smiles>  (17) 
C[C@@H](CN)N1CCc2sccc2C1

>  <inchikey>  (17) 
MQKOIUAPLLHABT-QMMMGPOBSA-N

>  <alias>  (17) 
Z0472a

$$$$
Z0553a
     RDKit          3D

  9  9  0  0  0  0  0  0  0  0999 V2000
  -11.4050    4.1710  -18.4560 N   0  0  0  0  0  0  0  0  0  0  0  0
  -10.3300    4.2920  -18.0930 C   0  0  0  0  0  0  0  0  0  0  0  0
   -8.9860    4.4380  -17.5950 C   0  0  0  0  0  0  0  0  0  0  0  0
   -7.9440    4.7390  -18.4670 C   0  0  0  0  0  0  0  0  0  0  0  0
   -6.6870    4.9410  -17.9600 C   0  0  0  0  0  0  0  0  0  0  0  0
   -8.7230    4.3230  -16.2330 C   0  0  0  0  0  0  0  0  0  0  0  0
   -7.4430    4.5230  -15.7810 C   0  0  0  0  0  0  0  0  0  0  0  0
   -6.4470    4.8360  -16.6360 N   0  0  0  0  0  0  0  0  0  0  0  0
   -5.0820    5.0670  -16.1180 C   0  0  0  0  0  0  0  0  0  0  0  0
  2  1  3  0
  3  2  1  0
  4  3  2  0
  5  4  1  0
  6  3  1  0
  7  6  2  0
  8  5  2  0
  8  7  1  0
  9  8  1  0
M  CHG  1   8   1
M  END
>  <smiles>  (18) 
C[n+]1ccc(C#N)cc1

>  <inchikey>  (18) 
NQQUGKKTJLAUHC-UHFFFAOYSA-N

>  <alias>  (18) 
Z0553a

$$$$
Z0559a
     RDKit          3D

  7  7  0  0  0  0  0  0  0  0999 V2000
  -10.3570    4.1930  -18.0350 C   0  0  0  0  0  0  0  0  0  0  0  0
   -9.3000    4.2410  -18.7960 C   0  0  0  0  0  0  0  0  0  0  0  0
   -7.9960    4.5650  -18.3190 C   0  0  0  0  0  0  0  0  0  0  0  0
   -7.7370    4.8410  -16.9820 N   0  0  0  0  0  0  0  0  0  0  0  0
   -6.4400    5.0970  -16.9180 C   0  0  0  0  0  0  0  0  0  0  0  0
   -5.8520    5.0020  -18.1140 N   0  0  0  0  0  0  0  0  0  0  0  0
   -6.8220    4.6640  -19.0130 C   0  0  0  0  0  0  0  0  0  0  0  0
  2  1  2  0
  3  2  1  0
  4  3  1  0
  5  4  2  0
  6  5  1  0
  7  6  1  0
  7  3  2  0
M  END
>  <smiles>  (19) 
C=Cc1c[nH]cn1

>  <inchikey>  (19) 
MHQZDNQHLGFBRN-UHFFFAOYSA-N

>  <alias>  (19) 
Z0559a

$$$$
Z0589a
     RDKit          3D

  8  8  0  0  0  0  0  0  0  0999 V2000
  -10.4350    3.8480  -18.4710 Br  0  0  0  0  0  0  0  0  0  0  0  0
   -8.7540    4.3500  -17.7440 C   0  0  0  0  0  0  0  0  0  0  0  0
   -7.6840    4.5890  -18.5800 C   0  0  0  0  0  0  0  0  0  0  0  0
   -6.4870    4.9890  -18.0120 C   0  0  0  0  0  0  0  0  0  0  0  0
   -6.3890    5.1280  -16.6450 C   0  0  0  0  0  0  0  0  0  0  0  0
   -8.6400    4.4910  -16.3780 C   0  0  0  0  0  0  0  0  0  0  0  0
   -7.4560    4.8760  -15.8560 N   0  0  0  0  0  0  0  0  0  0  0  0
   -7.3340    5.0290  -14.3900 C   0  0  0  0  0  0  0  0  0  0  0  0
  2  1  1  0
  3  2  2  0
  4  3  1  0
  5  4  2  0
  6  2  1  0
  7  6  2  0
  7  5  1  0
  8  7  1  0
M  CHG  1   7   1
M  END
>  <smiles>  (20) 
C[n+]1cccc(Br)c1

>  <inchikey>  (20) 
HETQOWPCHKBEFO-UHFFFAOYSA-N

>  <alias>  (20) 
Z0589a

$$$$
Z0605a
     RDKit          3D

  9  9  0  0  0  0  0  0  0  0999 V2000
  -10.5930    4.1240  -18.3990 C   0  0  0  0  0  0  0  0  0  0  0  0
   -9.8540    4.4140  -17.3760 C   0  0  0  0  0  0  0  0  0  0  0  0
   -8.3840    4.5270  -17.3590 C   0  0  0  0  0  0  0  0  0  0  0  0
   -7.6770    4.6740  -18.5460 C   0  0  0  0  0  0  0  0  0  0  0  0
   -6.3010    4.8310  -18.5350 C   0  0  0  0  0  0  0  0  0  0  0  0
   -5.6230    4.8390  -17.3380 C   0  0  0  0  0  0  0  0  0  0  0  0
   -7.6320    4.5350  -16.1490 C   0  0  0  0  0  0  0  0  0  0  0  0
   -6.2910    4.6920  -16.1740 N   0  0  0  0  0  0  0  0  0  0  0  0
   -5.5450    4.7070  -14.8990 C   0  0  0  0  0  0  0  0  0  0  0  0
  2  1  2  0
  3  2  1  0
  4  3  2  0
  5  4  1  0
  6  5  2  0
  7  3  1  0
  8  6  1  0
  8  7  2  0
  9  8  1  0
M  CHG  1   8   1
M  END
>  <smiles>  (21) 
C=Cc1ccc[n+](C)c1

>  <inchikey>  (21) 
WVZHSQIASVAADH-UHFFFAOYSA-N

>  <alias>  (21) 
Z0605a

$$$$
Z0673a
     RDKit          3D

 15 16  0  0  0  0  0  0  0  0999 V2000
  -10.9930    3.8520  -17.9750 O   0  0  0  0  0  0  0  0  0  0  0  0
   -9.7930    4.0050  -17.7970 C   0  0  0  0  0  0  0  0  0  0  0  0
   -8.8600    4.1180  -18.9650 C   0  0  0  0  0  0  0  0  0  0  0  0
   -7.6080    4.9530  -18.6770 C   0  0  0  0  0  0  0  0  0  0  0  0
   -9.2950    4.1230  -16.5780 N   0  0  0  0  0  0  0  0  0  0  0  0
   -8.1060    4.8910  -16.2180 C   0  0  0  0  0  0  0  0  0  0  0  0
   -7.0260    4.7750  -17.2800 C   0  0  2  0  0  0  0  0  0  0  0  0
   -5.9950    5.7780  -17.0280 N   0  0  0  0  0  0  0  0  0  0  0  0
   -4.9890    5.5670  -16.1710 C   0  0  0  0  0  0  0  0  0  0  0  0
   -5.1440    5.4510  -14.9520 O   0  0  0  0  0  0  0  0  0  0  0  0
   -3.6520    5.4560  -16.7990 C   0  0  0  0  0  0  0  0  0  0  0  0
   -3.5190    4.9830  -18.0950 N   0  0  0  0  0  0  0  0  0  0  0  0
   -2.2620    4.9840  -18.4280 C   0  0  0  0  0  0  0  0  0  0  0  0
   -1.1770    5.5420  -17.2320 S   0  0  0  0  0  0  0  0  0  0  0  0
   -2.4940    5.8000  -16.1860 C   0  0  0  0  0  0  0  0  0  0  0  0
  2  1  2  0
  3  2  1  0
  4  3  1  0
  5  2  1  0
  6  5  1  0
  7  4  1  0
  7  6  1  0
  7  8  1  1
  9  8  1  0
 10  9  2  0
 11  9  1  0
 12 11  1  0
 13 12  2  0
 14 13  1  0
 15 14  1  0
 15 11  2  0
M  END
>  <smiles>  (22) 
O=C1CC[C@@H](NC(=O)c2cscn2)CN1

>  <inchikey>  (22) 
MTDCJLXPYPQTPX-ZCFIWIBFSA-N

>  <alias>  (22) 
Z0673a

$$$$
Z0673b
     RDKit          3D

 15 16  0  0  0  0  0  0  0  0999 V2000
   -6.7060   -1.7300    4.3600 O   0  0  0  0  0  0  0  0  0  0  0  0
   -6.8070   -0.6590    3.7660 C   0  0  0  0  0  0  0  0  0  0  0  0
   -5.7470   -0.2210    2.7970 C   0  0  0  0  0  0  0  0  0  0  0  0
   -5.7730    1.2680    2.4180 C   0  0  0  0  0  0  0  0  0  0  0  0
   -7.8220    0.1480    3.9950 N   0  0  0  0  0  0  0  0  0  0  0  0
   -7.7710    1.6040    3.9050 C   0  0  0  0  0  0  0  0  0  0  0  0
   -7.0860    2.0360    2.6220 C   0  0  2  0  0  0  0  0  0  0  0  0
   -8.0110    1.8800    1.4980 N   0  0  0  0  0  0  0  0  0  0  0  0
   -8.4750    2.9250    0.7850 C   0  0  0  0  0  0  0  0  0  0  0  0
   -7.8950    3.3760   -0.2020 O   0  0  0  0  0  0  0  0  0  0  0  0
   -9.7490    3.5170    1.2640 C   0  0  0  0  0  0  0  0  0  0  0  0
  -10.5140    4.3100    0.4180 N   0  0  0  0  0  0  0  0  0  0  0  0
  -11.5610    4.7410    1.0590 C   0  0  0  0  0  0  0  0  0  0  0  0
  -11.7000    4.2330    2.6860 S   0  0  0  0  0  0  0  0  0  0  0  0
  -10.2440    3.3690    2.5190 C   0  0  0  0  0  0  0  0  0  0  0  0
  2  1  2  0
  3  2  1  0
  4  3  1  0
  5  2  1  0
  6  5  1  0
  7  6  1  0
  7  4  1  0
  7  8  1  6
  9  8  1  0
 10  9  2  0
 11  9  1  0
 12 11  1  0
 13 12  2  0
 14 13  1  0
 15 14  1  0
 15 11  2  0
M  END
>  <smiles>  (23) 
O=C1CC[C@@H](NC(=O)c2cscn2)CN1

>  <inchikey>  (23) 
MTDCJLXPYPQTPX-ZCFIWIBFSA-N

>  <alias>  (23) 
Z0673b

$$$$
Z0687a
     RDKit          3D

 11 11  0  0  0  0  0  0  0  0999 V2000
   -8.3620    3.8940  -14.9330 O   0  0  0  0  0  0  0  0  0  0  0  0
   -7.7590    4.9560  -14.8210 C   0  0  0  0  0  0  0  0  0  0  0  0
   -7.4580    5.5580  -13.4800 C   0  0  0  0  0  0  0  0  0  0  0  0
   -7.2780    5.6520  -15.8840 N   0  0  0  0  0  0  0  0  0  0  0  0
   -6.5910    5.2180  -17.0470 C   0  0  0  0  0  0  0  0  0  0  0  0
   -7.3110    4.7810  -18.1660 C   0  0  0  0  0  0  0  0  0  0  0  0
   -8.7820    4.4550  -18.1090 C   0  0  0  0  0  0  0  0  0  0  0  0
   -6.5850    4.6200  -19.3410 C   0  0  0  0  0  0  0  0  0  0  0  0
   -5.2710    4.8290  -19.4620 N   0  0  0  0  0  0  0  0  0  0  0  0
   -4.6110    5.1990  -18.3600 C   0  0  0  0  0  0  0  0  0  0  0  0
   -5.2150    5.4020  -17.1350 C   0  0  0  0  0  0  0  0  0  0  0  0
  2  1  2  0
  3  2  1  0
  4  2  1  0
  5  4  1  0
  6  5  2  0
  7  6  1  0
  8  6  1  0
  9  8  2  0
 10  9  1  0
 11  5  1  0
 11 10  2  0
M  END
>  <smiles>  (24) 
CC(=O)Nc1ccncc1C

>  <inchikey>  (24) 
DHUDCBCQKIWLSB-UHFFFAOYSA-N

>  <alias>  (24) 
Z0687a

$$$$
Z0693a
     RDKit          3D

 10 10  0  0  0  0  0  0  0  0999 V2000
   -9.1870    4.2870  -18.2370 O   0  0  0  0  0  0  0  0  0  0  0  0
   -8.6130    4.5720  -17.1830 C   0  0  0  0  0  0  0  0  0  0  0  0
   -9.0410    4.1930  -15.9570 N   0  0  0  0  0  0  0  0  0  0  0  0
   -8.1250    4.6460  -15.0120 N   0  0  0  0  0  0  0  0  0  0  0  0
   -7.3680    5.3100  -16.9810 C   0  0  0  0  0  0  0  0  0  0  0  0
   -7.1210    5.3060  -15.6120 C   0  0  0  0  0  0  0  0  0  0  0  0
   -5.9800    5.8660  -14.8250 C   0  0  0  0  0  0  0  0  0  0  0  0
   -6.6240    5.9410  -18.1230 C   0  0  0  0  0  0  0  0  0  0  0  0
   -5.9980    4.9330  -19.0350 C   0  0  0  0  0  0  0  0  0  0  0  0
   -6.5370    5.0400  -20.3410 O   0  0  0  0  0  0  0  0  0  0  0  0
  2  1  2  0
  3  2  1  0
  4  3  1  0
  5  2  1  0
  6  5  2  0
  6  4  1  0
  7  6  1  0
  8  5  1  0
  9  8  1  0
 10  9  1  0
M  END
>  <smiles>  (25) 
Cc1[nH][nH]c(=O)c1CCO

>  <inchikey>  (25) 
DJBJHPDVWKRAJB-UHFFFAOYSA-N

>  <alias>  (25) 
Z0693a

$$$$
Z0701a
     RDKit          3D

 11 12  0  0  0  0  0  0  0  0999 V2000
   -3.4950    5.2530  -16.0010 N   0  0  0  0  0  0  0  0  0  0  0  0
   -4.3700    5.1760  -16.7390 C   0  0  0  0  0  0  0  0  0  0  0  0
   -5.5090    5.0460  -17.6290 C   0  0  0  0  0  0  0  0  0  0  0  0
   -6.8660    4.7610  -17.3090 C   0  0  0  0  0  0  0  0  0  0  0  0
   -7.5160    4.6360  -18.5480 C   0  0  0  0  0  0  0  0  0  0  0  0
   -6.5710    4.8560  -19.5010 N   0  0  0  0  0  0  0  0  0  0  0  0
   -5.3410    5.1130  -18.9540 N   0  0  0  0  0  0  0  0  0  0  0  0
   -7.5950    4.5450  -16.1450 C   0  0  0  0  0  0  0  0  0  0  0  0
   -8.9330    4.1970  -16.2330 C   0  0  0  0  0  0  0  0  0  0  0  0
   -9.5590    4.0770  -17.4650 C   0  0  0  0  0  0  0  0  0  0  0  0
   -8.8600    4.3000  -18.6380 C   0  0  0  0  0  0  0  0  0  0  0  0
  2  1  3  0
  3  2  1  0
  4  3  1  0
  5  4  2  0
  6  5  1  0
  7  6  1  0
  7  3  2  0
  8  4  1  0
  9  8  2  0
 10  9  1  0
 11 10  2  0
 11  5  1  0
M  END
>  <smiles>  (26) 
N#Cc1n[nH]c2ccccc12

>  <inchikey>  (26) 
REHRQXVEAXFIML-UHFFFAOYSA-N

>  <alias>  (26) 
Z0701a

$$$$
Z0709a
     RDKit          3D

 14 15  0  0  0  0  0  0  0  0999 V2000
   -5.0290    7.7250  -13.8340 O   0  0  0  0  0  0  0  0  0  0  0  0
   -4.7430    7.4130  -14.9760 C   0  0  0  0  0  0  0  0  0  0  0  0
   -4.9210    8.2170  -16.0060 O   0  0  0  0  0  0  0  0  0  0  0  0
   -4.1480    6.0630  -15.3090 C   0  0  0  0  0  0  0  0  0  0  0  0
   -4.6900    5.4970  -16.5270 N   0  0  0  0  0  0  0  0  0  0  0  0
   -3.8860    5.2530  -17.6110 N   0  0  0  0  0  0  0  0  0  0  0  0
   -4.6860    4.8620  -18.5800 C   0  0  0  0  0  0  0  0  0  0  0  0
   -6.0340    4.8300  -18.1510 C   0  0  0  0  0  0  0  0  0  0  0  0
   -5.9870    5.2360  -16.8170 C   0  0  0  0  0  0  0  0  0  0  0  0
   -7.0370    5.3160  -15.9980 N   0  0  0  0  0  0  0  0  0  0  0  0
   -8.2150    4.9620  -16.5530 C   0  0  0  0  0  0  0  0  0  0  0  0
   -7.2690    4.4830  -18.6790 C   0  0  0  0  0  0  0  0  0  0  0  0
   -8.3980    4.5420  -17.8760 C   0  0  0  0  0  0  0  0  0  0  0  0
   -9.7560    4.1590  -18.4060 C   0  0  0  0  0  0  0  0  0  0  0  0
  2  1  2  0
  3  2  1  0
  4  2  1  0
  5  4  1  0
  6  5  1  0
  7  6  2  0
  8  7  1  0
  9  8  2  0
  9  5  1  0
 10  9  1  0
 11 10  2  0
 12  8  1  0
 13 12  2  0
 13 11  1  0
 14 13  1  0
M  END
>  <smiles>  (27) 
Cc1cnc2c(cnn2CC(=O)O)c1

>  <inchikey>  (27) 
KICZOAAIQKXMFG-UHFFFAOYSA-N

>  <alias>  (27) 
Z0709a

$$$$
Z0719a
     RDKit          3D

 10 10  0  0  0  0  0  0  0  0999 V2000
   -6.8840    1.8240  -13.6620 O   0  0  0  0  0  0  0  0  0  0  0  0
   -5.9580    2.6160  -13.8320 C   0  0  0  0  0  0  0  0  0  0  0  0
   -4.6280    2.4400  -13.1550 C   0  0  0  0  0  0  0  0  0  0  0  0
   -6.0740    3.6760  -14.6430 N   0  0  0  0  0  0  0  0  0  0  0  0
   -7.3490    4.3400  -14.8410 C   0  0  0  0  0  0  0  0  0  0  0  0
   -7.8410    4.3230  -16.3040 C   0  0  0  0  0  0  0  0  0  0  0  0
   -7.1510    4.8610  -17.3300 N   0  0  0  0  0  0  0  0  0  0  0  0
   -7.9690    4.8520  -18.4230 C   0  0  0  0  0  0  0  0  0  0  0  0
   -9.1340    4.2990  -18.0220 C   0  0  0  0  0  0  0  0  0  0  0  0
   -9.0590    3.9510  -16.6920 N   0  0  0  0  0  0  0  0  0  0  0  0
  2  1  2  0
  3  2  1  0
  4  2  1  0
  5  4  1  0
  6  5  1  0
  7  6  2  0
  8  7  1  0
  9  8  2  0
 10  9  1  0
 10  6  1  0
M  END
>  <smiles>  (28) 
CC(=O)NCc1ncc[nH]1

>  <inchikey>  (28) 
SXKAQLCLHGQXHB-UHFFFAOYSA-N

>  <alias>  (28) 
Z0719a

$$$$
Z0727a
     RDKit          3D

 12 13  0  0  0  0  0  0  0  0999 V2000
   -3.1970    5.0240  -15.3030 C   0  0  0  0  0  0  0  0  0  0  0  0
   -4.6070    5.2200  -15.5700 N   0  0  0  0  0  0  0  0  0  0  0  0
   -5.1500    5.1080  -16.8010 C   0  0  0  0  0  0  0  0  0  0  0  0
   -6.5610    4.8380  -16.9390 C   0  0  0  0  0  0  0  0  0  0  0  0
   -7.0780    4.7340  -18.2600 C   0  0  0  0  0  0  0  0  0  0  0  0
   -6.1930    4.8980  -19.3470 C   0  0  0  0  0  0  0  0  0  0  0  0
   -4.8830    5.1530  -19.1030 C   0  0  0  0  0  0  0  0  0  0  0  0
   -4.3570    5.2580  -17.8720 N   0  0  0  0  0  0  0  0  0  0  0  0
   -7.4620    4.6670  -15.8580 C   0  0  0  0  0  0  0  0  0  0  0  0
   -8.7860    4.4200  -16.0760 C   0  0  0  0  0  0  0  0  0  0  0  0
   -9.2830    4.3250  -17.3650 C   0  0  0  0  0  0  0  0  0  0  0  0
   -8.4570    4.4730  -18.4380 C   0  0  0  0  0  0  0  0  0  0  0  0
  2  1  1  0
  3  2  1  0
  4  3  2  0
  5  4  1  0
  6  5  2  0
  7  6  1  0
  8  7  2  0
  8  3  1  0
  9  4  1  0
 10  9  2  0
 11 10  1  0
 12 11  2  0
 12  5  1  0
M  END
>  <smiles>  (29) 
CNc1nccc2ccccc12

>  <inchikey>  (29) 
BILUZSWZYDFPMN-UHFFFAOYSA-N

>  <alias>  (29) 
Z0727a

$$$$
Z0772a
     RDKit          3D

 13 14  0  0  0  0  0  0  0  0999 V2000
   -6.2820    3.8240  -12.5210 O   0  0  0  0  0  0  0  0  0  0  0  0
   -7.4830    4.5530  -12.8090 S   0  0  1  0  0  0  0  0  0  0  0  0
   -8.7420    3.9410  -12.4980 O   0  0  0  0  0  0  0  0  0  0  0  0
   -7.4140    5.9370  -12.0000 N   0  0  0  0  0  0  0  0  0  0  0  0
   -7.4820    4.9130  -14.5390 C   0  0  0  0  0  0  0  0  0  0  0  0
   -8.5960    4.5740  -15.2910 C   0  0  0  0  0  0  0  0  0  0  0  0
   -8.4890    4.6050  -16.6720 C   0  0  0  0  0  0  0  0  0  0  0  0
   -9.6280    4.0600  -17.8610 S   0  0  0  0  0  0  0  0  0  0  0  0
   -8.4510    4.3970  -19.0870 C   0  0  0  0  0  0  0  0  0  0  0  0
   -7.3220    4.8820  -18.6990 N   0  0  0  0  0  0  0  0  0  0  0  0
   -7.3120    5.0110  -17.3090 C   0  0  0  0  0  0  0  0  0  0  0  0
   -6.2320    5.4230  -16.5290 C   0  0  0  0  0  0  0  0  0  0  0  0
   -6.3150    5.3690  -15.1460 C   0  0  0  0  0  0  0  0  0  0  0  0
  2  1  2  0
  3  2  2  0
  2  4  1  1
  5  2  1  0
  6  5  2  0
  7  6  1  0
  8  7  1  0
  9  8  1  0
 10  9  2  0
 11 10  1  0
 11  7  2  0
 12 11  1  0
 13 12  2  0
 13  5  1  0
M  END
>  <smiles>  (30) 
NS(=O)(=O)c1ccc2ncsc2c1

>  <inchikey>  (30) 
KRRLILAOGRCMFH-UHFFFAOYSA-N

>  <alias>  (30) 
Z0772a

$$$$
Z0773b
     RDKit          3D

 14 15  0  0  0  0  0  0  0  0999 V2000
  -23.1360    3.3800    2.7760 O   0  0  0  0  0  0  0  0  0  0  0  0
  -23.2960    3.5030    1.3550 S   0  0  1  0  0  0  0  0  0  0  0  0
  -23.9620    2.4370    0.6520 O   0  0  0  0  0  0  0  0  0  0  0  0
  -24.1380    4.9970    1.0150 C   0  0  0  0  0  0  0  0  0  0  0  0
  -21.6830    3.6830    0.6400 C   0  0  0  0  0  0  0  0  0  0  0  0
  -21.1610    4.9710    0.3410 C   0  0  0  0  0  0  0  0  0  0  0  0
  -21.9410    6.0750    0.5340 N   0  0  0  0  0  0  0  0  0  0  0  0
  -21.4030    7.2490    0.2690 C   0  0  0  0  0  0  0  0  0  0  0  0
  -20.1080    7.4300   -0.1790 C   0  0  0  0  0  0  0  0  0  0  0  0
  -19.3240    6.3370   -0.3870 C   0  0  0  0  0  0  0  0  0  0  0  0
  -19.8290    5.0500   -0.1310 C   0  0  0  0  0  0  0  0  0  0  0  0
  -19.0720    3.8640   -0.2770 C   0  0  0  0  0  0  0  0  0  0  0  0
  -19.6160    2.6510    0.0290 C   0  0  0  0  0  0  0  0  0  0  0  0
  -20.9270    2.5560    0.4660 C   0  0  0  0  0  0  0  0  0  0  0  0
  2  1  2  0
  3  2  2  0
  2  4  1  1
  5  2  1  0
  6  5  2  0
  7  6  1  0
  8  7  2  0
  9  8  1  0
 10  9  2  0
 11  6  1  0
 11 10  1  0
 12 11  2  0
 13 12  1  0
 14 13  2  0
 14  5  1  0
M  END
>  <smiles>  (31) 
CS(=O)(=O)c1cccc2cccnc12

>  <inchikey>  (31) 
RPUNNHCLJDHINC-UHFFFAOYSA-N

>  <alias>  (31) 
Z0773b

$$$$
Z0773a
     RDKit          3D

 14 15  0  0  0  0  0  0  0  0999 V2000
   -5.4120    5.2740  -14.5790 O   0  0  0  0  0  0  0  0  0  0  0  0
   -4.8410    6.1150  -15.5940 S   0  0  1  0  0  0  0  0  0  0  0  0
   -5.0520    7.5320  -15.4910 O   0  0  0  0  0  0  0  0  0  0  0  0
   -3.1120    5.8180  -15.6410 C   0  0  0  0  0  0  0  0  0  0  0  0
   -5.4490    5.5750  -17.1750 C   0  0  0  0  0  0  0  0  0  0  0  0
   -6.7820    5.1140  -17.3820 C   0  0  0  0  0  0  0  0  0  0  0  0
   -7.6720    5.1320  -16.3470 N   0  0  0  0  0  0  0  0  0  0  0  0
   -8.8840    4.6610  -16.5780 C   0  0  0  0  0  0  0  0  0  0  0  0
   -9.3080    4.1620  -17.7940 C   0  0  0  0  0  0  0  0  0  0  0  0
   -8.4360    4.1460  -18.8380 C   0  0  0  0  0  0  0  0  0  0  0  0
   -7.1210    4.6310  -18.6680 C   0  0  0  0  0  0  0  0  0  0  0  0
   -6.1430    4.6390  -19.6900 C   0  0  0  0  0  0  0  0  0  0  0  0
   -4.8890    5.1120  -19.4500 C   0  0  0  0  0  0  0  0  0  0  0  0
   -4.5380    5.5810  -18.1960 C   0  0  0  0  0  0  0  0  0  0  0  0
  2  1  2  0
  3  2  2  0
  2  4  1  6
  5  2  1  0
  6  5  2  0
  7  6  1  0
  8  7  2  0
  9  8  1  0
 10  9  2  0
 11 10  1  0
 11  6  1  0
 12 11  2  0
 13 12  1  0
 14 13  2  0
 14  5  1  0
M  END
>  <smiles>  (32) 
CS(=O)(=O)c1cccc2cccnc12

>  <inchikey>  (32) 
RPUNNHCLJDHINC-UHFFFAOYSA-N

>  <alias>  (32) 
Z0773a

$$$$
Z0788b
     RDKit          3D

 15 16  0  0  0  0  0  0  0  0999 V2000
   -6.1400    9.7380  -24.2650 O   0  0  0  0  0  0  0  0  0  0  0  0
   -6.1520    9.1740  -25.5840 S   0  0  1  0  0  0  0  0  0  0  0  0
   -5.1390    9.5890  -26.5090 O   0  0  0  0  0  0  0  0  0  0  0  0
   -6.1020    7.4280  -25.4400 C   0  0  0  0  0  0  0  0  0  0  0  0
   -7.7270    9.5820  -26.3080 C   0  0  0  0  0  0  0  0  0  0  0  0
   -8.6570    8.7180  -26.8240 N   0  0  0  0  0  0  0  0  0  0  0  0
   -9.7840    9.4560  -27.1000 C   0  0  0  0  0  0  0  0  0  0  0  0
   -9.4800   10.7330  -26.7810 C   0  0  0  0  0  0  0  0  0  0  0  0
   -8.1940   10.8180  -26.2960 N   0  0  0  0  0  0  0  0  0  0  0  0
   -8.4780    7.2950  -27.1050 C   0  0  0  0  0  0  0  0  0  0  0  0
   -8.0510    6.9110  -28.4910 C   0  0  0  0  0  0  0  0  0  0  0  0
   -6.7040    6.8250  -28.7970 N   0  0  0  0  0  0  0  0  0  0  0  0
   -6.5600    6.3390  -29.9920 C   0  0  0  0  0  0  0  0  0  0  0  0
   -8.0070    5.9870  -30.8270 S   0  0  0  0  0  0  0  0  0  0  0  0
   -8.8880    6.5160  -29.4770 C   0  0  0  0  0  0  0  0  0  0  0  0
  2  1  2  0
  3  2  2  0
  2  4  1  1
  5  2  1  0
  6  5  1  0
  7  6  1  0
  8  7  2  0
  9  8  1  0
  9  5  2  0
 10  6  1  0
 11 10  1  0
 12 11  1  0
 13 12  2  0
 14 13  1  0
 15 14  1  0
 15 11  2  0
M  END
>  <smiles>  (33) 
CS(=O)(=O)c1nccn1Cc1cscn1

>  <inchikey>  (33) 
DWPGGNJRLYKHCD-UHFFFAOYSA-N

>  <alias>  (33) 
Z0788b

$$$$
Z0788a
     RDKit          3D

 15 16  0  0  0  0  0  0  0  0999 V2000
   -3.9800    4.3290  -16.4180 O   0  0  0  0  0  0  0  0  0  0  0  0
   -3.2600    5.1500  -17.3500 S   0  0  1  0  0  0  0  0  0  0  0  0
   -2.1020    5.8550  -16.8800 O   0  0  0  0  0  0  0  0  0  0  0  0
   -2.7940    4.1700  -18.7280 C   0  0  0  0  0  0  0  0  0  0  0  0
   -4.3960    6.3680  -17.9730 C   0  0  0  0  0  0  0  0  0  0  0  0
   -5.6970    6.2100  -18.3750 N   0  0  0  0  0  0  0  0  0  0  0  0
   -6.1090    7.4250  -18.8710 C   0  0  0  0  0  0  0  0  0  0  0  0
   -5.0540    8.2600  -18.7380 C   0  0  0  0  0  0  0  0  0  0  0  0
   -3.9850    7.6060  -18.1730 N   0  0  0  0  0  0  0  0  0  0  0  0
   -6.2860    4.9200  -18.7160 C   0  0  0  0  0  0  0  0  0  0  0  0
   -7.6280    4.7210  -18.0840 C   0  0  0  0  0  0  0  0  0  0  0  0
   -7.7680    4.6520  -16.7070 N   0  0  0  0  0  0  0  0  0  0  0  0
   -9.0010    4.3690  -16.4130 C   0  0  0  0  0  0  0  0  0  0  0  0
  -10.0620    4.2030  -17.7430 S   0  0  0  0  0  0  0  0  0  0  0  0
   -8.7620    4.5130  -18.7870 C   0  0  0  0  0  0  0  0  0  0  0  0
  2  1  2  0
  3  2  2  0
  2  4  1  6
  5  2  1  0
  6  5  1  0
  7  6  1  0
  8  7  2  0
  9  8  1  0
  9  5  2  0
 10  6  1  0
 11 10  1  0
 12 11  1  0
 13 12  2  0
 14 13  1  0
 15 14  1  0
 15 11  2  0
M  END
>  <smiles>  (34) 
CS(=O)(=O)c1nccn1Cc1cscn1

>  <inchikey>  (34) 
DWPGGNJRLYKHCD-UHFFFAOYSA-N

>  <alias>  (34) 
Z0788a

$$$$
Z0800a
     RDKit          3D

 11 12  0  0  0  0  0  0  0  0999 V2000
   -3.1450    5.0080  -19.0070 O   0  0  0  0  0  0  0  0  0  0  0  0
   -3.7230    4.9480  -17.9030 C   0  0  0  0  0  0  0  0  0  0  0  0
   -3.0890    4.6840  -16.7640 N   0  0  0  0  0  0  0  0  0  0  0  0
   -5.1880    5.2050  -17.7970 C   0  0  0  0  0  0  0  0  0  0  0  0
   -6.0670    4.8530  -18.8190 N   0  0  0  0  0  0  0  0  0  0  0  0
   -7.2390    4.7110  -18.2190 C   0  0  0  0  0  0  0  0  0  0  0  0
   -7.1590    4.9560  -16.8950 N   0  0  0  0  0  0  0  0  0  0  0  0
   -5.8680    5.2640  -16.6170 C   0  0  0  0  0  0  0  0  0  0  0  0
   -8.5130    4.3300  -18.8300 C   0  0  2  0  0  0  0  0  0  0  0  0
   -9.7840    4.9900  -18.3760 C   0  0  0  0  0  0  0  0  0  0  0  0
   -9.5360    3.5760  -18.0300 C   0  0  0  0  0  0  0  0  0  0  0  0
  2  1  2  0
  3  2  1  0
  4  2  1  0
  5  4  1  0
  6  5  2  0
  7  6  1  0
  8  7  1  0
  8  4  2  0
  9  6  1  1
 10  9  1  0
 11 10  1  0
 11  9  1  0
M  END
>  <smiles>  (35) 
NC(=O)c1c[nH]c(C2CC2)n1

>  <inchikey>  (35) 
ZIJDZTAYMWKMQH-UHFFFAOYSA-N

>  <alias>  (35) 
Z0800a

$$$$
Z0819a
     RDKit          3D

 11 11  0  0  0  0  0  0  0  0999 V2000
  -10.4690    5.9040  -17.7160 O   0  0  0  0  0  0  0  0  0  0  0  0
   -9.2510    5.1610  -17.7990 S   0  0  2  0  0  0  0  0  0  0  0  0
   -9.2710    3.8720  -18.4170 O   0  0  0  0  0  0  0  0  0  0  0  0
   -8.6050    4.9860  -16.1820 C   0  0  0  0  0  0  0  0  0  0  0  0
   -8.2040    6.0690  -18.6390 N   0  0  0  0  0  0  0  0  0  0  0  0
   -6.7440    6.0560  -18.4340 C   0  0  1  0  0  0  0  0  0  0  0  0
   -6.1470    4.7780  -19.0140 C   0  0  0  0  0  0  0  0  0  0  0  0
   -4.6290    4.8080  -18.9370 C   0  0  0  0  0  0  0  0  0  0  0  0
   -4.0970    6.0010  -19.6250 N   0  0  0  0  0  0  0  0  0  0  0  0
   -4.6060    7.2410  -19.0070 C   0  0  0  0  0  0  0  0  0  0  0  0
   -6.1230    7.2920  -19.0800 C   0  0  0  0  0  0  0  0  0  0  0  0
  2  1  2  0
  3  2  2  0
  2  4  1  1
  5  2  1  0
  6  5  1  6
  7  6  1  0
  8  7  1  0
  9  8  1  0
 10  9  1  0
 11  6  1  0
 11 10  1  0
M  END
>  <smiles>  (36) 
CS(=O)(=O)NC1CCNCC1

>  <inchikey>  (36) 
NAEICDPYHCEZMG-UHFFFAOYSA-N

>  <alias>  (36) 
Z0819a

$$$$
Z0827a
     RDKit          3D

 15 17  0  0  0  0  0  0  0  0999 V2000
   -5.6650    5.9410  -16.3950 C   0  0  0  0  0  0  0  0  0  0  0  0
   -5.1380    5.8180  -17.6380 C   0  0  0  0  0  0  0  0  0  0  0  0
   -6.0550    5.2530  -18.4840 N   0  0  0  0  0  0  0  0  0  0  0  0
   -7.0010    5.4120  -16.4560 C   0  0  0  0  0  0  0  0  0  0  0  0
   -7.2100    4.9870  -17.7860 C   0  0  0  0  0  0  0  0  0  0  0  0
   -8.3850    4.3690  -18.1920 C   0  0  0  0  0  0  0  0  0  0  0  0
   -9.3610    4.1270  -17.2470 C   0  0  0  0  0  0  0  0  0  0  0  0
   -9.1800    4.5200  -15.9320 C   0  0  0  0  0  0  0  0  0  0  0  0
   -8.0320    5.1860  -15.5170 C   0  0  0  0  0  0  0  0  0  0  0  0
   -7.9580    5.7230  -14.0920 C   0  0  1  0  0  0  0  0  0  0  0  0
   -8.2460    4.6490  -13.0310 C   0  0  0  0  0  0  0  0  0  0  0  0
   -7.9160    5.1390  -11.6210 C   0  0  0  0  0  0  0  0  0  0  0  0
   -6.7290    6.5650  -13.7140 C   0  0  0  0  0  0  0  0  0  0  0  0
   -5.8220    5.8110  -12.8380 N   0  0  0  0  0  0  0  0  0  0  0  0
   -6.4360    5.5190  -11.5180 C   0  0  0  0  0  0  0  0  0  0  0  0
  2  1  2  0
  3  2  1  0
  4  1  1  0
  5  4  2  0
  5  3  1  0
  6  5  1  0
  7  6  2  0
  8  7  1  0
  9  4  1  0
  9  8  2  0
 10  9  1  6
 11 10  1  0
 12 11  1  0
 13 10  1  0
 14 13  1  0
 15 12  1  0
 15 14  1  0
M  END
>  <smiles>  (37) 
c1cc([C@H]2CCCNC2)c2cc[nH]c2c1

>  <inchikey>  (37) 
JWMGZQMVMZBMFM-JTQLQIEISA-N

>  <alias>  (37) 
Z0827a

$$$$
Z0846b
     RDKit          3D

 18 20  0  0  0  0  0  0  0  0999 V2000
  -13.1790    9.9540  -12.1710 O   0  0  0  0  0  0  0  0  0  0  0  0
  -11.9900    9.3010  -12.1620 C   0  0  0  0  0  0  0  0  0  0  0  0
  -11.1360    9.4140  -11.0590 C   0  0  0  0  0  0  0  0  0  0  0  0
   -9.8960    8.7790  -11.1170 C   0  0  0  0  0  0  0  0  0  0  0  0
   -9.5210    8.0410  -12.2310 C   0  0  0  0  0  0  0  0  0  0  0  0
  -10.3830    7.9170  -13.3010 C   0  0  0  0  0  0  0  0  0  0  0  0
  -11.6150    8.5470  -13.2730 C   0  0  0  0  0  0  0  0  0  0  0  0
  -11.5600   10.2080   -9.8410 C   0  0  0  0  0  0  0  0  0  0  0  0
  -11.5650   11.6500  -10.0610 N   0  0  0  0  0  0  0  0  0  0  0  0
  -12.6150   12.4400   -9.8010 C   0  0  0  0  0  0  0  0  0  0  0  0
  -12.4780   13.7860   -9.7440 N   0  0  0  0  0  0  0  0  0  0  0  0
  -13.7360   14.3140   -9.5180 C   0  0  0  0  0  0  0  0  0  0  0  0
  -14.5970   13.2200   -9.4580 C   0  0  0  0  0  0  0  0  0  0  0  0
  -13.8690   12.0400   -9.6260 N   0  0  0  0  0  0  0  0  0  0  0  0
  -14.1920   15.6160   -9.3670 C   0  0  0  0  0  0  0  0  0  0  0  0
  -15.5510   15.8140   -9.1580 C   0  0  0  0  0  0  0  0  0  0  0  0
  -16.4290   14.7310   -9.1230 C   0  0  0  0  0  0  0  0  0  0  0  0
  -15.9630   13.4290   -9.2730 C   0  0  0  0  0  0  0  0  0  0  0  0
  2  1  1  0
  3  2  2  0
  4  3  1  0
  5  4  2  0
  6  5  1  0
  7  2  1  0
  7  6  2  0
  8  3  1  0
  9  8  1  0
 10  9  1  0
 11 10  2  0
 12 11  1  0
 13 12  2  0
 14 13  1  0
 14 10  1  0
 15 12  1  0
 16 15  2  0
 17 16  1  0
 18 17  2  0
 18 13  1  0
M  END
>  <smiles>  (38) 
Oc1ccccc1CNc1nc2ccccc2[nH]1

>  <inchikey>  (38) 
OCDMDLRMBVJKCG-UHFFFAOYSA-N

>  <alias>  (38) 
Z0846b

$$$$
Z0846a
     RDKit          3D

 18 20  0  0  0  0  0  0  0  0999 V2000
   -6.1280    7.4260  -24.3630 O   0  0  0  0  0  0  0  0  0  0  0  0
   -5.4650    7.8680  -23.2660 C   0  0  0  0  0  0  0  0  0  0  0  0
   -5.1530    9.2250  -23.1380 C   0  0  0  0  0  0  0  0  0  0  0  0
   -4.4440    9.6350  -22.0120 C   0  0  0  0  0  0  0  0  0  0  0  0
   -4.0640    8.7270  -21.0390 C   0  0  0  0  0  0  0  0  0  0  0  0
   -4.3880    7.3990  -21.1710 C   0  0  0  0  0  0  0  0  0  0  0  0
   -5.0870    6.9630  -22.2810 C   0  0  0  0  0  0  0  0  0  0  0  0
   -5.5980   10.2140  -24.1900 C   0  0  0  0  0  0  0  0  0  0  0  0
   -5.5970    9.6660  -25.5390 N   0  0  0  0  0  0  0  0  0  0  0  0
   -6.7040    9.2490  -26.1650 C   0  0  0  0  0  0  0  0  0  0  0  0
   -6.7130    8.1200  -26.9090 N   0  0  0  0  0  0  0  0  0  0  0  0
   -8.0120    7.9300  -27.3410 C   0  0  0  0  0  0  0  0  0  0  0  0
   -8.7410    8.9990  -26.8230 C   0  0  0  0  0  0  0  0  0  0  0  0
   -7.8930    9.8280  -26.0890 N   0  0  0  0  0  0  0  0  0  0  0  0
   -8.6140    6.9250  -28.0840 C   0  0  0  0  0  0  0  0  0  0  0  0
   -9.9840    7.0010  -28.2920 C   0  0  0  0  0  0  0  0  0  0  0  0
  -10.7270    8.0510  -27.7650 C   0  0  0  0  0  0  0  0  0  0  0  0
  -10.1160    9.0640  -27.0380 C   0  0  0  0  0  0  0  0  0  0  0  0
  2  1  1  0
  3  2  2  0
  4  3  1  0
  5  4  2  0
  6  5  1  0
  7  2  1  0
  7  6  2  0
  8  3  1  0
  9  8  1  0
 10  9  1  0
 11 10  2  0
 12 11  1  0
 13 12  2  0
 14 13  1  0
 14 10  1  0
 15 12  1  0
 16 15  2  0
 17 16  1  0
 18 17  2  0
 18 13  1  0
M  END
>  <smiles>  (39) 
Oc1ccccc1CNc1nc2ccccc2[nH]1

>  <inchikey>  (39) 
OCDMDLRMBVJKCG-UHFFFAOYSA-N

>  <alias>  (39) 
Z0846a

$$$$
Z0852a
     RDKit          3D

 18 19  0  0  0  0  0  0  0  0999 V2000
   -3.6020    4.4530  -18.4130 F   0  0  0  0  0  0  0  0  0  0  0  0
   -3.4990    4.7480  -19.7320 C   0  0  0  0  0  0  0  0  0  0  0  0
   -2.2500    4.9090  -20.2630 C   0  0  0  0  0  0  0  0  0  0  0  0
   -2.0770    5.2240  -21.5490 N   0  0  0  0  0  0  0  0  0  0  0  0
   -3.1740    5.3830  -22.2990 C   0  0  0  0  0  0  0  0  0  0  0  0
   -4.4670    5.2290  -21.8280 C   0  0  0  0  0  0  0  0  0  0  0  0
   -4.6470    4.8890  -20.4910 C   0  0  0  0  0  0  0  0  0  0  0  0
   -6.0390    4.6530  -19.9860 C   0  0  0  0  0  0  0  0  0  0  0  0
   -6.8080    3.9110  -20.5890 O   0  0  0  0  0  0  0  0  0  0  0  0
   -6.3210    5.2280  -18.7960 N   0  0  0  0  0  0  0  0  0  0  0  0
   -7.4250    4.9330  -17.9290 C   0  0  0  0  0  0  0  0  0  0  0  0
   -7.1970    4.9580  -16.5500 C   0  0  0  0  0  0  0  0  0  0  0  0
   -5.8460    5.2990  -15.9740 C   0  0  0  0  0  0  0  0  0  0  0  0
   -8.7040    4.6350  -18.4360 C   0  0  0  0  0  0  0  0  0  0  0  0
   -8.8890    4.3200  -19.7400 O   0  0  0  0  0  0  0  0  0  0  0  0
   -9.7380    4.3510  -17.5600 C   0  0  0  0  0  0  0  0  0  0  0  0
   -9.5100    4.3590  -16.2000 C   0  0  0  0  0  0  0  0  0  0  0  0
   -8.2610    4.6650  -15.7030 C   0  0  0  0  0  0  0  0  0  0  0  0
  2  1  1  0
  3  2  2  0
  4  3  1  0
  5  4  2  0
  6  5  1  0
  7  6  2  0
  7  2  1  0
  8  7  1  0
  9  8  2  0
 10  8  1  0
 11 10  1  0
 12 11  2  0
 13 12  1  0
 14 11  1  0
 15 14  1  0
 16 14  2  0
 17 16  1  0
 18 12  1  0
 18 17  2  0
M  END
>  <smiles>  (40) 
Cc1cccc(O)c1NC(=O)c1ccncc1F

>  <inchikey>  (40) 
PDGRBWXZTBUJKY-UHFFFAOYSA-N

>  <alias>  (40) 
Z0852a

$$$$
Z0875a
     RDKit          3D

 15 16  0  0  0  0  0  0  0  0999 V2000
   -6.5890    4.1440  -19.8360 Cl  0  0  0  0  0  0  0  0  0  0  0  0
   -7.6930    4.5730  -18.5710 C   0  0  0  0  0  0  0  0  0  0  0  0
   -8.9920    4.1010  -18.6020 C   0  0  0  0  0  0  0  0  0  0  0  0
   -9.8030    4.1610  -17.5480 N   0  0  0  0  0  0  0  0  0  0  0  0
   -9.2670    4.6950  -16.4530 C   0  0  0  0  0  0  0  0  0  0  0  0
   -8.0370    5.1890  -16.2910 N   0  0  0  0  0  0  0  0  0  0  0  0
   -7.2580    5.1310  -17.3780 C   0  0  0  0  0  0  0  0  0  0  0  0
   -6.0280    5.7160  -17.2890 N   0  0  0  0  0  0  0  0  0  0  0  0
   -5.6200    6.8120  -18.1600 C   0  0  0  0  0  0  0  0  0  0  0  0
   -5.0710    5.3110  -16.2690 C   0  0  0  0  0  0  0  0  0  0  0  0
   -5.1360    6.1650  -15.0100 C   0  0  2  0  0  0  0  0  0  0  0  0
   -3.8410    6.9670  -14.8060 C   0  0  0  0  0  0  0  0  0  0  0  0
   -3.1930    6.4360  -13.6560 O   0  0  0  0  0  0  0  0  0  0  0  0
   -4.2340    5.9940  -12.8020 C   0  0  0  0  0  0  0  0  0  0  0  0
   -5.2290    5.3360  -13.7190 C   0  0  0  0  0  0  0  0  0  0  0  0
  2  1  1  0
  3  2  2  0
  4  3  1  0
  5  4  2  0
  6  5  1  0
  7  2  1  0
  7  6  2  0
  8  7  1  0
  9  8  1  0
 10  8  1  0
 11 10  1  6
 12 11  1  0
 13 12  1  0
 14 13  1  0
 15 14  1  0
 15 11  1  0
M  END
>  <smiles>  (41) 
CN(C[C@H]1CCOC1)c1ncncc1Cl

>  <inchikey>  (41) 
OYKZBUOZAYBEHE-MRVPVSSYSA-N

>  <alias>  (41) 
Z0875a

$$$$
Z0884a
     RDKit          3D

 14 14  0  0  0  0  0  0  0  0999 V2000
   -3.5470    6.6240  -14.9470 O   0  0  0  0  0  0  0  0  0  0  0  0
   -4.3510    6.4990  -15.8750 C   0  0  0  0  0  0  0  0  0  0  0  0
   -5.0900    7.4960  -16.3400 N   0  0  0  0  0  0  0  0  0  0  0  0
   -4.4980    5.1360  -16.5500 C   0  0  2  0  0  0  0  0  0  0  0  0
   -3.1700    4.6890  -17.1190 C   0  0  0  0  0  0  0  0  0  0  0  0
   -5.4000    5.2330  -17.6530 O   0  0  0  0  0  0  0  0  0  0  0  0
   -6.6960    4.8050  -17.4890 C   0  0  0  0  0  0  0  0  0  0  0  0
   -7.3500    4.4310  -18.6710 C   0  0  0  0  0  0  0  0  0  0  0  0
   -6.6190    4.3710  -19.9110 C   0  0  0  0  0  0  0  0  0  0  0  0
   -6.0720    4.3130  -20.9140 N   0  0  0  0  0  0  0  0  0  0  0  0
   -8.7020    4.0910  -18.6270 C   0  0  0  0  0  0  0  0  0  0  0  0
   -9.3750    4.0810  -17.4210 C   0  0  0  0  0  0  0  0  0  0  0  0
   -8.7190    4.4180  -16.2570 C   0  0  0  0  0  0  0  0  0  0  0  0
   -7.3850    4.7890  -16.2840 C   0  0  0  0  0  0  0  0  0  0  0  0
  2  1  2  0
  3  2  1  0
  4  2  1  0
  4  5  1  6
  6  4  1  0
  7  6  1  0
  8  7  2  0
  9  8  1  0
 10  9  3  0
 11  8  1  0
 12 11  2  0
 13 12  1  0
 14  7  1  0
 14 13  2  0
M  END
>  <smiles>  (42) 
C[C@H](Oc1ccccc1C#N)C(N)=O

>  <inchikey>  (42) 
DQKFGAITHBWHRW-ZETCQYMHSA-N

>  <alias>  (42) 
Z0884a

$$$$
Z0917a
     RDKit          3D

 16 17  0  0  0  0  0  0  0  0999 V2000
   -7.8880    7.1070  -13.6930 F   0  0  0  0  0  0  0  0  0  0  0  0
   -7.9490    5.8070  -13.8920 C   0  0  1  0  0  0  0  0  0  0  0  0
   -6.9330    5.3160  -13.2230 F   0  0  0  0  0  0  0  0  0  0  0  0
   -9.0400    5.3700  -13.3020 F   0  0  0  0  0  0  0  0  0  0  0  0
   -7.9140    5.4460  -15.3460 C   0  0  0  0  0  0  0  0  0  0  0  0
   -8.8520    4.7890  -16.0930 C   0  0  0  0  0  0  0  0  0  0  0  0
   -6.8480    5.7870  -16.1410 N   0  0  0  0  0  0  0  0  0  0  0  0
   -7.1400    5.3460  -17.3430 C   0  0  0  0  0  0  0  0  0  0  0  0
   -8.3550    4.7380  -17.3670 N   0  0  0  0  0  0  0  0  0  0  0  0
   -9.0520    4.1640  -18.5170 C   0  0  0  0  0  0  0  0  0  0  0  0
   -6.2480    5.4920  -18.5310 C   0  0  2  0  0  0  0  0  0  0  0  0
   -4.8200    5.0630  -18.1690 C   0  0  0  0  0  0  0  0  0  0  0  0
   -3.9330    5.1970  -19.3350 N   0  0  0  0  0  0  0  0  0  0  0  0
   -3.8660    6.5960  -19.8290 C   0  0  0  0  0  0  0  0  0  0  0  0
   -5.2490    7.1190  -20.2070 C   0  0  0  0  0  0  0  0  0  0  0  0
   -6.2300    6.9370  -19.0460 C   0  0  0  0  0  0  0  0  0  0  0  0
  2  1  1  6
  3  2  1  0
  4  2  1  0
  5  2  1  0
  6  5  2  0
  7  5  1  0
  8  7  2  0
  9  8  1  0
  9  6  1  0
 10  9  1  0
 11  8  1  1
 12 11  1  0
 13 12  1  0
 14 13  1  0
 15 14  1  0
 16 11  1  0
 16 15  1  0
M  END
>  <smiles>  (43) 
Cn1cc(C(F)(F)F)nc1[C@H]1CCCNC1

>  <inchikey>  (43) 
ZPUMPEAGLZCEBQ-ZETCQYMHSA-N

>  <alias>  (43) 
Z0917a

$$$$
Z0945a
     RDKit          3D

 14 15  0  0  0  0  0  0  0  0999 V2000
  -10.4370    4.4810  -18.4830 C   0  0  0  0  0  0  0  0  0  0  0  0
   -9.8540    3.8430  -17.3450 O   0  0  0  0  0  0  0  0  0  0  0  0
   -8.7080    4.3550  -16.8600 C   0  0  0  0  0  0  0  0  0  0  0  0
   -7.7460    4.6950  -17.7040 N   0  0  0  0  0  0  0  0  0  0  0  0
   -6.6210    5.1850  -17.1640 C   0  0  0  0  0  0  0  0  0  0  0  0
   -6.3990    5.3660  -15.8530 N   0  0  0  0  0  0  0  0  0  0  0  0
   -7.4050    4.9970  -15.0420 C   0  0  0  0  0  0  0  0  0  0  0  0
   -8.6080    4.4740  -15.4760 C   0  0  0  0  0  0  0  0  0  0  0  0
   -5.5980    5.4900  -18.0190 N   0  0  0  0  0  0  0  0  0  0  0  0
   -5.7560    5.4820  -19.4800 C   0  0  0  0  0  0  0  0  0  0  0  0
   -4.9260    6.5760  -20.1440 C   0  0  0  0  0  0  0  0  0  0  0  0
   -4.1700    7.3910  -19.1530 N   0  0  0  0  0  0  0  0  0  0  0  0
   -3.3770    6.5500  -18.2080 C   0  0  0  0  0  0  0  0  0  0  0  0
   -4.1850    5.3980  -17.6270 C   0  0  0  0  0  0  0  0  0  0  0  0
  2  1  1  0
  3  2  1  0
  4  3  2  0
  5  4  1  0
  6  5  2  0
  7  6  1  0
  8  3  1  0
  8  7  2  0
  9  5  1  0
 10  9  1  0
 11 10  1  0
 12 11  1  0
 13 12  1  0
 14  9  1  0
 14 13  1  0
M  END
>  <smiles>  (44) 
COc1ccnc(N2CCNCC2)n1

>  <inchikey>  (44) 
UWNRWWIRIZDKLH-UHFFFAOYSA-N

>  <alias>  (44) 
Z0945a

$$$$
Z0951a
     RDKit          3D

 12 13  0  0  0  0  0  0  0  0999 V2000
   -9.7210    6.9140  -13.4090 C   0  0  0  0  0  0  0  0  0  0  0  0
   -8.4850    6.3170  -12.9030 N   0  0  0  0  0  0  0  0  0  0  0  0
   -8.2710    4.9670  -13.4320 C   0  0  0  0  0  0  0  0  0  0  0  0
   -7.3860    5.0090  -14.6340 C   0  0  0  0  0  0  0  0  0  0  0  0
   -7.7810    4.6730  -15.9050 N   0  0  0  0  0  0  0  0  0  0  0  0
   -6.6980    4.9660  -16.7230 C   0  0  0  0  0  0  0  0  0  0  0  0
   -5.7000    5.4150  -15.9770 N   0  0  0  0  0  0  0  0  0  0  0  0
   -6.1480    5.4390  -14.6450 N   0  0  0  0  0  0  0  0  0  0  0  0
   -8.9740    4.1870  -16.3890 C   0  0  0  0  0  0  0  0  0  0  0  0
   -9.1160    4.0180  -17.7200 C   0  0  0  0  0  0  0  0  0  0  0  0
   -8.0430    4.3160  -18.5890 C   0  0  0  0  0  0  0  0  0  0  0  0
   -6.8540    4.7770  -18.1110 C   0  0  0  0  0  0  0  0  0  0  0  0
  2  1  1  0
  3  2  1  0
  4  3  1  0
  5  4  1  0
  6  5  1  0
  7  6  2  0
  8  7  1  0
  8  4  2  0
  9  5  1  0
 10  9  2  0
 11 10  1  0
 12 11  2  0
 12  6  1  0
M  END
>  <smiles>  (45) 
CNCc1nnc2ccccn12

>  <inchikey>  (45) 
UQXCTICEXNDHAR-UHFFFAOYSA-N

>  <alias>  (45) 
Z0951a

$$$$
Z0969a
     RDKit          3D

 10 11  0  0  0  0  0  0  0  0999 V2000
   -8.2240    5.0050  -11.5600 C   0  0  0  0  0  0  0  0  0  0  0  0
   -8.4170    4.9010  -10.0660 C   0  0  0  0  0  0  0  0  0  0  0  0
   -8.5660    3.7580   -9.3330 C   0  0  0  0  0  0  0  0  0  0  0  0
   -8.7320    4.1270   -8.0450 N   0  0  0  0  0  0  0  0  0  0  0  0
   -8.6940    5.4820   -7.8960 N   0  0  0  0  0  0  0  0  0  0  0  0
   -8.5010    5.9430   -9.1230 C   0  0  0  0  0  0  0  0  0  0  0  0
   -8.5730    2.3030   -9.6940 C   0  0  0  0  0  0  0  0  0  0  0  0
   -8.4650    1.4180   -8.5280 N   0  0  0  0  0  0  0  0  0  0  0  0
   -9.3520    1.8510   -7.4290 C   0  0  0  0  0  0  0  0  0  0  0  0
   -8.9470    3.2210   -6.9110 C   0  0  0  0  0  0  0  0  0  0  0  0
  2  1  1  0
  3  2  2  0
  4  3  1  0
  5  4  1  0
  6  2  1  0
  6  5  2  0
  7  3  1  0
  8  7  1  0
  9  8  1  0
 10  9  1  0
 10  4  1  0
M  END
>  <smiles>  (46) 
Cc1cnn2c1CNCC2

>  <inchikey>  (46) 
GHWWEPXDSAHILS-UHFFFAOYSA-N

>  <alias>  (46) 
Z0969a

$$$$
Z0990a
     RDKit          3D

 11 11  0  0  0  0  0  0  0  0999 V2000
   -6.6860    6.4440  -16.0780 O   0  0  0  0  0  0  0  0  0  0  0  0
   -7.0180    5.7570  -17.0280 C   0  0  0  0  0  0  0  0  0  0  0  0
   -8.1160    4.9490  -16.9560 N   0  0  0  0  0  0  0  0  0  0  0  0
   -8.9860    4.4940  -18.0410 C   0  0  0  0  0  0  0  0  0  0  0  0
   -8.5460    4.5370  -15.6250 C   0  0  0  0  0  0  0  0  0  0  0  0
   -6.3180    5.7870  -18.1930 N   0  0  0  0  0  0  0  0  0  0  0  0
   -6.2840    7.0450  -18.9520 C   0  0  0  0  0  0  0  0  0  0  0  0
   -4.8880    7.3690  -19.4450 C   0  0  0  0  0  0  0  0  0  0  0  0
   -4.3490    6.2320  -20.2020 N   0  0  0  0  0  0  0  0  0  0  0  0
   -4.2710    5.0300  -19.3580 C   0  0  0  0  0  0  0  0  0  0  0  0
   -5.6530    4.6540  -18.8540 C   0  0  0  0  0  0  0  0  0  0  0  0
  2  1  2  0
  3  2  1  0
  4  3  1  0
  5  3  1  0
  6  2  1  0
  7  6  1  0
  8  7  1  0
  9  8  1  0
 10  9  1  0
 11  6  1  0
 11 10  1  0
M  END
>  <smiles>  (47) 
CN(C)C(=O)N1CCNCC1

>  <inchikey>  (47) 
XMFYMWXCIWIHAC-UHFFFAOYSA-N

>  <alias>  (47) 
Z0990a

$$$$
Z1046b
     RDKit          3D

 16 16  0  0  0  0  0  0  0  0999 V2000
   -4.8480    9.0720  -21.0440 O   0  0  0  0  0  0  0  0  0  0  0  0
   -3.7160    8.6640  -21.2940 C   0  0  0  0  0  0  0  0  0  0  0  0
   -2.8880    9.2500  -22.4090 C   0  0  0  0  0  0  0  0  0  0  0  0
   -3.1260    7.6510  -20.6100 N   0  0  0  0  0  0  0  0  0  0  0  0
   -3.6790    6.8380  -19.5810 C   0  0  0  0  0  0  0  0  0  0  0  0
   -2.8240    6.3500  -18.6010 C   0  0  0  0  0  0  0  0  0  0  0  0
   -3.3080    5.4860  -17.6320 C   0  0  0  0  0  0  0  0  0  0  0  0
   -4.6340    5.0800  -17.6440 C   0  0  0  0  0  0  0  0  0  0  0  0
   -5.0220    6.4610  -19.5760 C   0  0  0  0  0  0  0  0  0  0  0  0
   -5.4940    5.5540  -18.6300 C   0  0  0  0  0  0  0  0  0  0  0  0
   -6.8010    5.0260  -18.8160 N   0  0  0  0  0  0  0  0  0  0  0  0
   -7.7760    4.7400  -17.9040 C   0  0  0  0  0  0  0  0  0  0  0  0
   -8.9040    4.3430  -18.1980 O   0  0  0  0  0  0  0  0  0  0  0  0
   -7.4450    4.9680  -16.4550 C   0  0  0  0  0  0  0  0  0  0  0  0
   -8.5750    4.3190  -15.9070 O   0  0  0  0  0  0  0  0  0  0  0  0
   -8.7580    4.5900  -14.5280 C   0  0  0  0  0  0  0  0  0  0  0  0
  2  1  2  0
  3  2  1  0
  4  2  1  0
  5  4  1  0
  6  5  2  0
  7  6  1  0
  8  7  2  0
  9  5  1  0
 10  8  1  0
 10  9  2  0
 11 10  1  0
 12 11  1  0
 13 12  2  0
 14 12  1  0
 15 14  1  0
 16 15  1  0
M  END
>  <smiles>  (48) 
COCC(=O)Nc1cccc(NC(C)=O)c1

>  <inchikey>  (48) 
ZDALGCTWWSVNDR-UHFFFAOYSA-N

>  <alias>  (48) 
Z1046b

$$$$
Z1098a
     RDKit          3D

 19 20  0  0  0  0  0  0  0  0999 V2000
   -5.6740    6.5870  -16.5850 F   0  0  0  0  0  0  0  0  0  0  0  0
   -5.7030    5.2690  -16.7810 C   0  0  1  0  0  0  0  0  0  0  0  0
   -4.8480    5.0350  -17.7880 F   0  0  0  0  0  0  0  0  0  0  0  0
   -5.1520    4.7060  -15.7060 F   0  0  0  0  0  0  0  0  0  0  0  0
   -7.0900    4.7570  -17.0670 C   0  0  0  0  0  0  0  0  0  0  0  0
   -7.4240    4.5000  -18.3880 C   0  0  0  0  0  0  0  0  0  0  0  0
   -8.6800    4.0200  -18.7200 C   0  0  0  0  0  0  0  0  0  0  0  0
   -9.6070    3.7740  -17.7410 C   0  0  0  0  0  0  0  0  0  0  0  0
   -9.2960    4.0090  -16.4150 C   0  0  0  0  0  0  0  0  0  0  0  0
   -8.0510    4.5230  -16.0680 C   0  0  0  0  0  0  0  0  0  0  0  0
   -7.8610    4.9470  -14.6390 C   0  0  0  0  0  0  0  0  0  0  0  0
   -7.3470    6.0250  -14.3500 O   0  0  0  0  0  0  0  0  0  0  0  0
   -8.3450    4.0870  -13.6840 N   0  0  0  0  0  0  0  0  0  0  0  0
   -8.2610    4.4220  -12.3200 C   0  0  0  0  0  0  0  0  0  0  0  0
   -8.0470    3.6510  -11.2140 C   0  0  0  0  0  0  0  0  0  0  0  0
   -8.3460    5.7300  -11.8390 C   0  0  0  0  0  0  0  0  0  0  0  0
   -8.1810    5.7780  -10.5300 N   0  0  0  0  0  0  0  0  0  0  0  0
   -7.9820    4.4910  -10.1680 N   0  0  0  0  0  0  0  0  0  0  0  0
   -7.6270    4.1690   -8.7930 C   0  0  0  0  0  0  0  0  0  0  0  0
  2  1  1  1
  3  2  1  0
  4  2  1  0
  5  2  1  0
  6  5  2  0
  7  6  1  0
  8  7  2  0
  9  8  1  0
 10  9  2  0
 10  5  1  0
 11 10  1  0
 12 11  2  0
 13 11  1  0
 14 13  1  0
 15 14  2  0
 16 14  1  0
 17 16  2  0
 18 15  1  0
 18 17  1  0
 19 18  1  0
M  END
>  <smiles>  (49) 
Cn1cc(NC(=O)c2ccccc2C(F)(F)F)cn1

>  <inchikey>  (49) 
HJOQMJVPFXCEBV-UHFFFAOYSA-N

>  <alias>  (49) 
Z1098a

$$$$
Z1274a
     RDKit          3D

 21 23  0  0  0  0  0  0  0  0999 V2000
   -8.1450    6.7390  -11.5830 C   0  0  0  0  0  0  0  0  0  0  0  0
   -8.7500    3.9600  -17.3830 C   0  0  0  0  0  0  0  0  0  0  0  0
   -7.6870    4.1790  -18.2390 C   0  0  0  0  0  0  0  0  0  0  0  0
   -6.4550    4.5940  -17.7420 C   0  0  0  0  0  0  0  0  0  0  0  0
   -5.3310    4.8010  -18.6680 C   0  0  0  0  0  0  0  0  0  0  0  0
   -4.2200    4.8910  -20.5710 C   0  0  0  0  0  0  0  0  0  0  0  0
   -3.2030    5.1480  -19.7450 C   0  0  0  0  0  0  0  0  0  0  0  0
   -6.3090    4.7690  -16.3590 C   0  0  0  0  0  0  0  0  0  0  0  0
   -8.1840    5.3620  -10.9650 C   0  0  0  0  0  0  0  0  0  0  0  0
   -8.1990    5.2270   -9.5850 C   0  0  0  0  0  0  0  0  0  0  0  0
   -8.2540    2.9440   -9.7310 C   0  0  0  0  0  0  0  0  0  0  0  0
   -8.2360    2.9740  -11.0990 C   0  0  0  0  0  0  0  0  0  0  0  0
   -8.1920    4.2010  -11.7470 C   0  0  0  0  0  0  0  0  0  0  0  0
   -7.2110    4.7490  -13.9980 C   0  0  0  0  0  0  0  0  0  0  0  0
   -7.3780    4.5520  -15.4840 C   0  0  0  0  0  0  0  0  0  0  0  0
   -8.5980    4.1430  -16.0220 C   0  0  0  0  0  0  0  0  0  0  0  0
   -8.2380    4.0350   -8.9600 N   0  0  0  0  0  0  0  0  0  0  0  0
   -8.1910    4.2730  -13.1840 N   0  0  0  0  0  0  0  0  0  0  0  0
   -5.4530    4.8310  -19.9790 N   0  0  0  0  0  0  0  0  0  0  0  0
   -6.2170    5.3100  -13.5450 O   0  0  0  0  0  0  0  0  0  0  0  0
   -3.6910    4.9610  -18.1180 S   0  0  0  0  0  0  0  0  0  0  0  0
  3  2  2  0
  4  3  1  0
  5  4  1  0
  7  6  2  0
  8  4  2  0
  9  1  1  0
 10  9  2  0
 12 11  1  0
 13 12  2  0
 13  9  1  0
 15  8  1  0
 15 14  1  0
 16  2  1  0
 16 15  2  0
 17 11  2  0
 17 10  1  0
 18 14  1  0
 18 13  1  0
 19  6  1  0
 19  5  2  0
 20 14  2  0
 21  7  1  0
 21  5  1  0
M  END
>  <smiles>  (50) 
Cc1cnccc1NC(=O)c1cccc(-c2nccs2)c1

>  <inchikey>  (50) 
HFFACLLXIVKSBM-UHFFFAOYSA-N

>  <alias>  (50) 
Z1274a

$$$$
Z1320a
     RDKit          3D

 23 25  0  0  0  0  0  0  0  0999 V2000
   -1.7040    7.4030  -13.9710 C   0  0  0  0  0  0  0  0  0  0  0  0
   -9.1690    4.1890  -16.2320 C   0  0  0  0  0  0  0  0  0  0  0  0
   -7.9850    4.8050  -15.8090 C   0  0  0  0  0  0  0  0  0  0  0  0
   -7.9260    5.2080  -14.3630 C   0  0  0  0  0  0  0  0  0  0  0  0
   -8.1830    4.4350  -12.0420 C   0  0  0  0  0  0  0  0  0  0  0  0
   -8.3420    3.4560  -11.0500 C   0  0  0  0  0  0  0  0  0  0  0  0
   -7.8230    6.1910   -8.8840 C   0  0  0  0  0  0  0  0  0  0  0  0
   -7.9600    5.6190  -11.3380 C   0  0  0  0  0  0  0  0  0  0  0  0
   -4.7300    5.0340  -15.5420 C   0  0  0  0  0  0  0  0  0  0  0  0
   -3.2070    6.7270  -15.7110 C   0  0  0  0  0  0  0  0  0  0  0  0
   -4.0320    7.4500  -16.5760 C   0  0  0  0  0  0  0  0  0  0  0  0
   -5.2470    6.9010  -16.9070 C   0  0  0  0  0  0  0  0  0  0  0  0
   -5.6420    5.6710  -16.3830 C   0  0  0  0  0  0  0  0  0  0  0  0
   -6.9560    5.0460  -16.7440 C   0  0  0  0  0  0  0  0  0  0  0  0
   -7.1590    4.6220  -18.0620 C   0  0  0  0  0  0  0  0  0  0  0  0
   -8.3340    4.0130  -18.4580 C   0  0  0  0  0  0  0  0  0  0  0  0
   -9.3390    3.7980  -17.5430 C   0  0  0  0  0  0  0  0  0  0  0  0
   -8.2400    4.2550  -13.4360 N   0  0  0  0  0  0  0  0  0  0  0  0
   -8.2320    3.9610   -9.8300 N   0  0  0  0  0  0  0  0  0  0  0  0
   -7.9960    5.2970  -10.0250 N   0  0  0  0  0  0  0  0  0  0  0  0
   -3.5290    5.5510  -15.1970 N   0  0  0  0  0  0  0  0  0  0  0  0
   -2.0020    7.2490  -15.3690 O   0  0  0  0  0  0  0  0  0  0  0  0
   -7.6320    6.3510  -14.0490 O   0  0  0  0  0  0  0  0  0  0  0  0
  3  2  2  0
  4  3  1  0
  6  5  1  0
  8  5  2  0
 11 10  1  0
 12 11  2  0
 13  9  2  0
 13 12  1  0
 14  3  1  0
 14 13  1  0
 15 14  2  0
 16 15  1  0
 17 16  2  0
 17  2  1  0
 18  5  1  0
 18  4  1  0
 19  6  2  0
 20 19  1  0
 20  8  1  0
 20  7  1  0
 21  9  1  0
 21 10  2  0
 22 10  1  0
 22  1  1  0
 23  4  2  0
M  END
>  <smiles>  (51) 
COc1ccc(-c2ccccc2C(=O)Nc2cnn(C)c2)cn1

>  <inchikey>  (51) 
FCFUOJDSXTXYGT-UHFFFAOYSA-N

>  <alias>  (51) 
Z1320a

$$$$
Z1342a
     RDKit          3D

 19 21  0  0  0  0  0  0  0  0999 V2000
   -8.0800    5.4480   -8.5940 C   0  0  0  0  0  0  0  0  0  0  0  0
   -4.8810    5.1080  -18.4190 C   0  0  0  0  0  0  0  0  0  0  0  0
   -4.5890    5.4050  -17.0750 C   0  0  0  0  0  0  0  0  0  0  0  0
   -5.5660    5.2370  -16.1350 C   0  0  0  0  0  0  0  0  0  0  0  0
   -6.8500    4.7760  -16.5310 C   0  0  0  0  0  0  0  0  0  0  0  0
   -8.5750    2.9610  -11.0420 C   0  0  0  0  0  0  0  0  0  0  0  0
   -8.2050    5.1350  -11.0940 C   0  0  0  0  0  0  0  0  0  0  0  0
   -8.4170    4.0320  -11.9070 C   0  0  0  0  0  0  0  0  0  0  0  0
   -7.8460    4.8330  -14.1520 C   0  0  0  0  0  0  0  0  0  0  0  0
   -7.9450    4.5670  -15.6300 C   0  0  0  0  0  0  0  0  0  0  0  0
   -9.1390    4.1110  -16.1270 C   0  0  0  0  0  0  0  0  0  0  0  0
   -9.3150    3.8460  -17.4970 C   0  0  0  0  0  0  0  0  0  0  0  0
   -8.2920    4.0370  -18.3730 C   0  0  0  0  0  0  0  0  0  0  0  0
   -7.0390    4.5020  -17.9190 C   0  0  0  0  0  0  0  0  0  0  0  0
   -8.2530    4.6920   -9.8260 N   0  0  0  0  0  0  0  0  0  0  0  0
   -8.4750    3.9650  -13.3080 N   0  0  0  0  0  0  0  0  0  0  0  0
   -6.0490    4.6740  -18.8550 N   0  0  0  0  0  0  0  0  0  0  0  0
   -8.4690    3.3590   -9.7840 N   0  0  0  0  0  0  0  0  0  0  0  0
   -7.2310    5.8130  -13.7390 O   0  0  0  0  0  0  0  0  0  0  0  0
  3  2  2  0
  4  3  1  0
  5  4  2  0
  8  7  2  0
  8  6  1  0
 10  5  1  0
 10  9  1  0
 11 10  2  0
 12 11  1  0
 13 12  2  0
 14 13  1  0
 14  5  1  0
 15  7  1  0
 15  1  1  0
 16  9  1  0
 16  8  1  0
 17 14  2  0
 17  2  1  0
 18  6  2  0
 18 15  1  0
 19  9  2  0
M  END
>  <smiles>  (52) 
Cn1cc(NC(=O)c2cccc3ncccc23)cn1

>  <inchikey>  (52) 
RKNPJCYEHJEUDX-UHFFFAOYSA-N

>  <alias>  (52) 
Z1342a

$$$$
Z1451a
     RDKit          3D

 23 25  0  0  0  0  0  0  0  0999 V2000
   -1.4830    8.3730  -16.4980 C   0  0  0  0  0  0  0  0  0  0  0  0
   -9.2150    4.1840  -16.3800 C   0  0  0  0  0  0  0  0  0  0  0  0
   -7.9890    4.7400  -16.0050 C   0  0  0  0  0  0  0  0  0  0  0  0
   -7.8840    5.1600  -14.5720 C   0  0  0  0  0  0  0  0  0  0  0  0
   -8.2820    4.3900  -12.2620 C   0  0  0  0  0  0  0  0  0  0  0  0
   -8.5810    3.4000  -11.3050 C   0  0  0  0  0  0  0  0  0  0  0  0
   -7.7650    5.9490   -9.0300 C   0  0  0  0  0  0  0  0  0  0  0  0
   -7.9250    5.5080  -11.5240 C   0  0  0  0  0  0  0  0  0  0  0  0
   -5.0140    6.4360  -17.4500 C   0  0  0  0  0  0  0  0  0  0  0  0
   -3.1300    6.5540  -16.1400 C   0  0  0  0  0  0  0  0  0  0  0  0
   -3.6390    5.5770  -15.2790 C   0  0  0  0  0  0  0  0  0  0  0  0
   -4.8780    5.0430  -15.5520 C   0  0  0  0  0  0  0  0  0  0  0  0
   -5.6200    5.4730  -16.6480 C   0  0  0  0  0  0  0  0  0  0  0  0
   -6.9640    4.8900  -16.9590 C   0  0  0  0  0  0  0  0  0  0  0  0
   -7.2240    4.4540  -18.2590 C   0  0  0  0  0  0  0  0  0  0  0  0
   -8.4410    3.9060  -18.6140 C   0  0  0  0  0  0  0  0  0  0  0  0
   -9.4370    3.7700  -17.6740 C   0  0  0  0  0  0  0  0  0  0  0  0
   -1.9130    7.1130  -15.9160 N   0  0  0  0  0  0  0  0  0  0  0  0
   -8.3440    4.2560  -13.6560 N   0  0  0  0  0  0  0  0  0  0  0  0
   -8.4290    3.8500  -10.0770 N   0  0  0  0  0  0  0  0  0  0  0  0
   -8.0290    5.1510  -10.2250 N   0  0  0  0  0  0  0  0  0  0  0  0
   -3.8080    6.9800  -17.2230 N   0  0  0  0  0  0  0  0  0  0  0  0
   -7.4250    6.2510  -14.2770 O   0  0  0  0  0  0  0  0  0  0  0  0
  3  2  2  0
  4  3  1  0
  6  5  1  0
  8  5  2  0
 11 10  1  0
 12 11  2  0
 13 12  1  0
 13  9  2  0
 14  3  1  0
 14 13  1  0
 15 14  2  0
 16 15  1  0
 17 16  2  0
 17  2  1  0
 18  1  1  0
 18 10  1  0
 19  5  1  0
 19  4  1  0
 20  6  2  0
 21 20  1  0
 21  8  1  0
 21  7  1  0
 22  9  1  0
 22 10  2  0
 23  4  2  0
M  END
>  <smiles>  (53) 
CNc1ccc(-c2ccccc2C(=O)Nc2cnn(C)c2)cn1

>  <inchikey>  (53) 
WDDHZWPWZGDUBC-UHFFFAOYSA-N

>  <alias>  (53) 
Z1451a

$$$$
Z1470a
     RDKit          3D

 22 24  0  0  0  0  0  0  0  0999 V2000
   -7.2930    0.9350  -14.0960 C   0  0  0  0  0  0  0  0  0  0  0  0
   -8.0100    4.6790  -12.9240 C   0  0  0  0  0  0  0  0  0  0  0  0
   -9.1040    3.9300  -10.8590 C   0  0  0  0  0  0  0  0  0  0  0  0
   -8.5080    3.6440   -9.4950 C   0  0  0  0  0  0  0  0  0  0  0  0
   -8.2000    6.0260   -9.4520 C   0  0  0  0  0  0  0  0  0  0  0  0
   -8.0890    6.1820  -10.9550 C   0  0  0  0  0  0  0  0  0  0  0  0
   -7.8410    3.1580  -14.6110 C   0  0  0  0  0  0  0  0  0  0  0  0
   -7.3900    4.1350  -15.4680 C   0  0  0  0  0  0  0  0  0  0  0  0
   -7.2750    5.4130  -14.9860 C   0  0  0  0  0  0  0  0  0  0  0  0
   -6.7830    6.5460  -15.8360 C   0  0  0  0  0  0  0  0  0  0  0  0
   -5.6410    6.0510  -17.9070 C   0  0  0  0  0  0  0  0  0  0  0  0
   -4.4670    6.3370  -18.5770 C   0  0  0  0  0  0  0  0  0  0  0  0
   -5.5480    6.0450  -20.5420 C   0  0  0  0  0  0  0  0  0  0  0  0
   -6.7630    5.7530  -18.6530 C   0  0  0  0  0  0  0  0  0  0  0  0
   -4.4170    6.3340  -19.9090 N   0  0  0  0  0  0  0  0  0  0  0  0
   -6.7170    5.7510  -19.9840 N   0  0  0  0  0  0  0  0  0  0  0  0
   -7.5800    5.6970  -13.7080 N   0  0  0  0  0  0  0  0  0  0  0  0
   -8.3190    4.9020  -11.6220 N   0  0  0  0  0  0  0  0  0  0  0  0
   -7.6660    4.7380   -9.0220 N   0  0  0  0  0  0  0  0  0  0  0  0
   -8.1440    3.4150  -13.3510 N   0  0  0  0  0  0  0  0  0  0  0  0
   -7.9710    1.8690  -14.9470 O   0  0  0  0  0  0  0  0  0  0  0  0
   -5.6340    6.0650  -16.5350 O   0  0  0  0  0  0  0  0  0  0  0  0
  4  3  1  0
  6  5  1  0
  8  7  2  0
  9  8  1  0
 10  9  1  0
 12 11  2  0
 14 11  1  0
 15 13  2  0
 15 12  1  0
 16 14  2  0
 16 13  1  0
 17  9  2  0
 17  2  1  0
 18  2  1  0
 18  3  1  0
 18  6  1  0
 19  4  1  0
 19  5  1  0
 20  7  1  0
 20  2  2  0
 21  7  1  0
 21  1  1  0
 22 11  1  0
 22 10  1  0
M  END
>  <smiles>  (54) 
COc1cc(COc2cncnc2)nc(N2CCNCC2)n1

>  <inchikey>  (54) 
QKQGGPZKCCADEL-UHFFFAOYSA-N

>  <alias>  (54) 
Z1470a

$$$$
Z1495a
     RDKit          3D

 20 22  0  0  0  0  0  0  0  0999 V2000
   -8.7360    1.7990   -7.8470 C   0  0  0  0  0  0  0  0  0  0  0  0
   -5.3570    5.3350  -17.9900 C   0  0  0  0  0  0  0  0  0  0  0  0
   -7.3820    4.4500  -18.5970 C   0  0  0  0  0  0  0  0  0  0  0  0
   -7.7700    4.3230  -17.2700 C   0  0  0  0  0  0  0  0  0  0  0  0
   -9.1210    3.7540  -16.9350 C   0  0  0  0  0  0  0  0  0  0  0  0
   -8.3050    3.8900  -12.2830 C   0  0  0  0  0  0  0  0  0  0  0  0
   -8.3900    3.6500  -10.9020 C   0  0  0  0  0  0  0  0  0  0  0  0
   -8.5750    2.8670   -8.8760 C   0  0  0  0  0  0  0  0  0  0  0  0
   -8.4390    4.2190   -8.7550 C   0  0  0  0  0  0  0  0  0  0  0  0
   -8.1650    6.0220  -10.4880 C   0  0  0  0  0  0  0  0  0  0  0  0
   -8.0770    6.2510  -11.8030 C   0  0  0  0  0  0  0  0  0  0  0  0
   -8.1440    5.1920  -12.7210 C   0  0  0  0  0  0  0  0  0  0  0  0
   -8.0480    5.4500  -14.1960 C   0  0  0  0  0  0  0  0  0  0  0  0
   -6.8810    4.7370  -16.2740 C   0  0  0  0  0  0  0  0  0  0  0  0
   -5.6480    5.2480  -16.6520 C   0  0  0  0  0  0  0  0  0  0  0  0
   -8.3250    4.7330  -10.0350 N   0  0  0  0  0  0  0  0  0  0  0  0
   -7.2500    4.6200  -14.9030 N   0  0  0  0  0  0  0  0  0  0  0  0
   -6.1890    4.9450  -18.9610 N   0  0  0  0  0  0  0  0  0  0  0  0
   -8.5470    2.5150  -10.2150 N   0  0  0  0  0  0  0  0  0  0  0  0
   -8.6860    6.3600  -14.7110 O   0  0  0  0  0  0  0  0  0  0  0  0
  4  3  1  0
  5  4  1  0
  7  6  1  0
  8  1  1  0
  9  8  2  0
 11 10  2  0
 12  6  2  0
 12 11  1  0
 13 12  1  0
 14  4  2  0
 15 14  1  0
 15  2  2  0
 16  7  1  0
 16  9  1  0
 16 10  1  0
 17 14  1  0
 17 13  1  0
 18  3  2  0
 18  2  1  0
 19  7  2  0
 19  8  1  0
 20 13  2  0
M  END
>  <smiles>  (55) 
Cc1cn2ccc(C(=O)Nc3ccncc3C)cc2n1

>  <inchikey>  (55) 
FOMZSURVVLMOJM-UHFFFAOYSA-N

>  <alias>  (55) 
Z1495a

$$$$
Z1596a
     RDKit          3D

 26 29  0  0  0  0  0  0  0  0999 V2000
  -10.1880    4.4400  -18.4650 C   0  0  0  0  0  0  0  0  0  0  0  0
   -2.6000    3.4900  -13.1670 C   0  0  0  0  0  0  0  0  0  0  0  0
   -3.9560    1.9030  -13.1250 C   0  0  0  0  0  0  0  0  0  0  0  0
   -6.3900    5.2190  -17.2730 C   0  0  0  0  0  0  0  0  0  0  0  0
   -5.7220    5.3200  -19.6440 C   0  0  0  0  0  0  0  0  0  0  0  0
   -4.4350    5.4620  -20.4290 C   0  0  0  0  0  0  0  0  0  0  0  0
   -4.0620    7.3630  -18.9810 C   0  0  0  0  0  0  0  0  0  0  0  0
   -4.2400    6.2690  -17.9450 C   0  0  0  0  0  0  0  0  0  0  0  0
   -8.5160    4.5230  -16.7640 C   0  0  0  0  0  0  0  0  0  0  0  0
   -8.2270    4.6130  -15.4170 C   0  0  0  0  0  0  0  0  0  0  0  0
   -6.9610    5.0020  -15.0420 C   0  0  0  0  0  0  0  0  0  0  0  0
   -6.5380    5.1360  -13.6060 C   0  0  0  0  0  0  0  0  0  0  0  0
   -4.1230    5.3300  -13.4190 C   0  0  0  0  0  0  0  0  0  0  0  0
   -3.0310    6.1540  -13.4170 C   0  0  0  0  0  0  0  0  0  0  0  0
   -1.7420    5.5990  -13.2850 C   0  0  0  0  0  0  0  0  0  0  0  0
   -0.5210    6.4640  -13.2770 C   0  0  0  0  0  0  0  0  0  0  0  0
   -1.4840    4.2550  -13.1650 N   0  0  0  0  0  0  0  0  0  0  0  0
   -2.6450    2.1660  -13.0620 N   0  0  0  0  0  0  0  0  0  0  0  0
   -4.7550    2.9690  -13.2620 N   0  0  0  0  0  0  0  0  0  0  0  0
   -3.8640    3.9790  -13.2850 N   0  0  0  0  0  0  0  0  0  0  0  0
   -6.0400    5.3090  -15.9700 N   0  0  0  0  0  0  0  0  0  0  0  0
   -5.4560    5.5040  -18.2210 N   0  0  0  0  0  0  0  0  0  0  0  0
   -3.9130    6.8220  -20.3300 N   0  0  0  0  0  0  0  0  0  0  0  0
   -7.6080    4.8150  -17.6950 N   0  0  0  0  0  0  0  0  0  0  0  0
   -9.7470    4.1260  -17.1360 O   0  0  0  0  0  0  0  0  0  0  0  0
   -5.3400    5.9290  -13.5390 O   0  0  0  0  0  0  0  0  0  0  0  0
  6  5  1  0
  8  7  1  0
 10  9  2  0
 11 10  1  0
 12 11  1  0
 14 13  2  0
 15 14  1  0
 16 15  1  0
 17  2  1  0
 17 15  2  0
 18  3  1  0
 18  2  2  0
 19  3  2  0
 20 19  1  0
 20 13  1  0
 20  2  1  0
 21  4  1  0
 21 11  2  0
 22  5  1  0
 22  4  1  0
 22  8  1  0
 23  7  1  0
 23  6  1  0
 24  9  1  0
 24  4  2  0
 25  9  1  0
 25  1  1  0
 26 12  1  0
 26 13  1  0
M  END
>  <smiles>  (56) 
COc1cc(COc2cc(C)nc3ncnn23)nc(N2CCNCC2)n1

>  <inchikey>  (56) 
CGSRTOYWSPEOSW-UHFFFAOYSA-N

>  <alias>  (56) 
Z1596a

$$$$
Z1597a
     RDKit          3D

 21 22  0  0  0  0  0  0  0  0999 V2000
   -4.1900    6.4750  -21.0290 C   0  0  0  0  0  0  0  0  0  0  0  0
   -8.2920    3.1190  -11.4430 C   0  0  0  0  0  0  0  0  0  0  0  0
   -8.1170    3.0720  -10.0850 C   0  0  0  0  0  0  0  0  0  0  0  0
   -8.1230    5.3530   -9.8990 C   0  0  0  0  0  0  0  0  0  0  0  0
   -8.3010    5.5100  -11.2660 C   0  0  0  0  0  0  0  0  0  0  0  0
   -8.4010    6.8960  -11.8580 C   0  0  0  0  0  0  0  0  0  0  0  0
   -6.9650    5.1150  -16.7210 C   0  0  0  0  0  0  0  0  0  0  0  0
   -4.0890    5.2320  -20.2020 C   0  0  0  0  0  0  0  0  0  0  0  0
   -4.8430    5.3200  -18.8940 C   0  0  0  0  0  0  0  0  0  0  0  0
   -7.1340    4.8450  -18.0790 C   0  0  0  0  0  0  0  0  0  0  0  0
   -8.2670    4.1410  -18.4720 C   0  0  0  0  0  0  0  0  0  0  0  0
   -9.0030    3.9620  -16.3110 C   0  0  0  0  0  0  0  0  0  0  0  0
   -7.9120    4.6610  -15.8110 C   0  0  0  0  0  0  0  0  0  0  0  0
   -7.6790    4.9570  -14.3570 C   0  0  0  0  0  0  0  0  0  0  0  0
   -8.3880    4.3590  -12.0580 C   0  0  0  0  0  0  0  0  0  0  0  0
   -6.1890    5.2950  -19.0270 N   0  0  0  0  0  0  0  0  0  0  0  0
   -9.1920    3.7030  -17.6100 N   0  0  0  0  0  0  0  0  0  0  0  0
   -8.5730    4.4660  -13.4670 N   0  0  0  0  0  0  0  0  0  0  0  0
   -8.0320    4.1520   -9.3040 N   0  0  0  0  0  0  0  0  0  0  0  0
   -4.2760    5.4160  -17.8120 O   0  0  0  0  0  0  0  0  0  0  0  0
   -6.7010    5.6150  -14.0160 O   0  0  0  0  0  0  0  0  0  0  0  0
  3  2  2  0
  5  4  1  0
  6  5  1  0
  8  1  1  0
  9  8  1  0
 10  7  2  0
 11 10  1  0
 13  7  1  0
 13 12  2  0
 14 13  1  0
 15  2  1  0
 15  5  2  0
 16 10  1  0
 16  9  1  0
 17 11  2  0
 17 12  1  0
 18 15  1  0
 18 14  1  0
 19  4  2  0
 19  3  1  0
 20  9  2  0
 21 14  2  0
M  END
>  <smiles>  (57) 
CCC(=O)Nc1cncc(C(=O)Nc2ccncc2C)c1

>  <inchikey>  (57) 
ZVXOEORUBXTFDQ-UHFFFAOYSA-N

>  <alias>  (57) 
Z1597a

$$$$
Z1674a
     RDKit          3D

 14 15  0  0  0  0  0  0  0  0999 V2000
   -2.4400    5.7380  -17.3780 C   0  0  0  0  0  0  0  0  0  0  0  0
   -3.8830    5.4480  -17.6660 C   0  0  0  0  0  0  0  0  0  0  0  0
   -4.3310    5.3250  -18.9950 C   0  0  0  0  0  0  0  0  0  0  0  0
   -5.6590    5.0730  -19.2520 C   0  0  0  0  0  0  0  0  0  0  0  0
   -6.5590    4.9360  -18.1520 C   0  0  0  0  0  0  0  0  0  0  0  0
   -7.9300    4.6470  -18.3010 C   0  0  0  0  0  0  0  0  0  0  0  0
   -8.7390    4.5170  -17.2080 C   0  0  0  0  0  0  0  0  0  0  0  0
   -8.2210    4.6720  -15.9330 C   0  0  0  0  0  0  0  0  0  0  0  0
   -6.8860    4.9390  -15.7320 C   0  0  0  0  0  0  0  0  0  0  0  0
   -6.0240    5.0790  -16.8500 C   0  0  0  0  0  0  0  0  0  0  0  0
   -4.6940    5.3270  -16.6270 N   0  0  0  0  0  0  0  0  0  0  0  0
   -6.2730    5.1060  -14.1160 Cl  0  0  0  0  0  0  0  0  0  0  0  0
   -9.2830    4.5200  -14.5700 Cl  0  0  0  0  0  0  0  0  0  0  0  0
   -6.1260    4.9590  -20.5410 N   0  0  0  0  0  0  0  0  0  0  0  0
  2  1  1  0
  3  2  2  0
  4  3  1  0
  5  4  2  0
  6  5  1  0
  7  6  2  0
  8  7  1  0
  9  8  2  0
 10  5  1  0
 10  9  1  0
 11 10  2  0
 11  2  1  0
 12  9  1  0
 13  8  1  0
 14  4  1  0
M  END
>  <smiles>  (58) 
Cc1cc(N)c2ccc(Cl)c(Cl)c2n1

>  <inchikey>  (58) 
YOXFYSBUBIJKKS-UHFFFAOYSA-N

>  <alias>  (58) 
Z1674a

$$$$
Z1681a
     RDKit          3D

 13 14  0  0  0  0  0  0  0  0999 V2000
   -8.0650    4.4490  -13.9110 C   0  0  0  0  0  0  0  0  0  0  0  0
   -6.4580    4.8000  -17.2000 C   0  0  0  0  0  0  0  0  0  0  0  0
   -7.8490    4.3880  -15.3920 C   0  0  0  0  0  0  0  0  0  0  0  0
   -8.8550    3.8750  -16.2330 C   0  0  0  0  0  0  0  0  0  0  0  0
   -8.6560    3.8230  -17.5930 C   0  0  0  0  0  0  0  0  0  0  0  0
   -7.4120    4.2990  -18.1210 C   0  0  0  0  0  0  0  0  0  0  0  0
   -7.0910    4.2910  -19.4960 C   0  0  0  0  0  0  0  0  0  0  0  0
   -5.8910    4.7600  -19.9470 C   0  0  0  0  0  0  0  0  0  0  0  0
   -4.9430    5.2580  -19.0410 C   0  0  0  0  0  0  0  0  0  0  0  0
   -5.2180    5.2750  -17.7090 C   0  0  0  0  0  0  0  0  0  0  0  0
   -6.6930    4.8330  -15.8550 N   0  0  0  0  0  0  0  0  0  0  0  0
   -9.6390    3.3200  -18.4220 N   0  0  0  0  0  0  0  0  0  0  0  0
   -3.9450    5.9410  -16.5060 Br  0  0  0  0  0  0  0  0  0  0  0  0
  3  1  1  0
  4  3  2  0
  5  4  1  0
  6  5  2  0
  6  2  1  0
  7  6  1  0
  8  7  2  0
  9  8  1  0
 10  2  1  0
 10  9  2  0
 11  2  2  0
 11  3  1  0
 12  5  1  0
 13 10  1  0
M  END
>  <smiles>  (59) 
Cc1cc(N)c2cccc(Br)c2n1

>  <inchikey>  (59) 
VXQZWWFUQGSMAV-UHFFFAOYSA-N

>  <alias>  (59) 
Z1681a

$$$$
Z1688a
     RDKit          3D

 17 19  0  0  0  0  0  0  0  0999 V2000
   -6.7780    7.6370  -10.7160 C   0  0  0  0  0  0  0  0  0  0  0  0
   -4.9010    5.6960  -17.8660 C   0  0  0  0  0  0  0  0  0  0  0  0
   -4.5580    6.0270  -16.5420 C   0  0  0  0  0  0  0  0  0  0  0  0
   -5.5020    5.8700  -15.5680 C   0  0  0  0  0  0  0  0  0  0  0  0
   -6.7900    5.3810  -15.9080 C   0  0  0  0  0  0  0  0  0  0  0  0
   -8.6250    4.2310  -19.0950 C   0  0  0  0  0  0  0  0  0  0  0  0
   -7.1900    6.5780  -11.6740 C   0  0  0  0  0  0  0  0  0  0  0  0
   -7.6510    5.4790  -13.5000 C   0  0  0  0  0  0  0  0  0  0  0  0
   -7.8980    4.6500  -12.4400 C   0  0  0  0  0  0  0  0  0  0  0  0
   -7.8330    5.1960  -14.9390 C   0  0  0  0  0  0  0  0  0  0  0  0
   -9.0540    4.7070  -15.3520 C   0  0  0  0  0  0  0  0  0  0  0  0
   -9.2930    4.4020  -16.7010 C   0  0  0  0  0  0  0  0  0  0  0  0
   -8.3320    4.5720  -17.6630 C   0  0  0  0  0  0  0  0  0  0  0  0
   -7.0500    5.0720  -17.2750 C   0  0  0  0  0  0  0  0  0  0  0  0
   -7.2140    6.7000  -12.9990 N   0  0  0  0  0  0  0  0  0  0  0  0
   -7.6020    5.3490  -11.3090 N   0  0  0  0  0  0  0  0  0  0  0  0
   -6.0860    5.2360  -18.2390 N   0  0  0  0  0  0  0  0  0  0  0  0
  3  2  2  0
  4  3  1  0
  5  4  2  0
  7  1  1  0
  9  8  2  0
 10  5  1  0
 10  8  1  0
 11 10  2  0
 12 11  1  0
 13 12  2  0
 13  6  1  0
 14 13  1  0
 14  5  1  0
 15  8  1  0
 15  7  2  0
 16  9  1  0
 16  7  1  0
 17 14  2  0
 17  2  1  0
M  END
>  <smiles>  (60) 
Cc1nc(-c2ccc(C)c3ncccc23)c[nH]1

>  <inchikey>  (60) 
CZFYCCZCOKYGFG-UHFFFAOYSA-N

>  <alias>  (60) 
Z1688a

$$$$
Z1713a
     RDKit          3D

 12 13  0  0  0  0  0  0  0  0999 V2000
   -4.8110    5.6400  -16.0020 C   0  0  0  0  0  0  0  0  0  0  0  0
   -5.3330    5.5240  -14.7200 C   0  0  0  0  0  0  0  0  0  0  0  0
   -6.6660    5.1020  -14.5710 C   0  0  0  0  0  0  0  0  0  0  0  0
   -6.9860    4.9030  -16.8380 C   0  0  0  0  0  0  0  0  0  0  0  0
   -7.8380    4.5840  -17.9280 C   0  0  0  0  0  0  0  0  0  0  0  0
   -7.3870    4.6810  -19.2110 C   0  0  0  0  0  0  0  0  0  0  0  0
   -6.0750    5.0970  -19.4750 C   0  0  0  0  0  0  0  0  0  0  0  0
   -5.2290    5.4080  -18.4580 C   0  0  0  0  0  0  0  0  0  0  0  0
   -5.6540    5.3250  -17.1140 C   0  0  0  0  0  0  0  0  0  0  0  0
   -3.5070    6.0550  -16.2060 N   0  0  0  0  0  0  0  0  0  0  0  0
   -7.4750    4.7890  -15.5620 N   0  0  0  0  0  0  0  0  0  0  0  0
   -9.4620    4.0710  -17.6250 Cl  0  0  0  0  0  0  0  0  0  0  0  0
  2  1  2  0
  3  2  1  0
  5  4  1  0
  6  5  2  0
  7  6  1  0
  8  7  2  0
  9  4  2  0
  9  8  1  0
  9  1  1  0
 10  1  1  0
 11  4  1  0
 11  3  2  0
 12  5  1  0
M  END
>  <smiles>  (61) 
Nc1ccnc2c(Cl)cccc12

>  <inchikey>  (61) 
OIXSIWQVJINCRY-UHFFFAOYSA-N

>  <alias>  (61) 
Z1713a

$$$$
Z1716a
     RDKit          3D

 18 19  0  0  0  0  0  0  0  0999 V2000
   -4.9450    8.6350  -13.4330 C   0  0  0  0  0  0  0  0  0  0  0  0
   -8.5660    4.4960  -15.6840 C   0  0  0  0  0  0  0  0  0  0  0  0
   -7.1890    4.7920  -15.5790 C   0  0  0  0  0  0  0  0  0  0  0  0
   -6.5400    5.0240  -14.3320 C   0  0  0  0  0  0  0  0  0  0  0  0
   -6.2580    4.6970  -19.2380 C   0  0  0  0  0  0  0  0  0  0  0  0
   -4.0990    7.8660  -12.4900 C   0  0  0  0  0  0  0  0  0  0  0  0
   -4.3960    5.5690  -13.0870 C   0  0  0  0  0  0  0  0  0  0  0  0
   -5.1590    5.3110  -14.3410 C   0  0  0  0  0  0  0  0  0  0  0  0
   -4.4800    5.3510  -15.5860 C   0  0  0  0  0  0  0  0  0  0  0  0
   -6.4030    4.8610  -16.7680 C   0  0  0  0  0  0  0  0  0  0  0  0
   -7.0320    4.6300  -18.0250 C   0  0  0  0  0  0  0  0  0  0  0  0
   -8.3810    4.3440  -18.0790 C   0  0  0  0  0  0  0  0  0  0  0  0
   -9.1510    4.2780  -16.8970 C   0  0  0  0  0  0  0  0  0  0  0  0
   -5.0610    5.1390  -16.7470 N   0  0  0  0  0  0  0  0  0  0  0  0
   -7.2480    4.9690  -13.1560 N   0  0  0  0  0  0  0  0  0  0  0  0
   -5.6800    4.7660  -20.2260 N   0  0  0  0  0  0  0  0  0  0  0  0
   -3.6240    6.6580  -13.1650 O   0  0  0  0  0  0  0  0  0  0  0  0
   -4.4740    4.8690  -12.1080 O   0  0  0  0  0  0  0  0  0  0  0  0
  3  2  2  0
  4  3  1  0
  6  1  1  0
  8  4  2  0
  8  7  1  0
  9  8  1  0
 10  3  1  0
 11 10  2  0
 11  5  1  0
 12 11  1  0
 13 12  2  0
 13  2  1  0
 14 10  1  0
 14  9  2  0
 15  4  1  0
 16  5  3  0
 17  7  1  0
 17  6  1  0
 18  7  2  0
M  END
>  <smiles>  (62) 
CCOC(=O)c1cnc2c(C#N)cccc2c1N

>  <inchikey>  (62) 
QGBFHTFGHPLYKS-UHFFFAOYSA-N

>  <alias>  (62) 
Z1716a

$$$$
Z1719a
     RDKit          3D

 17 19  0  0  0  0  0  0  0  0999 V2000
   -5.3800    5.3290  -15.7990 C   0  0  0  0  0  0  0  0  0  0  0  0
   -8.2900    3.3910  -12.7170 C   0  0  0  0  0  0  0  0  0  0  0  0
   -8.7670    3.2370  -11.4290 C   0  0  0  0  0  0  0  0  0  0  0  0
   -8.6530    4.2830  -10.5430 C   0  0  0  0  0  0  0  0  0  0  0  0
   -8.0650    5.4530  -10.9760 C   0  0  0  0  0  0  0  0  0  0  0  0
   -7.1810    4.7800  -14.4520 C   0  0  0  0  0  0  0  0  0  0  0  0
   -7.4930    4.6240  -16.7550 C   0  0  0  0  0  0  0  0  0  0  0  0
   -8.3170    4.3330  -17.8610 C   0  0  0  0  0  0  0  0  0  0  0  0
   -7.8330    4.4710  -19.1280 C   0  0  0  0  0  0  0  0  0  0  0  0
   -6.5120    4.8950  -19.3570 C   0  0  0  0  0  0  0  0  0  0  0  0
   -5.6890    5.1810  -18.3130 C   0  0  0  0  0  0  0  0  0  0  0  0
   -6.1590    5.0570  -16.9820 C   0  0  0  0  0  0  0  0  0  0  0  0
   -7.7210    4.6020  -13.0750 C   0  0  0  0  0  0  0  0  0  0  0  0
   -4.1050    5.7380  -15.8800 N   0  0  0  0  0  0  0  0  0  0  0  0
   -5.9080    5.1770  -14.5880 N   0  0  0  0  0  0  0  0  0  0  0  0
   -7.9820    4.4880  -15.4870 N   0  0  0  0  0  0  0  0  0  0  0  0
   -7.5940    5.6340  -12.2190 N   0  0  0  0  0  0  0  0  0  0  0  0
  3  2  2  0
  4  3  1  0
  5  4  2  0
  8  7  1  0
  9  8  2  0
 10  9  1  0
 11 10  2  0
 12 11  1  0
 12  7  1  0
 12  1  2  0
 13  6  1  0
 13  2  1  0
 14  1  1  0
 15  6  2  0
 15  1  1  0
 16  7  2  0
 16  6  1  0
 17 13  2  0
 17  5  1  0
M  END
>  <smiles>  (63) 
Nc1nc(-c2ccccn2)nc2ccccc12

>  <inchikey>  (63) 
MDJLXTFDNXURTH-UHFFFAOYSA-N

>  <alias>  (63) 
Z1719a

$$$$
Z1727a
     RDKit          3D

 25 26  0  0  0  0  0  0  0  0999 V2000
  -10.4750    7.6090  -13.6440 C   0  0  0  0  0  0  0  0  0  0  0  0
   -4.6100    6.5870  -15.4070 C   0  0  0  0  0  0  0  0  0  0  0  0
   -3.8170    6.5490  -16.5650 C   0  0  0  0  0  0  0  0  0  0  0  0
   -4.3010    6.0320  -17.7260 C   0  0  0  0  0  0  0  0  0  0  0  0
   -5.6200    5.5220  -17.7890 C   0  0  0  0  0  0  0  0  0  0  0  0
   -6.2020    4.9670  -18.9590 C   0  0  0  0  0  0  0  0  0  0  0  0
   -7.4760    4.4940  -18.9340 C   0  0  0  0  0  0  0  0  0  0  0  0
   -8.2180    4.5600  -17.7340 C   0  0  0  0  0  0  0  0  0  0  0  0
   -6.4340    5.5490  -16.6250 C   0  0  0  0  0  0  0  0  0  0  0  0
   -9.6250    4.0420  -17.6880 C   0  0  0  0  0  0  0  0  0  0  0  0
   -9.1180    7.7290  -13.0280 C   0  0  0  0  0  0  0  0  0  0  0  0
   -7.5600    6.1210  -11.9880 C   0  0  1  0  0  0  0  0  0  0  0  0
   -7.8100    4.6130  -12.0250 C   0  0  0  0  0  0  0  0  0  0  0  0
   -8.5920    4.0780  -10.8310 C   0  0  0  0  0  0  0  0  0  0  0  0
   -7.7360    3.3890   -9.7870 C   0  0  0  0  0  0  0  0  0  0  0  0
   -8.4050    3.3010   -8.4320 C   0  0  0  0  0  0  0  0  0  0  0  0
   -6.5360    6.5400  -13.0620 C   0  0  0  0  0  0  0  0  0  0  0  0
   -5.8950    6.0920  -15.4140 C   0  0  0  0  0  0  0  0  0  0  0  0
   -8.8210    6.8460  -12.0710 N   0  0  0  0  0  0  0  0  0  0  0  0
   -8.8130    1.9140   -8.1030 N   0  0  0  0  0  0  0  0  0  0  0  0
   -6.7700    6.0870  -14.3140 N   0  0  0  0  0  0  0  0  0  0  0  0
   -7.7120    5.0690  -16.6210 N   0  0  0  0  0  0  0  0  0  0  0  0
   -8.3470    8.6310  -13.3420 O   0  0  0  0  0  0  0  0  0  0  0  0
   -5.5720    7.2280  -12.7590 O   0  0  0  0  0  0  0  0  0  0  0  0
   -5.2900    4.8860  -20.4390 Cl  0  0  0  0  0  0  0  0  0  0  0  0
  3  2  2  0
  4  3  1  0
  5  4  2  0
  6  5  1  0
  7  6  2  0
  8  7  1  0
  9  5  1  0
 10  8  1  0
 11  1  1  0
 12 13  1  6
 14 13  1  0
 15 14  1  0
 16 15  1  0
 17 12  1  0
 18  9  2  0
 18  2  1  0
 19 12  1  0
 19 11  1  0
 20 16  1  0
 21 18  1  0
 21 17  1  0
 22  8  2  0
 22  9  1  0
 23 11  2  0
 24 17  2  0
 25  6  1  0
M  CHG  1  20   1
M  END
>  <smiles>  (64) 
CC(=O)N[C@@H](CCCC[NH3+])C(=O)Nc1cccc2c(Cl)cc(C)nc12

>  <inchikey>  (64) 
AORVTZWNCTUNIP-INIZCTEOSA-O

>  <alias>  (64) 
Z1727a

$$$$
Z1729a
     RDKit          3D

 19 21  0  0  0  0  0  0  0  0999 V2000
   -7.1900    3.0160  -13.5950 C   0  0  0  0  0  0  0  0  0  0  0  0
   -6.9590    4.4550  -16.4680 C   0  0  0  0  0  0  0  0  0  0  0  0
   -7.5600    2.7680  -12.1390 C   0  0  1  0  0  0  0  0  0  0  0  0
   -6.3130    2.3100  -11.3720 C   0  0  0  0  0  0  0  0  0  0  0  0
   -6.5060    2.3930   -9.8710 C   0  0  0  0  0  0  0  0  0  0  0  0
   -8.6030    3.6210  -10.0080 C   0  0  0  0  0  0  0  0  0  0  0  0
   -8.1860    3.9680  -11.4250 C   0  0  0  0  0  0  0  0  0  0  0  0
   -8.0550    4.0480  -15.6390 C   0  0  0  0  0  0  0  0  0  0  0  0
   -9.2460    3.6900  -16.2260 C   0  0  0  0  0  0  0  0  0  0  0  0
   -9.4010    3.7340  -17.6190 C   0  0  0  0  0  0  0  0  0  0  0  0
   -8.3720    4.1220  -18.4270 C   0  0  0  0  0  0  0  0  0  0  0  0
   -7.1310    4.4950  -17.8710 C   0  0  0  0  0  0  0  0  0  0  0  0
   -6.0410    4.8980  -18.6710 C   0  0  0  0  0  0  0  0  0  0  0  0
   -4.8650    5.2310  -18.0720 C   0  0  0  0  0  0  0  0  0  0  0  0
   -4.7780    5.1650  -16.6670 C   0  0  0  0  0  0  0  0  0  0  0  0
   -7.8390    4.0100  -14.2510 N   0  0  0  0  0  0  0  0  0  0  0  0
   -5.7720    4.7950  -15.8780 N   0  0  0  0  0  0  0  0  0  0  0  0
   -7.9320    2.4020   -9.5290 N   0  0  0  0  0  0  0  0  0  0  0  0
   -6.3530    2.3120  -14.1380 O   0  0  0  0  0  0  0  0  0  0  0  0
  3  1  1  6
  4  3  1  0
  5  4  1  0
  7  3  1  0
  7  6  1  0
  8  2  1  0
  9  8  2  0
 10  9  1  0
 11 10  2  0
 12 11  1  0
 12  2  2  0
 13 12  1  0
 14 13  2  0
 15 14  1  0
 16  8  1  0
 16  1  1  0
 17  2  1  0
 17 15  2  0
 18  6  1  0
 18  5  1  0
 19  1  2  0
M  END
>  <smiles>  (65) 
O=C(Nc1cccc2cccnc12)C1CCNCC1

>  <inchikey>  (65) 
SKJCEUNRNVCDAV-UHFFFAOYSA-N

>  <alias>  (65) 
Z1729a

$$$$
Z1730a
     RDKit          3D

 23 24  0  0  0  0  0  0  0  0999 V2000
   -5.2000    7.9180  -13.1920 C   0  0  0  0  0  0  0  0  0  0  0  0
   -5.9390    5.3280  -15.3450 C   0  0  0  0  0  0  0  0  0  0  0  0
   -5.2810    5.3550  -16.5880 C   0  0  0  0  0  0  0  0  0  0  0  0
   -5.9380    5.0220  -17.7360 C   0  0  0  0  0  0  0  0  0  0  0  0
   -7.2940    4.6370  -17.6880 C   0  0  0  0  0  0  0  0  0  0  0  0
   -8.0140    4.2750  -18.8390 C   0  0  0  0  0  0  0  0  0  0  0  0
   -9.3150    3.9060  -18.7110 C   0  0  0  0  0  0  0  0  0  0  0  0
   -9.9050    3.9100  -17.4350 C   0  0  0  0  0  0  0  0  0  0  0  0
   -7.9640    4.5990  -16.4460 C   0  0  0  0  0  0  0  0  0  0  0  0
   -6.5260    8.2440  -12.5800 C   0  0  0  0  0  0  0  0  0  0  0  0
   -7.3040    5.9840  -12.0430 C   0  0  1  0  0  0  0  0  0  0  0  0
   -7.8550    5.2320  -10.8330 C   0  0  0  0  0  0  0  0  0  0  0  0
   -7.9130    3.7190  -10.9920 C   0  0  0  0  0  0  0  0  0  0  0  0
   -7.6570    2.9380   -9.7120 C   0  0  0  0  0  0  0  0  0  0  0  0
   -8.8630    2.8570   -8.8010 C   0  0  0  0  0  0  0  0  0  0  0  0
   -8.2570    5.9090  -13.2450 C   0  0  0  0  0  0  0  0  0  0  0  0
   -7.2610    4.9560  -15.2620 C   0  0  0  0  0  0  0  0  0  0  0  0
   -7.0360    7.3710  -11.7040 N   0  0  0  0  0  0  0  0  0  0  0  0
   -8.9180    1.5600   -8.0840 N   0  0  0  0  0  0  0  0  0  0  0  0
   -8.0190    4.8920  -14.0920 N   0  0  0  0  0  0  0  0  0  0  0  0
   -9.2720    4.2280  -16.3240 N   0  0  0  0  0  0  0  0  0  0  0  0
   -7.1460    9.2550  -12.9020 O   0  0  0  0  0  0  0  0  0  0  0  0
   -9.1410    6.7390  -13.4220 O   0  0  0  0  0  0  0  0  0  0  0  0
  3  2  2  0
  4  3  1  0
  5  4  2  0
  6  5  1  0
  7  6  2  0
  8  7  1  0
  9  5  1  0
 10  1  1  0
 11 12  1  1
 13 12  1  0
 14 13  1  0
 15 14  1  0
 16 11  1  0
 17  9  2  0
 17  2  1  0
 18 11  1  0
 18 10  1  0
 19 15  1  0
 20 17  1  0
 20 16  1  0
 21  9  1  0
 21  8  2  0
 22 10  2  0
 23 16  2  0
M  CHG  1  19   1
M  END
>  <smiles>  (66) 
CC(=O)N[C@@H](CCCC[NH3+])C(=O)Nc1cccc2cccnc12

>  <inchikey>  (66) 
MCVRNRMKGRTNOG-HNNXBMFYSA-O

>  <alias>  (66) 
Z1730a

$$$$
Z1752a
     RDKit          3D

 22 23  0  0  0  0  0  0  0  0999 V2000
   -8.6150    4.4460   -8.9850 C   0  0  0  0  0  0  0  0  0  0  0  0
   -8.8730    4.3530  -17.3580 C   0  0  0  0  0  0  0  0  0  0  0  0
   -7.8430    4.5870  -18.2230 C   0  0  0  0  0  0  0  0  0  0  0  0
   -6.5410    4.8260  -17.7350 C   0  0  0  0  0  0  0  0  0  0  0  0
   -6.3140    4.8220  -16.3410 C   0  0  0  0  0  0  0  0  0  0  0  0
   -4.0820    5.2660  -16.6470 C   0  0  0  0  0  0  0  0  0  0  0  0
   -4.2190    5.2890  -18.0490 C   0  0  0  0  0  0  0  0  0  0  0  0
   -5.4470    5.0690  -18.5930 C   0  0  0  0  0  0  0  0  0  0  0  0
   -7.8250    3.2720   -9.4690 C   0  0  0  0  0  0  0  0  0  0  0  0
   -7.7720    4.2370  -11.7480 C   0  0  1  0  0  0  0  0  0  0  0  0
   -7.1700    5.6260  -11.5190 C   0  0  0  0  0  0  0  0  0  0  0  0
   -7.9920    6.7630  -12.1110 C   0  0  0  0  0  0  0  0  0  0  0  0
   -7.2070    8.0590  -12.2410 C   0  0  0  0  0  0  0  0  0  0  0  0
   -7.4480    3.6780  -13.1550 C   0  0  0  0  0  0  0  0  0  0  0  0
   -7.4090    4.5770  -15.4530 C   0  0  0  0  0  0  0  0  0  0  0  0
   -8.6620    4.3470  -15.9680 C   0  0  0  0  0  0  0  0  0  0  0  0
   -7.3400    3.3040  -10.7180 N   0  0  0  0  0  0  0  0  0  0  0  0
   -6.3320    8.3550  -11.1020 N   0  0  0  0  0  0  0  0  0  0  0  0
   -7.0900    4.5870  -14.0890 N   0  0  0  0  0  0  0  0  0  0  0  0
   -5.0760    5.0440  -15.8060 N   0  0  0  0  0  0  0  0  0  0  0  0
   -7.6210    2.3050   -8.7400 O   0  0  0  0  0  0  0  0  0  0  0  0
   -7.5090    2.4760  -13.3830 O   0  0  0  0  0  0  0  0  0  0  0  0
  3  2  2  0
  4  3  1  0
  5  4  2  0
  7  6  1  0
  8  4  1  0
  8  7  2  0
  9  1  1  0
 10 11  1  1
 12 11  1  0
 13 12  1  0
 14 10  1  0
 15  5  1  0
 16  2  1  0
 16 15  2  0
 17 10  1  0
 17  9  1  0
 18 13  1  0
 19 15  1  0
 19 14  1  0
 20  5  1  0
 20  6  2  0
 21  9  2  0
 22 14  2  0
M  END
>  <smiles>  (67) 
CC(=O)N[C@@H](CCCN)C(=O)Nc1cccc2cccnc12

>  <inchikey>  (67) 
XHHRODCTSKSZNG-AWEZNQCLSA-N

>  <alias>  (67) 
Z1752a

$$$$
Z1753a
     RDKit          3D

 21 23  0  0  0  0  0  0  0  0999 V2000
   -3.1580    5.4080  -15.3510 C   0  0  0  0  0  0  0  0  0  0  0  0
   -8.0460    2.7490  -11.7980 C   0  0  2  0  0  0  0  0  0  0  0  0
   -8.4390    4.0080  -11.0030 C   0  0  0  0  0  0  0  0  0  0  0  0
   -7.9080    3.2890   -9.7580 C   0  0  2  0  0  0  0  0  0  0  0  0
   -6.9870    2.5090  -10.7020 C   0  0  0  0  0  0  0  0  0  0  0  0
   -5.7030    5.1990  -18.1270 C   0  0  0  0  0  0  0  0  0  0  0  0
   -5.8100    5.3980  -19.6200 C   0  0  0  0  0  0  0  0  0  0  0  0
   -4.5230    5.3870  -17.4650 C   0  0  0  0  0  0  0  0  0  0  0  0
   -4.4530    5.1870  -16.0720 C   0  0  0  0  0  0  0  0  0  0  0  0
   -6.7020    4.6280  -15.9710 C   0  0  0  0  0  0  0  0  0  0  0  0
   -6.8510    4.8030  -17.3740 C   0  0  0  0  0  0  0  0  0  0  0  0
   -8.1210    4.5770  -17.9640 C   0  0  0  0  0  0  0  0  0  0  0  0
   -9.1840    4.1960  -17.2030 C   0  0  0  0  0  0  0  0  0  0  0  0
   -9.0500    4.0240  -15.8170 C   0  0  0  0  0  0  0  0  0  0  0  0
   -7.8440    4.2420  -15.1940 C   0  0  0  0  0  0  0  0  0  0  0  0
   -7.5360    2.8470  -13.2130 C   0  0  0  0  0  0  0  0  0  0  0  0
   -5.5030    4.8260  -15.3490 N   0  0  0  0  0  0  0  0  0  0  0  0
   -7.6430    4.0550  -13.8190 N   0  0  0  0  0  0  0  0  0  0  0  0
   -8.8360    2.5300   -8.9440 N   0  0  0  0  0  0  0  0  0  0  0  0
   -7.1110    1.8470  -13.7880 O   0  0  0  0  0  0  0  0  0  0  0  0
   -4.5650    5.6750  -20.2550 O   0  0  0  0  0  0  0  0  0  0  0  0
  3  2  1  0
  4  3  1  0
  5  2  1  0
  5  4  1  0
  7  6  1  0
  8  6  2  0
  9  8  1  0
  9  1  1  0
 11  6  1  0
 11 10  2  0
 12 11  1  0
 13 12  2  0
 14 13  1  0
 15 14  2  0
 15 10  1  0
  2 16  1  6
 17 10  1  0
 17  9  2  0
 18 16  1  0
 18 15  1  0
  4 19  1  6
 20 16  2  0
 21  7  1  0
M  END
>  <smiles>  (68) 
Cc1cc(CO)c2cccc(NC(=O)[C@H]3C[C@H](N)C3)c2n1

>  <inchikey>  (68) 
PWESDAOWBFUXFF-UMSPYCQHSA-N

>  <alias>  (68) 
Z1753a

$$$$
Z1756a
     RDKit          3D

 16 17  0  0  0  0  0  0  0  0999 V2000
   -7.4620    5.6740  -12.7960 C   0  0  2  0  0  0  0  0  0  0  0  0
   -8.7720    4.1980  -17.3480 C   0  0  0  0  0  0  0  0  0  0  0  0
   -9.1350    4.4110  -16.0530 C   0  0  0  0  0  0  0  0  0  0  0  0
   -7.0430    7.1360  -12.9730 C   0  0  0  0  0  0  0  0  0  0  0  0
   -8.6310    5.2660  -13.7230 C   0  0  0  0  0  0  0  0  0  0  0  0
   -8.2240    5.0210  -15.1490 C   0  0  0  0  0  0  0  0  0  0  0  0
   -6.6200    5.1920  -16.8210 C   0  0  0  0  0  0  0  0  0  0  0  0
   -7.4830    4.5910  -17.7700 C   0  0  0  0  0  0  0  0  0  0  0  0
   -7.0220    4.4030  -19.0940 C   0  0  0  0  0  0  0  0  0  0  0  0
   -5.7670    4.7980  -19.4460 C   0  0  0  0  0  0  0  0  0  0  0  0
   -4.9130    5.3940  -18.5020 C   0  0  0  0  0  0  0  0  0  0  0  0
   -5.3240    5.5870  -17.2160 C   0  0  0  0  0  0  0  0  0  0  0  0
   -7.8370    5.4720  -11.3710 N   0  0  0  0  0  0  0  0  0  0  0  0
   -7.0100    5.3970  -15.5200 N   0  0  0  0  0  0  0  0  0  0  0  0
   -7.5860    7.9700  -12.2200 O   0  0  0  0  0  0  0  0  0  0  0  0
   -6.1770    7.3860  -13.8330 O   0  0  0  0  0  0  0  0  0  0  0  0
  3  2  2  0
  4  1  1  0
  5  1  1  0
  6  5  1  0
  6  3  1  0
  8  7  2  0
  8  2  1  0
  9  8  1  0
 10  9  2  0
 11 10  1  0
 12  7  1  0
 12 11  2  0
  1 13  1  1
 14  7  1  0
 14  6  2  0
 15  4  2  0
 16  4  1  0
M  CHG  2  13   1  16  -1
M  END
>  <smiles>  (69) 
[NH3+][C@@H](Cc1ccc2ccccc2n1)C(=O)[O-]

>  <inchikey>  (69) 
CRSSRGSNAKKNNI-JTQLQIEISA-N

>  <alias>  (69) 
Z1756a

$$$$
Z1761a
     RDKit          3D

 28 31  0  0  0  0  0  0  0  0999 V2000
   -3.4700    5.5480  -14.3790 C   0  0  0  0  0  0  0  0  0  0  0  0
   -8.0600    4.7010  -15.5300 C   0  0  0  0  0  0  0  0  0  0  0  0
   -8.4090    4.6480  -14.0480 C   0  0  0  0  0  0  0  0  0  0  0  0
   -8.5180    5.9990  -13.3590 C   0  0  0  0  0  0  0  0  0  0  0  0
   -9.3400    6.9860  -13.8970 C   0  0  0  0  0  0  0  0  0  0  0  0
   -9.4690    8.2230  -13.2950 C   0  0  0  0  0  0  0  0  0  0  0  0
   -8.7890    8.4940  -12.1290 C   0  0  0  0  0  0  0  0  0  0  0  0
   -7.9760    7.5300  -11.5620 C   0  0  0  0  0  0  0  0  0  0  0  0
   -7.8250    6.2750  -12.1730 C   0  0  0  0  0  0  0  0  0  0  0  0
   -6.9580    5.2440  -11.5160 C   0  0  0  0  0  0  0  0  0  0  0  0
   -7.9270    5.2550   -9.2330 C   0  0  0  0  0  0  0  0  0  0  0  0
   -4.5180    5.3460  -15.4320 C   0  0  0  0  0  0  0  0  0  0  0  0
   -8.4700    4.1410   -8.3640 C   0  0  0  0  0  0  0  0  0  0  0  0
   -7.9400    2.8460   -8.9840 C   0  0  2  0  0  0  0  0  0  0  0  0
   -7.8240    3.1540  -10.4690 C   0  0  0  0  0  0  0  0  0  0  0  0
   -6.7430    4.9370  -15.9640 C   0  0  0  0  0  0  0  0  0  0  0  0
   -4.1600    5.3970  -16.7940 C   0  0  0  0  0  0  0  0  0  0  0  0
   -5.1090    5.2220  -17.7640 C   0  0  0  0  0  0  0  0  0  0  0  0
   -4.7240    5.2770  -19.2230 C   0  0  0  0  0  0  0  0  0  0  0  0
   -6.4600    4.9800  -17.3610 C   0  0  0  0  0  0  0  0  0  0  0  0
   -7.5160    4.7740  -18.2850 C   0  0  0  0  0  0  0  0  0  0  0  0
   -8.7830    4.5430  -17.8460 C   0  0  0  0  0  0  0  0  0  0  0  0
   -9.0490    4.5080  -16.4630 C   0  0  0  0  0  0  0  0  0  0  0  0
   -7.4970    4.5880  -10.4720 N   0  0  0  0  0  0  0  0  0  0  0  0
   -8.8210    1.7160   -8.6920 N   0  0  0  0  0  0  0  0  0  0  0  0
   -5.7590    5.1230  -15.0270 N   0  0  0  0  0  0  0  0  0  0  0  0
   -3.3750    4.8730  -19.4630 O   0  0  0  0  0  0  0  0  0  0  0  0
   -5.8500    4.9490  -11.9690 O   0  0  0  0  0  0  0  0  0  0  0  0
  3  2  1  0
  4  3  1  0
  5  4  2  0
  6  5  1  0
  7  6  2  0
  8  7  1  0
  9  8  2  0
  9  4  1  0
 10  9  1  0
 12  1  1  0
 13 11  1  0
 14 13  1  0
 15 14  1  0
 16  2  1  0
 17 12  2  0
 18 17  1  0
 19 18  1  0
 20 16  1  0
 20 18  2  0
 21 20  1  0
 22 21  2  0
 23 22  1  0
 23  2  2  0
 24 10  1  0
 24 15  1  0
 24 11  1  0
 14 25  1  6
 26 16  2  0
 26 12  1  0
 27 19  1  0
 28 10  2  0
M  END
>  <smiles>  (70) 
Cc1cc(CO)c2cccc(Cc3ccccc3C(=O)N3CC[C@@H](N)C3)c2n1

>  <inchikey>  (70) 
YLEIQVSNUNQEJJ-LJQANCHMSA-N

>  <alias>  (70) 
Z1761a

$$$$
Z2057a
     RDKit          3D

 24 26  0  0  0  0  0  0  0  0999 V2000
   -2.8780    5.3900  -15.3450 C   0  0  0  0  0  0  0  0  0  0  0  0
   -4.1920    5.2620  -16.0560 C   0  0  0  0  0  0  0  0  0  0  0  0
   -4.2830    5.5390  -17.4360 C   0  0  0  0  0  0  0  0  0  0  0  0
   -5.4800    5.4220  -18.0830 C   0  0  0  0  0  0  0  0  0  0  0  0
   -5.6150    5.7400  -19.5510 C   0  0  0  0  0  0  0  0  0  0  0  0
   -4.4140    5.5320  -20.2910 O   0  0  0  0  0  0  0  0  0  0  0  0
   -6.6310    5.0500  -17.3270 C   0  0  0  0  0  0  0  0  0  0  0  0
   -7.9100    4.8860  -17.9110 C   0  0  0  0  0  0  0  0  0  0  0  0
   -8.9710    4.5150  -17.1440 C   0  0  0  0  0  0  0  0  0  0  0  0
   -8.8180    4.2750  -15.7670 C   0  0  0  0  0  0  0  0  0  0  0  0
   -7.5960    4.4110  -15.1520 C   0  0  0  0  0  0  0  0  0  0  0  0
   -7.3500    4.1720  -13.7900 N   0  0  0  0  0  0  0  0  0  0  0  0
   -7.2780    2.9920  -13.1320 C   0  0  0  0  0  0  0  0  0  0  0  0
   -7.2050    1.9040  -13.6870 O   0  0  0  0  0  0  0  0  0  0  0  0
   -7.3300    3.0830  -11.6250 C   0  0  0  0  0  0  0  0  0  0  0  0
   -8.6660    3.6070  -11.0730 C   0  0  0  0  0  0  0  0  0  0  0  0
   -8.8500    3.5520   -9.5580 C   0  0  2  0  0  0  0  0  0  0  0  0
   -7.7540    4.2800   -8.7840 C   0  0  0  0  0  0  0  0  0  0  0  0
   -7.9360    4.2550   -7.2820 C   0  0  0  0  0  0  0  0  0  0  0  0
   -8.9250    3.2510   -6.8510 N   0  0  0  0  0  0  0  0  0  0  0  0
   -8.7840    1.9690   -7.5570 C   0  0  0  0  0  0  0  0  0  0  0  0
   -9.0340    2.1310   -9.0280 C   0  0  0  0  0  0  0  0  0  0  0  0
   -6.4600    4.7920  -15.9380 C   0  0  0  0  0  0  0  0  0  0  0  0
   -5.2420    4.9080  -15.3340 N   0  0  0  0  0  0  0  0  0  0  0  0
  2  1  1  0
  3  2  2  0
  4  3  1  0
  5  4  1  0
  6  5  1  0
  7  4  2  0
  8  7  1  0
  9  8  2  0
 10  9  1  0
 11 10  2  0
 12 11  1  0
 13 12  1  0
 14 13  2  0
 15 13  1  0
 16 15  1  0
 17 16  1  6
 18 17  1  0
 19 18  1  0
 20 19  1  0
 21 20  1  0
 22 21  1  0
 22 17  1  0
 23  7  1  0
 23 11  1  0
 24 23  2  0
 24  2  1  0
M  END
>  <smiles>  (71) 
Cc1cc(CO)c2cccc(NC(=O)CCC3CCNCC3)c2n1

>  <inchikey>  (71) 
YOACLWXNCLINNH-UHFFFAOYSA-N

>  <alias>  (71) 
Z2057a

$$$$
Z2135a
     RDKit          3D

 22 24  0  0  0  0  0  0  0  0999 V2000
   -4.7960    4.9980  -18.0410 C   0  0  0  0  0  0  0  0  0  0  0  0
   -6.2530    4.7320  -17.9760 C   0  0  0  0  0  0  0  0  0  0  0  0
   -6.9210    4.4600  -16.8700 N   0  0  0  0  0  0  0  0  0  0  0  0
   -8.2460    4.3050  -17.2340 C   0  0  0  0  0  0  0  0  0  0  0  0
   -9.2900    3.9440  -16.2290 C   0  0  0  0  0  0  0  0  0  0  0  0
   -8.8460    4.0610  -14.8490 N   0  0  0  0  0  0  0  0  0  0  0  0
   -8.4910    5.2340  -14.3220 C   0  0  0  0  0  0  0  0  0  0  0  0
   -8.3670    6.2450  -15.0110 O   0  0  0  0  0  0  0  0  0  0  0  0
   -8.2520    5.2750  -12.8750 C   0  0  0  0  0  0  0  0  0  0  0  0
   -8.1620    4.1430  -12.0990 N   0  0  0  0  0  0  0  0  0  0  0  0
   -8.0090    4.5560  -10.8010 C   0  0  0  0  0  0  0  0  0  0  0  0
   -7.7000    3.7420   -9.5830 C   0  0  1  0  0  0  0  0  0  0  0  0
   -8.6270    4.0980   -8.3980 C   0  0  0  0  0  0  0  0  0  0  0  0
   -9.4420    2.9560   -7.7900 C   0  0  0  0  0  0  0  0  0  0  0  0
   -8.7200    1.6330   -7.8990 C   0  0  0  0  0  0  0  0  0  0  0  0
   -8.5080    1.3520   -9.3220 N   0  0  0  0  0  0  0  0  0  0  0  0
   -7.5210    2.2630   -9.9220 C   0  0  0  0  0  0  0  0  0  0  0  0
   -7.9530    5.8980  -10.7700 N   0  0  0  0  0  0  0  0  0  0  0  0
   -8.1480    6.3480  -12.0070 C   0  0  0  0  0  0  0  0  0  0  0  0
   -8.2260    7.8180  -12.2500 C   0  0  0  0  0  0  0  0  0  0  0  0
   -8.3490    4.4800  -18.5790 C   0  0  0  0  0  0  0  0  0  0  0  0
   -7.0870    4.7670  -19.0290 N   0  0  0  0  0  0  0  0  0  0  0  0
  2  1  1  0
  3  2  2  0
  4  3  1  0
  5  4  1  0
  6  5  1  0
  7  6  1  0
  8  7  2  0
  9  7  1  0
 10  9  1  0
 11 10  1  0
 12 11  1  6
 13 12  1  0
 14 13  1  0
 15 14  1  0
 16 15  1  0
 17 16  1  0
 17 12  1  0
 18 11  2  0
 19  9  2  0
 19 18  1  0
 20 19  1  0
 21  4  2  0
 22 21  1  0
 22  2  1  0
M  END
>  <smiles>  (72) 
Cc1nc(CNC(=O)c2[nH]c([C@H]3CCCNC3)nc2C)c[nH]1

>  <inchikey>  (72) 
ZVEYJTBRDUORTQ-NSHDSACASA-N

>  <alias>  (72) 
Z2135a

$$$$
Z2217a
     RDKit          3D

 24 26  0  0  0  0  0  0  0  0999 V2000
   -2.2630    6.7990  -19.9820 C   0  0  0  0  0  0  0  0  0  0  0  0
   -2.8550    5.4740  -20.4300 C   0  0  1  0  0  0  0  0  0  0  0  0
   -2.2510    4.2940  -19.6910 C   0  0  0  0  0  0  0  0  0  0  0  0
   -4.3250    5.4870  -20.3360 N   0  0  0  0  0  0  0  0  0  0  0  0
   -5.1030    5.2110  -19.2660 C   0  0  0  0  0  0  0  0  0  0  0  0
   -6.3660    4.8500  -19.3940 N   0  0  0  0  0  0  0  0  0  0  0  0
   -6.8430    4.7980  -18.0820 C   0  0  0  0  0  0  0  0  0  0  0  0
   -8.0970    4.4340  -17.5930 C   0  0  0  0  0  0  0  0  0  0  0  0
   -8.2830    4.4260  -16.2300 C   0  0  0  0  0  0  0  0  0  0  0  0
   -7.2830    4.8530  -15.3430 C   0  0  0  0  0  0  0  0  0  0  0  0
   -7.4340    4.9680  -13.8560 C   0  0  0  0  0  0  0  0  0  0  0  0
   -6.7310    5.7460  -13.2320 O   0  0  0  0  0  0  0  0  0  0  0  0
   -8.3030    4.1240  -13.2300 N   0  0  0  0  0  0  0  0  0  0  0  0
   -8.4400    4.1130  -11.8290 C   0  0  0  0  0  0  0  0  0  0  0  0
   -8.2440    5.2070  -11.0230 C   0  0  0  0  0  0  0  0  0  0  0  0
   -8.4030    4.8290   -9.7390 N   0  0  0  0  0  0  0  0  0  0  0  0
   -8.6670    3.4860   -9.6960 C   0  0  0  0  0  0  0  0  0  0  0  0
   -8.8830    2.8780   -8.3850 C   0  0  0  0  0  0  0  0  0  0  0  0
   -9.0830    1.5690   -8.3500 N   0  0  0  0  0  0  0  0  0  0  0  0
   -8.8870    3.5810   -7.3670 O   0  0  0  0  0  0  0  0  0  0  0  0
   -8.6930    3.0150  -10.9900 C   0  0  0  0  0  0  0  0  0  0  0  0
   -6.0460    5.2290  -15.8290 C   0  0  0  0  0  0  0  0  0  0  0  0
   -5.8380    5.1940  -17.1950 C   0  0  0  0  0  0  0  0  0  0  0  0
   -4.7440    5.4910  -17.9850 N   0  0  0  0  0  0  0  0  0  0  0  0
  2  1  1  1
  3  2  1  0
  4  2  1  0
  5  4  1  0
  6  5  2  0
  7  6  1  0
  8  7  1  0
  9  8  2  0
 10  9  1  0
 11 10  1  0
 12 11  2  0
 13 11  1  0
 14 13  1  0
 15 14  2  0
 16 15  1  0
 17 16  1  0
 18 17  1  0
 19 18  1  0
 20 18  2  0
 21 14  1  0
 21 17  2  0
 22 10  2  0
 23  7  2  0
 23 22  1  0
 24 23  1  0
 24  5  1  0
M  END
>  <smiles>  (73) 
CC(C)Nc1nc2ccc(C(=O)Nc3c[nH]c(C(N)=O)c3)cc2[nH]1

>  <inchikey>  (73) 
NNDZQUVYMKFTSR-UHFFFAOYSA-N

>  <alias>  (73) 
Z2217a

$$$$
Z2262a
     RDKit          3D

 21 23  0  0  0  0  0  0  0  0999 V2000
   -8.5160    7.8340  -11.7740 C   0  0  0  0  0  0  0  0  0  0  0  0
   -8.3650    6.3570  -11.6400 C   0  0  0  0  0  0  0  0  0  0  0  0
   -8.3480    5.8020  -10.4290 N   0  0  0  0  0  0  0  0  0  0  0  0
   -8.2210    4.4700  -10.5820 C   0  0  0  0  0  0  0  0  0  0  0  0
   -8.1560    3.5710   -9.3860 C   0  0  1  0  0  0  0  0  0  0  0  0
   -9.5150    3.0550   -8.9530 C   0  0  0  0  0  0  0  0  0  0  0  0
   -9.4500    2.3570   -7.5930 C   0  0  0  0  0  0  0  0  0  0  0  0
   -8.1130    1.6660   -7.4050 C   0  0  0  0  0  0  0  0  0  0  0  0
   -7.4910    1.2690   -8.6810 N   0  0  0  0  0  0  0  0  0  0  0  0
   -7.1780    2.4170   -9.5630 C   0  0  0  0  0  0  0  0  0  0  0  0
   -8.1600    4.1740  -11.9260 N   0  0  0  0  0  0  0  0  0  0  0  0
   -8.2260    5.3720  -12.6010 C   0  0  0  0  0  0  0  0  0  0  0  0
   -8.2090    5.5130  -14.0620 C   0  0  0  0  0  0  0  0  0  0  0  0
   -7.7160    6.5090  -14.5750 O   0  0  0  0  0  0  0  0  0  0  0  0
   -8.8390    4.5420  -14.7680 N   0  0  0  0  0  0  0  0  0  0  0  0
   -8.9440    4.4560  -16.1650 C   0  0  0  0  0  0  0  0  0  0  0  0
  -10.0090    3.8260  -16.8050 C   0  0  0  0  0  0  0  0  0  0  0  0
  -10.0290    3.8070  -18.1790 C   0  0  0  0  0  0  0  0  0  0  0  0
   -8.9760    4.3410  -18.8830 C   0  0  0  0  0  0  0  0  0  0  0  0
   -7.9580    4.9260  -18.1790 C   0  0  0  0  0  0  0  0  0  0  0  0
   -7.9130    4.9810  -16.8380 N   0  0  0  0  0  0  0  0  0  0  0  0
  2  1  1  0
  3  2  1  0
  4  3  2  0
  5  4  1  6
  6  5  1  0
  7  6  1  0
  8  7  1  0
  9  8  1  0
 10  9  1  0
 10  5  1  0
 11  4  1  0
 12 11  1  0
 12  2  2  0
 13 12  1  0
 14 13  2  0
 15 13  1  0
 16 15  1  0
 17 16  2  0
 18 17  1  0
 19 18  2  0
 20 19  1  0
 21 20  2  0
 21 16  1  0
M  END
>  <smiles>  (74) 
Cc1nc([C@H]2CCCNC2)[nH]c1C(=O)Nc1ccccn1

>  <inchikey>  (74) 
XCVYJDDLPGWFGF-NSHDSACASA-N

>  <alias>  (74) 
Z2262a

$$$$
Z3093a
     RDKit          3D

 26 29  0  0  0  0  0  0  0  0999 V2000
   -6.7170    5.7290  -13.8950 O   0  0  0  0  0  0  0  0  0  0  0  0
   -7.6080    4.9390  -14.2050 C   0  0  0  0  0  0  0  0  0  0  0  0
   -8.4010    4.2970  -13.2840 N   0  0  0  0  0  0  0  0  0  0  0  0
   -8.4090    4.4500  -11.8670 C   0  0  0  0  0  0  0  0  0  0  0  0
   -8.0650    5.6680  -11.2910 C   0  0  0  0  0  0  0  0  0  0  0  0
   -8.1020    5.8130   -9.9140 C   0  0  0  0  0  0  0  0  0  0  0  0
   -8.4920    4.7560   -9.1090 C   0  0  0  0  0  0  0  0  0  0  0  0
   -8.7970    3.3920  -11.0490 C   0  0  0  0  0  0  0  0  0  0  0  0
   -8.8630    3.5410   -9.6660 C   0  0  0  0  0  0  0  0  0  0  0  0
   -9.4240    2.4270   -8.7850 C   0  0  0  0  0  0  0  0  0  0  0  0
   -8.3390    1.5850   -8.3060 N   0  0  0  0  0  0  0  0  0  0  0  0
   -7.9180    4.6600  -15.6650 C   0  0  0  0  0  0  0  0  0  0  0  0
   -6.9790    4.8520  -16.7300 C   0  0  0  0  0  0  0  0  0  0  0  0
   -7.3770    4.5590  -18.0260 N   0  0  0  0  0  0  0  0  0  0  0  0
   -8.6470    4.1040  -18.3320 C   0  0  0  0  0  0  0  0  0  0  0  0
   -9.5410    3.9410  -17.3390 C   0  0  0  0  0  0  0  0  0  0  0  0
   -9.1790    4.2130  -15.9970 C   0  0  0  0  0  0  0  0  0  0  0  0
   -5.7270    5.2690  -16.7000 N   0  0  0  0  0  0  0  0  0  0  0  0
   -5.3010    5.2520  -18.0180 C   0  0  0  0  0  0  0  0  0  0  0  0
   -6.2960    4.8110  -18.8410 C   0  0  0  0  0  0  0  0  0  0  0  0
   -3.9200    5.7260  -18.3570 C   0  0  0  0  0  0  0  0  0  0  0  0
   -3.4780    6.8720  -17.5610 N   0  0  0  0  0  0  0  0  0  0  0  0
   -4.3810    8.0260  -17.6590 C   0  0  0  0  0  0  0  0  0  0  0  0
   -3.5780    9.1650  -17.0680 C   0  0  0  0  0  0  0  0  0  0  0  0
   -2.1250    8.7950  -17.3690 C   0  0  0  0  0  0  0  0  0  0  0  0
   -2.1770    7.4010  -17.9880 C   0  0  0  0  0  0  0  0  0  0  0  0
  2  1  2  0
  3  2  1  0
  4  3  1  0
  5  4  2  0
  6  5  1  0
  7  6  2  0
  8  4  1  0
  9  8  2  0
  9  7  1  0
 10  9  1  0
 11 10  1  0
 12  2  1  0
 13 12  1  0
 14 13  1  0
 15 14  1  0
 16 15  2  0
 17 16  1  0
 17 12  2  0
 18 13  2  0
 19 18  1  0
 20 14  1  0
 20 19  2  0
 21 19  1  0
 22 21  1  0
 23 22  1  0
 24 23  1  0
 25 24  1  0
 26 25  1  0
 26 22  1  0
M  END
>  <smiles>  (75) 
NCc1cccc(NC(=O)c2cccn3cc(CN4CCCC4)nc23)c1

>  <inchikey>  (75) 
CXFHCSHWVXWGOY-UHFFFAOYSA-N

>  <alias>  (75) 
Z3093a

$$$$
Z3264a
     RDKit          3D

 23 25  0  0  0  0  0  0  0  0999 V2000
   -6.8830    5.8620  -13.9120 O   0  0  0  0  0  0  0  0  0  0  0  0
   -7.6960    5.0380  -14.3230 C   0  0  0  0  0  0  0  0  0  0  0  0
   -7.8650    4.7900  -15.7870 C   0  0  0  0  0  0  0  0  0  0  0  0
   -9.1140    4.4640  -16.3040 C   0  0  0  0  0  0  0  0  0  0  0  0
   -9.2580    4.3180  -17.6690 C   0  0  0  0  0  0  0  0  0  0  0  0
  -10.8490    4.0330  -18.3270 Cl  0  0  0  0  0  0  0  0  0  0  0  0
   -8.1880    4.4520  -18.5290 C   0  0  0  0  0  0  0  0  0  0  0  0
   -6.7790    4.9360  -16.6480 C   0  0  0  0  0  0  0  0  0  0  0  0
   -6.9300    4.7610  -18.0180 C   0  0  0  0  0  0  0  0  0  0  0  0
   -5.7370    4.8910  -18.9330 C   0  0  0  0  0  0  0  0  0  0  0  0
   -5.8440    6.1160  -19.7320 N   0  0  0  0  0  0  0  0  0  0  0  0
   -8.4980    4.3170  -13.5040 N   0  0  0  0  0  0  0  0  0  0  0  0
   -8.5260    4.3810  -12.0850 C   0  0  0  0  0  0  0  0  0  0  0  0
   -8.4770    5.6160  -11.4440 C   0  0  0  0  0  0  0  0  0  0  0  0
   -8.4740    5.6900  -10.0550 C   0  0  0  0  0  0  0  0  0  0  0  0
   -8.4840    4.5120   -9.3100 C   0  0  0  0  0  0  0  0  0  0  0  0
   -8.5390    3.2840   -9.9470 C   0  0  0  0  0  0  0  0  0  0  0  0
   -8.5640    3.2140  -11.3320 C   0  0  0  0  0  0  0  0  0  0  0  0
   -8.6070    7.0040   -9.3880 C   0  0  0  0  0  0  0  0  0  0  0  0
   -8.5350    7.1440   -8.0680 N   0  0  0  0  0  0  0  0  0  0  0  0
   -8.8930    8.4160   -7.9350 N   0  0  0  0  0  0  0  0  0  0  0  0
   -9.1460    9.0270   -9.0690 N   0  0  0  0  0  0  0  0  0  0  0  0
   -8.9570    8.1410  -10.0260 N   0  0  0  0  0  0  0  0  0  0  0  0
  2  1  2  0
  3  2  1  0
  4  3  2  0
  5  4  1  0
  6  5  1  0
  7  5  2  0
  8  3  1  0
  9  8  2  0
  9  7  1  0
 10  9  1  0
 11 10  1  0
 12  2  1  0
 13 12  1  0
 14 13  2  0
 15 14  1  0
 16 15  2  0
 17 16  1  0
 18 13  1  0
 18 17  2  0
 19 15  1  0
 20 19  1  0
 21 20  2  0
 22 21  1  0
 23 22  1  0
 23 19  2  0
M  END
>  <smiles>  (76) 
NCc1cc(Cl)cc(C(=O)Nc2cccc(-c3nn[nH]n3)c2)c1

>  <inchikey>  (76) 
GXTYEIDOIJJIOR-UHFFFAOYSA-N

>  <alias>  (76) 
Z3264a

$$$$
Z3400a
     RDKit          3D

 22 25  0  0  0  0  0  0  0  0999 V2000
   -6.5720    5.2710  -13.0780 O   0  0  0  0  0  0  0  0  0  0  0  0
   -7.4470    4.6060  -13.6260 C   0  0  0  0  0  0  0  0  0  0  0  0
   -8.3590    3.8990  -12.9180 N   0  0  0  0  0  0  0  0  0  0  0  0
   -8.4860    3.8990  -11.4970 C   0  0  0  0  0  0  0  0  0  0  0  0
   -8.3430    5.0880  -10.7800 C   0  0  0  0  0  0  0  0  0  0  0  0
   -8.4360    5.0960   -9.3950 C   0  0  0  0  0  0  0  0  0  0  0  0
   -8.6500    3.8930   -8.7270 C   0  0  0  0  0  0  0  0  0  0  0  0
   -8.8280    2.7130   -9.4370 C   0  0  0  0  0  0  0  0  0  0  0  0
   -8.7040    2.6900  -10.8220 C   0  0  0  0  0  0  0  0  0  0  0  0
   -9.1290    1.5940   -8.4800 C   0  0  0  0  0  0  0  0  0  0  0  0
   -8.7060    2.1690   -7.1900 N   0  0  0  0  0  0  0  0  0  0  0  0
   -8.8570    3.6360   -7.2620 C   0  0  0  0  0  0  0  0  0  0  0  0
   -7.4680    4.5130  -15.1260 C   0  0  0  0  0  0  0  0  0  0  0  0
   -8.6090    4.1910  -15.8540 C   0  0  0  0  0  0  0  0  0  0  0  0
   -8.5830    4.1650  -17.2380 C   0  0  0  0  0  0  0  0  0  0  0  0
  -10.1990    3.8450  -18.1910 Br  0  0  0  0  0  0  0  0  0  0  0  0
   -7.4510    4.4290  -17.9710 C   0  0  0  0  0  0  0  0  0  0  0  0
   -6.2870    4.7250  -17.2700 C   0  0  0  0  0  0  0  0  0  0  0  0
   -5.0090    4.9580  -17.7160 N   0  0  0  0  0  0  0  0  0  0  0  0
   -4.1840    5.1110  -16.6310 C   0  0  0  0  0  0  0  0  0  0  0  0
   -4.9100    5.0170  -15.4800 C   0  0  0  0  0  0  0  0  0  0  0  0
   -6.2650    4.7500  -15.8600 C   0  0  0  0  0  0  0  0  0  0  0  0
  2  1  2  0
  3  2  1  0
  4  3  1  0
  5  4  2  0
  6  5  1  0
  7  6  2  0
  8  7  1  0
  9  4  1  0
  9  8  2  0
 10  8  1  0
 11 10  1  0
 12 11  1  0
 12  7  1  0
 13  2  1  0
 14 13  2  0
 15 14  1  0
 16 15  1  0
 17 15  2  0
 18 17  1  0
 19 18  1  0
 20 19  1  0
 21 20  2  0
 22 18  2  0
 22 13  1  0
 22 21  1  0
M  END
>  <smiles>  (77) 
O=C(Nc1ccc2c(c1)CNC2)c1cc(Br)cc2[nH]ccc12

>  <inchikey>  (77) 
BXMKAELKOMHUTP-UHFFFAOYSA-N

>  <alias>  (77) 
Z3400a

$$$$
Z3432a
     RDKit          3D

 23 26  0  0  0  0  0  0  0  0999 V2000
   -7.2780    6.2130  -13.2350 O   0  0  0  0  0  0  0  0  0  0  0  0
   -7.6280    5.1500  -13.7310 C   0  0  0  0  0  0  0  0  0  0  0  0
   -8.1380    4.1160  -13.0080 N   0  0  0  0  0  0  0  0  0  0  0  0
   -8.3080    4.0650  -11.5940 C   0  0  0  0  0  0  0  0  0  0  0  0
   -7.9810    5.1830  -10.8300 C   0  0  0  0  0  0  0  0  0  0  0  0
   -8.1290    5.1650   -9.4550 C   0  0  0  0  0  0  0  0  0  0  0  0
   -8.5620    3.9990   -8.8390 C   0  0  0  0  0  0  0  0  0  0  0  0
   -8.9030    2.8840   -9.5930 C   0  0  0  0  0  0  0  0  0  0  0  0
   -8.7710    2.8950  -10.9750 C   0  0  0  0  0  0  0  0  0  0  0  0
   -9.3750    1.7940   -8.6740 C   0  0  0  0  0  0  0  0  0  0  0  0
   -8.8640    2.2550   -7.3740 N   0  0  0  0  0  0  0  0  0  0  0  0
   -8.8400    3.7250   -7.3880 C   0  0  0  0  0  0  0  0  0  0  0  0
   -7.4690    4.9060  -15.2090 C   0  0  0  0  0  0  0  0  0  0  0  0
   -8.5640    4.5010  -15.9410 C   0  0  0  0  0  0  0  0  0  0  0  0
   -8.4840    4.3630  -17.3120 C   0  0  0  0  0  0  0  0  0  0  0  0
  -10.0170    3.8030  -18.2910 Br  0  0  0  0  0  0  0  0  0  0  0  0
   -7.3270    4.6090  -17.9870 C   0  0  0  0  0  0  0  0  0  0  0  0
   -6.1820    5.0370  -17.2820 C   0  0  0  0  0  0  0  0  0  0  0  0
   -4.9650    5.2820  -17.9640 C   0  0  0  0  0  0  0  0  0  0  0  0
   -3.8550    5.6870  -17.2940 C   0  0  0  0  0  0  0  0  0  0  0  0
   -3.8930    5.8460  -15.9020 C   0  0  0  0  0  0  0  0  0  0  0  0
   -5.0460    5.5970  -15.2120 C   0  0  0  0  0  0  0  0  0  0  0  0
   -6.2370    5.1960  -15.8710 C   0  0  0  0  0  0  0  0  0  0  0  0
  2  1  2  0
  3  2  1  0
  4  3  1  0
  5  4  2  0
  6  5  1  0
  7  6  2  0
  8  7  1  0
  9  4  1  0
  9  8  2  0
 10  8  1  0
 11 10  1  0
 12 11  1  0
 12  7  1  0
 13  2  1  0
 14 13  2  0
 15 14  1  0
 16 15  1  0
 17 15  2  0
 18 17  1  0
 19 18  1  0
 20 19  2  0
 21 20  1  0
 22 21  2  0
 23 18  2  0
 23 13  1  0
 23 22  1  0
M  END
>  <smiles>  (78) 
O=C(Nc1ccc2c(c1)CNC2)c1cc(Br)cc2ccccc12

>  <inchikey>  (78) 
XJBLHUNGQLAOGU-UHFFFAOYSA-N

>  <alias>  (78) 
Z3432a

$$$$
Z3440a
     RDKit          3D

 24 27  0  0  0  0  0  0  0  0999 V2000
   -6.8030    5.7600  -13.7120 O   0  0  0  0  0  0  0  0  0  0  0  0
   -7.6700    5.0140  -14.1650 C   0  0  0  0  0  0  0  0  0  0  0  0
   -8.4990    4.2920  -13.3760 N   0  0  0  0  0  0  0  0  0  0  0  0
   -8.5980    4.3740  -11.9600 C   0  0  0  0  0  0  0  0  0  0  0  0
   -8.2610    5.5520  -11.3040 C   0  0  0  0  0  0  0  0  0  0  0  0
   -8.3370    5.6350   -9.9300 C   0  0  0  0  0  0  0  0  0  0  0  0
   -8.6310    4.5050   -9.1860 C   0  0  0  0  0  0  0  0  0  0  0  0
   -8.9770    3.3080   -9.8160 C   0  0  0  0  0  0  0  0  0  0  0  0
   -8.9250    3.2500  -11.2040 C   0  0  0  0  0  0  0  0  0  0  0  0
   -9.3810    2.1080   -8.9960 C   0  0  0  0  0  0  0  0  0  0  0  0
   -8.3480    1.6330   -8.0880 N   0  0  0  0  0  0  0  0  0  0  0  0
   -8.2790    2.3890   -6.8360 C   0  0  0  0  0  0  0  0  0  0  0  0
   -7.7930    3.8060   -7.0360 C   0  0  0  0  0  0  0  0  0  0  0  0
   -8.7540    4.5170   -7.8220 O   0  0  0  0  0  0  0  0  0  0  0  0
   -7.7930    4.8300  -15.6520 C   0  0  0  0  0  0  0  0  0  0  0  0
   -8.9950    4.4580  -16.2440 C   0  0  0  0  0  0  0  0  0  0  0  0
   -9.0990    4.2990  -17.6120 C   0  0  0  0  0  0  0  0  0  0  0  0
  -10.6480    3.8850  -18.3040 Cl  0  0  0  0  0  0  0  0  0  0  0  0
   -8.0220    4.4380  -18.4700 C   0  0  0  0  0  0  0  0  0  0  0  0
   -6.8050    4.8000  -17.9020 C   0  0  0  0  0  0  0  0  0  0  0  0
   -5.5840    4.9920  -18.4490 N   0  0  0  0  0  0  0  0  0  0  0  0
   -4.6580    5.2870  -17.4940 N   0  0  0  0  0  0  0  0  0  0  0  0
   -5.2910    5.2820  -16.3340 C   0  0  0  0  0  0  0  0  0  0  0  0
   -6.6640    4.9820  -16.5130 C   0  0  0  0  0  0  0  0  0  0  0  0
  2  1  2  0
  3  2  1  0
  4  3  1  0
  5  4  2  0
  6  5  1  0
  7  6  2  0
  8  7  1  0
  9  4  1  0
  9  8  2  0
 10  8  1  0
 11 10  1  0
 12 11  1  0
 13 12  1  0
 14 13  1  0
 14  7  1  0
 15  2  1  0
 16 15  2  0
 17 16  1  0
 18 17  1  0
 19 17  2  0
 20 19  1  0
 21 20  1  0
 22 21  1  0
 23 22  2  0
 24 20  2  0
 24 15  1  0
 24 23  1  0
M  END
>  <smiles>  (79) 
O=C(Nc1ccc2c(c1)CNCCO2)c1cc(Cl)cc2[nH]ncc12

>  <inchikey>  (79) 
NDKXPXSHGRTVLE-UHFFFAOYSA-N

>  <alias>  (79) 
Z3440a

$$$$
Z3441a
     RDKit          3D

 22 25  0  0  0  0  0  0  0  0999 V2000
   -6.8080    5.6580  -13.3980 O   0  0  0  0  0  0  0  0  0  0  0  0
   -7.5970    4.8280  -13.8450 C   0  0  0  0  0  0  0  0  0  0  0  0
   -8.3040    3.9750  -13.0650 N   0  0  0  0  0  0  0  0  0  0  0  0
   -8.4340    4.0090  -11.6520 C   0  0  0  0  0  0  0  0  0  0  0  0
   -8.1980    5.1950  -10.9580 C   0  0  0  0  0  0  0  0  0  0  0  0
   -8.3010    5.2310   -9.5780 C   0  0  0  0  0  0  0  0  0  0  0  0
   -8.6090    4.0590   -8.8950 C   0  0  0  0  0  0  0  0  0  0  0  0
   -8.8660    2.8810   -9.5830 C   0  0  0  0  0  0  0  0  0  0  0  0
   -8.7390    2.8260  -10.9650 C   0  0  0  0  0  0  0  0  0  0  0  0
   -9.2220    1.8010   -8.6020 C   0  0  0  0  0  0  0  0  0  0  0  0
   -8.7110    2.3640   -7.3430 N   0  0  0  0  0  0  0  0  0  0  0  0
   -8.8050    3.8280   -7.4220 C   0  0  0  0  0  0  0  0  0  0  0  0
   -7.7620    4.6810  -15.3280 C   0  0  0  0  0  0  0  0  0  0  0  0
   -8.9570    4.2280  -15.8740 C   0  0  0  0  0  0  0  0  0  0  0  0
   -9.0970    4.1070  -17.2410 C   0  0  0  0  0  0  0  0  0  0  0  0
  -10.2950    3.7020  -17.7520 F   0  0  0  0  0  0  0  0  0  0  0  0
   -8.0830    4.3570  -18.1280 C   0  0  0  0  0  0  0  0  0  0  0  0
   -6.8690    4.7920  -17.6160 C   0  0  0  0  0  0  0  0  0  0  0  0
   -5.6860    5.0730  -18.2080 N   0  0  0  0  0  0  0  0  0  0  0  0
   -4.7510    5.4380  -17.2890 N   0  0  0  0  0  0  0  0  0  0  0  0
   -5.3270    5.3420  -16.1030 C   0  0  0  0  0  0  0  0  0  0  0  0
   -6.6790    4.9370  -16.2300 C   0  0  0  0  0  0  0  0  0  0  0  0
  2  1  2  0
  3  2  1  0
  4  3  1  0
  5  4  2  0
  6  5  1  0
  7  6  2  0
  8  7  1  0
  9  4  1  0
  9  8  2  0
 10  8  1  0
 11 10  1  0
 12 11  1  0
 12  7  1  0
 13  2  1  0
 14 13  2  0
 15 14  1  0
 16 15  1  0
 17 15  2  0
 18 17  1  0
 19 18  1  0
 20 19  1  0
 21 20  2  0
 22 18  2  0
 22 13  1  0
 22 21  1  0
M  END
>  <smiles>  (80) 
O=C(Nc1ccc2c(c1)CNC2)c1cc(F)cc2[nH]ncc12

>  <inchikey>  (80) 
UHVFGIOFMTYLJX-UHFFFAOYSA-N

>  <alias>  (80) 
Z3441a

$$$$
Z3452a
     RDKit          3D

 22 25  0  0  0  0  0  0  0  0999 V2000
   -6.7350    5.4690  -13.3770 O   0  0  0  0  0  0  0  0  0  0  0  0
   -7.5840    4.7080  -13.8370 C   0  0  0  0  0  0  0  0  0  0  0  0
   -8.3680    3.9240  -13.0590 N   0  0  0  0  0  0  0  0  0  0  0  0
   -8.4800    3.9640  -11.6400 C   0  0  0  0  0  0  0  0  0  0  0  0
   -8.2220    5.1430  -10.9420 C   0  0  0  0  0  0  0  0  0  0  0  0
   -8.3020    5.1730   -9.5590 C   0  0  0  0  0  0  0  0  0  0  0  0
   -8.5870    3.9960   -8.8770 C   0  0  0  0  0  0  0  0  0  0  0  0
   -8.8500    2.8210   -9.5660 C   0  0  0  0  0  0  0  0  0  0  0  0
   -8.7700    2.7800  -10.9510 C   0  0  0  0  0  0  0  0  0  0  0  0
   -9.1820    1.7310   -8.5860 C   0  0  0  0  0  0  0  0  0  0  0  0
   -8.6680    2.2970   -7.3320 N   0  0  0  0  0  0  0  0  0  0  0  0
   -8.7790    3.7600   -7.4050 C   0  0  0  0  0  0  0  0  0  0  0  0
   -7.7510    4.5900  -15.3240 C   0  0  0  0  0  0  0  0  0  0  0  0
   -8.9490    4.1630  -15.8890 C   0  0  0  0  0  0  0  0  0  0  0  0
   -9.0920    4.1060  -17.2610 C   0  0  0  0  0  0  0  0  0  0  0  0
  -10.2880    3.7280  -17.7950 F   0  0  0  0  0  0  0  0  0  0  0  0
   -8.0700    4.3850  -18.1300 C   0  0  0  0  0  0  0  0  0  0  0  0
   -6.8640    4.8000  -17.5850 C   0  0  0  0  0  0  0  0  0  0  0  0
   -5.6600    5.1390  -18.1030 N   0  0  0  0  0  0  0  0  0  0  0  0
   -4.7920    5.4360  -17.1290 N   0  0  0  0  0  0  0  0  0  0  0  0
   -5.3910    5.2850  -15.9750 N   0  0  0  0  0  0  0  0  0  0  0  0
   -6.6950    4.9010  -16.2010 C   0  0  0  0  0  0  0  0  0  0  0  0
  2  1  2  0
  3  2  1  0
  4  3  1  0
  5  4  2  0
  6  5  1  0
  7  6  2  0
  8  7  1  0
  9  4  1  0
  9  8  2  0
 10  8  1  0
 11 10  1  0
 12 11  1  0
 12  7  1  0
 13  2  1  0
 14 13  2  0
 15 14  1  0
 16 15  1  0
 17 15  2  0
 18 17  1  0
 19 18  1  0
 20 19  1  0
 21 20  2  0
 22 18  2  0
 22 13  1  0
 22 21  1  0
M  END
>  <smiles>  (81) 
O=C(Nc1ccc2c(c1)CNC2)c1cc(F)cc2[nH]nnc12

>  <inchikey>  (81) 
DHEAQALHKCHLOS-UHFFFAOYSA-N

>  <alias>  (81) 
Z3452a

$$$$
Z3465a
     RDKit          3D

 21 24  0  0  0  0  0  0  0  0999 V2000
   -6.5930    5.7280  -12.8680 O   0  0  0  0  0  0  0  0  0  0  0  0
   -7.3720    4.9260  -13.3680 C   0  0  0  0  0  0  0  0  0  0  0  0
   -8.1760    4.1220  -12.6350 N   0  0  0  0  0  0  0  0  0  0  0  0
   -8.2760    4.0850  -11.2220 C   0  0  0  0  0  0  0  0  0  0  0  0
   -7.9550    5.2160  -10.4740 C   0  0  0  0  0  0  0  0  0  0  0  0
   -8.0130    5.1820   -9.0910 C   0  0  0  0  0  0  0  0  0  0  0  0
   -8.3850    4.0000   -8.4650 C   0  0  0  0  0  0  0  0  0  0  0  0
   -8.6580    2.8570   -9.2020 C   0  0  0  0  0  0  0  0  0  0  0  0
   -8.6110    2.8800  -10.5910 C   0  0  0  0  0  0  0  0  0  0  0  0
   -8.9790    1.7260   -8.2670 C   0  0  0  0  0  0  0  0  0  0  0  0
   -9.2910    2.4460   -7.0250 N   0  0  0  0  0  0  0  0  0  0  0  0
   -8.5040    3.6880   -7.0010 C   0  0  0  0  0  0  0  0  0  0  0  0
   -7.4090    4.7410  -14.8530 C   0  0  0  0  0  0  0  0  0  0  0  0
   -6.3340    5.2060  -15.5950 C   0  0  0  0  0  0  0  0  0  0  0  0
   -6.3240    5.1460  -16.9780 C   0  0  0  0  0  0  0  0  0  0  0  0
   -7.4270    4.6070  -17.6360 C   0  0  0  0  0  0  0  0  0  0  0  0
   -7.5510    4.4480  -19.0250 N   0  0  0  0  0  0  0  0  0  0  0  0
   -8.7130    3.9330  -19.3100 C   0  0  0  0  0  0  0  0  0  0  0  0
   -9.7710    3.5840  -17.9750 S   0  0  0  0  0  0  0  0  0  0  0  0
   -8.5270    4.1650  -16.8910 C   0  0  0  0  0  0  0  0  0  0  0  0
   -8.5440    4.2540  -15.5040 C   0  0  0  0  0  0  0  0  0  0  0  0
  2  1  2  0
  3  2  1  0
  4  3  1  0
  5  4  2  0
  6  5  1  0
  7  6  2  0
  8  7  1  0
  9  4  1  0
  9  8  2  0
 10  8  1  0
 11 10  1  0
 12 11  1  0
 12  7  1  0
 13  2  1  0
 14 13  2  0
 15 14  1  0
 16 15  2  0
 17 16  1  0
 18 17  2  0
 19 18  1  0
 20 19  1  0
 20 16  1  0
 21 20  2  0
 21 13  1  0
M  END
>  <smiles>  (82) 
O=C(Nc1ccc2c(c1)CNC2)c1ccc2ncsc2c1

>  <inchikey>  (82) 
WOBUXKXPKQOMFV-UHFFFAOYSA-N

>  <alias>  (82) 
Z3465a

$$$$
Z3476a
     RDKit          3D

 21 24  0  0  0  0  0  0  0  0999 V2000
   -6.5980    5.2280  -13.2810 O   0  0  0  0  0  0  0  0  0  0  0  0
   -7.5730    4.6190  -13.7080 C   0  0  0  0  0  0  0  0  0  0  0  0
   -8.4670    3.9920  -12.9100 N   0  0  0  0  0  0  0  0  0  0  0  0
   -8.5620    4.0230  -11.4920 C   0  0  0  0  0  0  0  0  0  0  0  0
   -8.3210    5.1950  -10.7750 C   0  0  0  0  0  0  0  0  0  0  0  0
   -8.4210    5.2020   -9.3910 C   0  0  0  0  0  0  0  0  0  0  0  0
   -8.6930    4.0110   -8.7300 C   0  0  0  0  0  0  0  0  0  0  0  0
   -8.9160    2.8400   -9.4400 C   0  0  0  0  0  0  0  0  0  0  0  0
   -8.8030    2.8170  -10.8230 C   0  0  0  0  0  0  0  0  0  0  0  0
   -9.2040    1.7200   -8.4810 C   0  0  0  0  0  0  0  0  0  0  0  0
   -8.7030    2.2820   -7.2180 N   0  0  0  0  0  0  0  0  0  0  0  0
   -8.8640    3.7450   -7.2620 C   0  0  0  0  0  0  0  0  0  0  0  0
   -7.7880    4.5030  -15.1860 C   0  0  0  0  0  0  0  0  0  0  0  0
   -9.0160    4.1220  -15.7030 C   0  0  0  0  0  0  0  0  0  0  0  0
   -9.2440    4.0220  -17.0730 C   0  0  0  0  0  0  0  0  0  0  0  0
   -8.2410    4.2630  -17.9890 C   0  0  0  0  0  0  0  0  0  0  0  0
   -7.0020    4.6410  -17.4820 C   0  0  0  0  0  0  0  0  0  0  0  0
   -5.8160    4.9570  -18.0950 N   0  0  0  0  0  0  0  0  0  0  0  0
   -4.9430    5.2550  -17.1230 C   0  0  0  0  0  0  0  0  0  0  0  0
   -5.4330    5.1250  -15.9120 N   0  0  0  0  0  0  0  0  0  0  0  0
   -6.7650    4.7680  -16.1100 C   0  0  0  0  0  0  0  0  0  0  0  0
  2  1  2  0
  3  2  1  0
  4  3  1  0
  5  4  2  0
  6  5  1  0
  7  6  2  0
  8  7  1  0
  9  4  1  0
  9  8  2  0
 10  8  1  0
 11 10  1  0
 12 11  1  0
 12  7  1  0
 13  2  1  0
 14 13  2  0
 15 14  1  0
 16 15  2  0
 17 16  1  0
 18 17  1  0
 19 18  1  0
 20 19  2  0
 21 17  2  0
 21 13  1  0
 21 20  1  0
M  END
>  <smiles>  (83) 
O=C(Nc1ccc2c(c1)CNC2)c1cccc2[nH]cnc12

>  <inchikey>  (83) 
CACCFMCUTIQAGX-UHFFFAOYSA-N

>  <alias>  (83) 
Z3476a

$$$$
Z3477a
     RDKit          3D

 24 27  0  0  0  0  0  0  0  0999 V2000
   -5.8390    6.7550  -18.7130 C   0  0  0  0  0  0  0  0  0  0  0  0
   -5.9120    5.2370  -18.4610 C   0  0  2  0  0  0  0  0  0  0  0  0
   -4.5190    4.6340  -18.2080 C   0  0  0  0  0  0  0  0  0  0  0  0
   -6.5560    4.5590  -19.6820 C   0  0  0  0  0  0  0  0  0  0  0  0
   -6.0580    4.4710  -20.7880 O   0  0  0  0  0  0  0  0  0  0  0  0
   -7.7930    4.1540  -19.3240 N   0  0  0  0  0  0  0  0  0  0  0  0
   -7.9960    4.2820  -17.9370 C   0  0  0  0  0  0  0  0  0  0  0  0
   -9.0750    3.8700  -17.1830 C   0  0  0  0  0  0  0  0  0  0  0  0
   -9.0040    4.0520  -15.8170 C   0  0  0  0  0  0  0  0  0  0  0  0
   -7.9230    4.6910  -15.2230 C   0  0  0  0  0  0  0  0  0  0  0  0
   -7.8150    4.9250  -13.7490 C   0  0  0  0  0  0  0  0  0  0  0  0
   -6.9390    5.6630  -13.3110 O   0  0  0  0  0  0  0  0  0  0  0  0
   -8.6450    4.2020  -12.9590 N   0  0  0  0  0  0  0  0  0  0  0  0
   -8.6830    4.1700  -11.5380 C   0  0  0  0  0  0  0  0  0  0  0  0
   -8.3900    5.3220  -10.8140 C   0  0  0  0  0  0  0  0  0  0  0  0
   -8.4430    5.3130   -9.4310 C   0  0  0  0  0  0  0  0  0  0  0  0
   -8.7030    4.1170   -8.7760 C   0  0  0  0  0  0  0  0  0  0  0  0
   -8.9880    2.9620   -9.4920 C   0  0  0  0  0  0  0  0  0  0  0  0
   -8.9380    2.9590  -10.8780 C   0  0  0  0  0  0  0  0  0  0  0  0
   -9.2740    1.8370   -8.5360 C   0  0  0  0  0  0  0  0  0  0  0  0
   -8.7270    2.3670   -7.2780 N   0  0  0  0  0  0  0  0  0  0  0  0
   -8.8040    3.8360   -7.3040 C   0  0  0  0  0  0  0  0  0  0  0  0
   -6.8420    5.0980  -16.0100 C   0  0  0  0  0  0  0  0  0  0  0  0
   -6.8850    4.8870  -17.3740 C   0  0  0  0  0  0  0  0  0  0  0  0
  2  1  1  6
  3  2  1  0
  4  2  1  0
  5  4  2  0
  6  4  1  0
  7  6  1  0
  8  7  2  0
  9  8  1  0
 10  9  2  0
 11 10  1  0
 12 11  2  0
 13 11  1  0
 14 13  1  0
 15 14  2  0
 16 15  1  0
 17 16  2  0
 18 17  1  0
 19 14  1  0
 19 18  2  0
 20 18  1  0
 21 20  1  0
 22 21  1  0
 22 17  1  0
 23 10  1  0
 24  7  1  0
 24  2  1  0
 24 23  2  0
M  END
>  <smiles>  (84) 
CC1(C)C(=O)Nc2ccc(C(=O)Nc3ccc4c(c3)CNC4)cc21

>  <inchikey>  (84) 
WHUUMKMADJLIFG-UHFFFAOYSA-N

>  <alias>  (84) 
Z3477a

$$$$
Z3485a
     RDKit          3D

 23 26  0  0  0  0  0  0  0  0999 V2000
   -6.5800    5.2370  -13.1980 O   0  0  0  0  0  0  0  0  0  0  0  0
   -7.4780    4.5830  -13.7230 C   0  0  0  0  0  0  0  0  0  0  0  0
   -8.3710    3.8590  -13.0100 N   0  0  0  0  0  0  0  0  0  0  0  0
   -8.4960    3.8750  -11.5940 C   0  0  0  0  0  0  0  0  0  0  0  0
   -8.2410    5.0590  -10.9030 C   0  0  0  0  0  0  0  0  0  0  0  0
   -8.3690    5.1120   -9.5260 C   0  0  0  0  0  0  0  0  0  0  0  0
   -8.6300    3.9380   -8.8350 C   0  0  0  0  0  0  0  0  0  0  0  0
   -8.8630    2.7500   -9.5150 C   0  0  0  0  0  0  0  0  0  0  0  0
   -8.7600    2.6890  -10.8970 C   0  0  0  0  0  0  0  0  0  0  0  0
   -9.1630    1.6630   -8.5230 C   0  0  0  0  0  0  0  0  0  0  0  0
   -8.6590    2.2500   -7.2700 N   0  0  0  0  0  0  0  0  0  0  0  0
   -8.7960    3.7120   -7.3590 C   0  0  0  0  0  0  0  0  0  0  0  0
   -7.5520    4.5200  -15.2180 C   0  0  0  0  0  0  0  0  0  0  0  0
   -8.7220    4.2290  -15.9250 C   0  0  0  0  0  0  0  0  0  0  0  0
   -8.7240    4.2220  -17.3030 C   0  0  0  0  0  0  0  0  0  0  0  0
  -10.3540    3.8510  -18.2170 Br  0  0  0  0  0  0  0  0  0  0  0  0
   -7.5950    4.4660  -18.0490 C   0  0  0  0  0  0  0  0  0  0  0  0
   -6.4360    4.7740  -17.3730 C   0  0  0  0  0  0  0  0  0  0  0  0
   -5.1550    5.0660  -17.8120 N   0  0  0  0  0  0  0  0  0  0  0  0
   -4.3390    5.2430  -16.7300 C   0  0  0  0  0  0  0  0  0  0  0  0
   -3.1310    5.5030  -16.7580 O   0  0  0  0  0  0  0  0  0  0  0  0
   -5.0960    5.0610  -15.6090 N   0  0  0  0  0  0  0  0  0  0  0  0
   -6.3970    4.7940  -15.9730 C   0  0  0  0  0  0  0  0  0  0  0  0
  2  1  2  0
  3  2  1  0
  4  3  1  0
  5  4  2  0
  6  5  1  0
  7  6  2  0
  8  7  1  0
  9  4  1  0
  9  8  2  0
 10  8  1  0
 11 10  1  0
 12 11  1  0
 12  7  1  0
 13  2  1  0
 14 13  2  0
 15 14  1  0
 16 15  1  0
 17 15  2  0
 18 17  1  0
 19 18  1  0
 20 19  1  0
 21 20  2  0
 22 20  1  0
 23 18  2  0
 23 13  1  0
 23 22  1  0
M  END
>  <smiles>  (85) 
O=C(Nc1ccc2c(c1)CNC2)c1cc(Br)cc2[nH]c(=O)[nH]c12

>  <inchikey>  (85) 
ICDGBAJYMSURGO-UHFFFAOYSA-N

>  <alias>  (85) 
Z3485a

$$$$
Z3486a
     RDKit          3D

 22 25  0  0  0  0  0  0  0  0999 V2000
   -3.3250    5.3090  -17.5030 C   0  0  0  0  0  0  0  0  0  0  0  0
   -4.7130    5.0630  -17.1390 N   0  0  0  0  0  0  0  0  0  0  0  0
   -5.2290    5.0110  -15.9110 C   0  0  0  0  0  0  0  0  0  0  0  0
   -6.5780    4.7440  -16.0420 C   0  0  0  0  0  0  0  0  0  0  0  0
   -7.6600    4.5150  -15.1450 C   0  0  0  0  0  0  0  0  0  0  0  0
   -7.4940    4.6750  -13.6640 C   0  0  0  0  0  0  0  0  0  0  0  0
   -6.5910    5.3840  -13.2270 O   0  0  0  0  0  0  0  0  0  0  0  0
   -8.3330    3.9640  -12.8740 N   0  0  0  0  0  0  0  0  0  0  0  0
   -8.4540    3.9990  -11.4550 C   0  0  0  0  0  0  0  0  0  0  0  0
   -8.2740    5.1850  -10.7430 C   0  0  0  0  0  0  0  0  0  0  0  0
   -8.3900    5.1980   -9.3610 C   0  0  0  0  0  0  0  0  0  0  0  0
   -8.6240    4.0040   -8.6920 C   0  0  0  0  0  0  0  0  0  0  0  0
   -8.8290    2.8270   -9.3990 C   0  0  0  0  0  0  0  0  0  0  0  0
   -8.7040    2.7980  -10.7800 C   0  0  0  0  0  0  0  0  0  0  0  0
   -9.1290    1.7100   -8.4390 C   0  0  0  0  0  0  0  0  0  0  0  0
   -8.6960    2.2860   -7.1530 N   0  0  0  0  0  0  0  0  0  0  0  0
   -8.8130    3.7500   -7.2220 C   0  0  0  0  0  0  0  0  0  0  0  0
   -8.9060    4.2670  -15.6990 C   0  0  0  0  0  0  0  0  0  0  0  0
   -9.1040    4.1630  -17.0730 C   0  0  0  0  0  0  0  0  0  0  0  0
   -8.0730    4.3280  -17.9640 C   0  0  0  0  0  0  0  0  0  0  0  0
   -6.7910    4.6270  -17.4420 C   0  0  0  0  0  0  0  0  0  0  0  0
   -5.6350    4.8310  -18.1140 N   0  0  0  0  0  0  0  0  0  0  0  0
  2  1  1  0
  3  2  1  0
  4  3  2  0
  5  4  1  0
  6  5  1  0
  7  6  2  0
  8  6  1  0
  9  8  1  0
 10  9  2  0
 11 10  1  0
 12 11  2  0
 13 12  1  0
 14  9  1  0
 14 13  2  0
 15 13  1  0
 16 15  1  0
 17 16  1  0
 17 12  1  0
 18  5  2  0
 19 18  1  0
 20 19  2  0
 21 20  1  0
 21  4  1  0
 22 21  2  0
 22  2  1  0
M  END
>  <smiles>  (86) 
Cn1cc2c(C(=O)Nc3ccc4c(c3)CNC4)cccc2n1

>  <inchikey>  (86) 
PKNKNNODUGYURN-UHFFFAOYSA-N

>  <alias>  (86) 
Z3486a

$$$$
Z3489a
     RDKit          3D

 30 34  0  0  0  0  0  0  0  0999 V2000
   -6.8070    2.0540  -13.5830 O   0  0  0  0  0  0  0  0  0  0  0  0
   -6.5800    3.1800  -13.1450 C   0  0  0  0  0  0  0  0  0  0  0  0
   -5.7260    3.4370  -12.1500 N   0  0  0  0  0  0  0  0  0  0  0  0
   -4.4130    2.8440  -11.9060 C   0  0  1  0  0  0  0  0  0  0  0  0
   -4.3620    2.0860  -10.5890 C   0  0  0  0  0  0  0  0  0  0  0  0
   -2.9720    1.5450  -10.3350 C   0  0  0  0  0  0  0  0  0  0  0  0
   -2.0740    1.8580  -11.3990 O   0  0  0  0  0  0  0  0  0  0  0  0
   -2.5400    1.3880  -12.6680 C   0  0  0  0  0  0  0  0  0  0  0  0
   -3.8290    2.0700  -13.0770 C   0  0  0  0  0  0  0  0  0  0  0  0
   -7.4220    4.4010  -13.5660 C   0  0  2  0  0  0  0  0  0  0  0  0
   -8.6410    4.3410  -12.7940 N   0  0  0  0  0  0  0  0  0  0  0  0
   -8.6070    4.2910  -11.4000 C   0  0  0  0  0  0  0  0  0  0  0  0
   -8.1580    5.4050  -10.6750 C   0  0  0  0  0  0  0  0  0  0  0  0
   -8.1490    5.3800   -9.2900 C   0  0  0  0  0  0  0  0  0  0  0  0
   -8.4820    4.2010   -8.6310 C   0  0  0  0  0  0  0  0  0  0  0  0
   -8.8680    3.0730   -9.3440 C   0  0  0  0  0  0  0  0  0  0  0  0
   -8.9350    3.1010  -10.7320 C   0  0  0  0  0  0  0  0  0  0  0  0
   -9.2120    1.9670   -8.3850 C   0  0  0  0  0  0  0  0  0  0  0  0
   -8.5840    2.4360   -7.1400 N   0  0  0  0  0  0  0  0  0  0  0  0
   -8.5550    3.9090   -7.1580 C   0  0  0  0  0  0  0  0  0  0  0  0
   -7.5530    4.4840  -15.0880 C   0  0  0  0  0  0  0  0  0  0  0  0
   -8.7550    4.2850  -15.7710 C   0  0  0  0  0  0  0  0  0  0  0  0
   -8.8080    4.3850  -17.1730 C   0  0  0  0  0  0  0  0  0  0  0  0
  -10.3060    4.1120  -18.0260 Cl  0  0  0  0  0  0  0  0  0  0  0  0
   -7.6920    4.6460  -17.9410 C   0  0  0  0  0  0  0  0  0  0  0  0
   -6.4930    4.8350  -17.2620 C   0  0  0  0  0  0  0  0  0  0  0  0
   -5.2380    5.0250  -17.7340 N   0  0  0  0  0  0  0  0  0  0  0  0
   -4.3360    5.0890  -16.7130 N   0  0  0  0  0  0  0  0  0  0  0  0
   -5.0230    4.9520  -15.5910 C   0  0  0  0  0  0  0  0  0  0  0  0
   -6.4010    4.7670  -15.8610 C   0  0  0  0  0  0  0  0  0  0  0  0
  2  1  2  0
  3  2  1  0
  4  3  1  6
  5  4  1  0
  6  5  1  0
  7  6  1  0
  8  7  1  0
  9  8  1  0
  9  4  1  0
 10  2  1  0
 10 11  1  1
 12 11  1  0
 13 12  2  0
 14 13  1  0
 15 14  2  0
 16 15  1  0
 17 12  1  0
 17 16  2  0
 18 16  1  0
 19 18  1  0
 20 19  1  0
 20 15  1  0
 21 10  1  0
 22 21  2  0
 23 22  1  0
 24 23  1  0
 25 23  2  0
 26 25  1  0
 27 26  1  0
 28 27  1  0
 29 28  2  0
 30 26  2  0
 30 21  1  0
 30 29  1  0
M  END
>  <smiles>  (87) 
O=C(NC1CCOCC1)[C@H](Nc1ccc2c(c1)CNC2)c1cc(Cl)cc2[nH]ncc12

>  <inchikey>  (87) 
SXMYZXOHVWFIQO-OAQYLSRUSA-N

>  <alias>  (87) 
Z3489a

$$$$
Z3503a
     RDKit          3D

 22 25  0  0  0  0  0  0  0  0999 V2000
   -6.7790    5.3720  -13.4320 O   0  0  0  0  0  0  0  0  0  0  0  0
   -7.6740    4.6310  -13.8330 C   0  0  0  0  0  0  0  0  0  0  0  0
   -8.4490    3.8810  -13.0170 N   0  0  0  0  0  0  0  0  0  0  0  0
   -8.5100    3.9040  -11.5990 C   0  0  0  0  0  0  0  0  0  0  0  0
   -8.0890    5.0420  -10.9180 C   0  0  0  0  0  0  0  0  0  0  0  0
   -8.1570    5.0950   -9.5370 C   0  0  0  0  0  0  0  0  0  0  0  0
   -8.5650    3.9650   -8.8390 C   0  0  0  0  0  0  0  0  0  0  0  0
   -8.9790    2.8260   -9.5140 C   0  0  0  0  0  0  0  0  0  0  0  0
   -8.9510    2.7720  -10.9010 C   0  0  0  0  0  0  0  0  0  0  0  0
   -9.4380    1.7960   -8.5240 C   0  0  0  0  0  0  0  0  0  0  0  0
   -8.8930    2.3220   -7.2640 N   0  0  0  0  0  0  0  0  0  0  0  0
   -8.7600    3.7790   -7.3600 C   0  0  0  0  0  0  0  0  0  0  0  0
   -7.8890    4.4680  -15.3030 C   0  0  0  0  0  0  0  0  0  0  0  0
   -9.0760    4.0220  -15.8740 C   0  0  0  0  0  0  0  0  0  0  0  0
   -9.2220    3.8960  -17.2510 C   0  0  0  0  0  0  0  0  0  0  0  0
   -8.1770    4.1380  -18.1150 C   0  0  0  0  0  0  0  0  0  0  0  0
   -6.9820    4.5730  -17.5650 C   0  0  0  0  0  0  0  0  0  0  0  0
   -5.7660    4.9200  -18.1370 N   0  0  0  0  0  0  0  0  0  0  0  0
   -4.8810    5.2410  -17.1440 C   0  0  0  0  0  0  0  0  0  0  0  0
   -3.6910    5.5400  -17.2850 O   0  0  0  0  0  0  0  0  0  0  0  0
   -5.5300    5.1170  -15.9520 N   0  0  0  0  0  0  0  0  0  0  0  0
   -6.8270    4.7260  -16.1790 C   0  0  0  0  0  0  0  0  0  0  0  0
  2  1  2  0
  3  2  1  0
  4  3  1  0
  5  4  2  0
  6  5  1  0
  7  6  2  0
  8  7  1  0
  9  4  1  0
  9  8  2  0
 10  8  1  0
 11 10  1  0
 12 11  1  0
 12  7  1  0
 13  2  1  0
 14 13  2  0
 15 14  1  0
 16 15  2  0
 17 16  1  0
 18 17  1  0
 19 18  1  0
 20 19  2  0
 21 19  1  0
 22 17  2  0
 22 21  1  0
 22 13  1  0
M  END
>  <smiles>  (88) 
O=C(Nc1ccc2c(c1)CNC2)c1cccc2[nH]c(=O)[nH]c12

>  <inchikey>  (88) 
HEIBORWUUKURSH-UHFFFAOYSA-N

>  <alias>  (88) 
Z3503a

$$$$
Z3506a
     RDKit          3D

 27 30  0  0  0  0  0  0  0  0999 V2000
   -2.3750    3.3160  -13.4890 C   0  0  0  0  0  0  0  0  0  0  0  0
   -3.3780    2.1950  -13.6370 C   0  0  0  0  0  0  0  0  0  0  0  0
   -4.4910    2.2920  -12.6190 C   0  0  0  0  0  0  0  0  0  0  0  0
   -5.3640    3.4360  -12.8440 N   0  0  0  0  0  0  0  0  0  0  0  0
   -6.6240    3.2990  -13.2610 C   0  0  0  0  0  0  0  0  0  0  0  0
   -7.1580    2.2170  -13.4800 O   0  0  0  0  0  0  0  0  0  0  0  0
   -7.3990    4.6110  -13.4470 C   0  0  2  0  0  0  0  0  0  0  0  0
   -8.6200    4.5450  -12.6770 N   0  0  0  0  0  0  0  0  0  0  0  0
   -8.5800    4.4570  -11.2920 C   0  0  0  0  0  0  0  0  0  0  0  0
   -8.1270    5.5560  -10.5430 C   0  0  0  0  0  0  0  0  0  0  0  0
   -8.0910    5.4790   -9.1610 C   0  0  0  0  0  0  0  0  0  0  0  0
   -8.4240    4.2770   -8.5430 C   0  0  0  0  0  0  0  0  0  0  0  0
   -8.8550    3.1850   -9.2850 C   0  0  0  0  0  0  0  0  0  0  0  0
   -8.9130    3.2480  -10.6700 C   0  0  0  0  0  0  0  0  0  0  0  0
   -9.1990    2.0540   -8.3610 C   0  0  0  0  0  0  0  0  0  0  0  0
   -8.5380    2.4770   -7.1180 N   0  0  0  0  0  0  0  0  0  0  0  0
   -8.5060    3.9460   -7.0800 C   0  0  0  0  0  0  0  0  0  0  0  0
   -7.5740    4.9130  -14.9270 C   0  0  0  0  0  0  0  0  0  0  0  0
   -8.6110    4.3540  -15.6700 C   0  0  0  0  0  0  0  0  0  0  0  0
   -8.7160    4.5960  -17.0450 C   0  0  0  0  0  0  0  0  0  0  0  0
  -10.0630    3.9360  -17.9400 Cl  0  0  0  0  0  0  0  0  0  0  0  0
   -7.7850    5.3540  -17.7310 C   0  0  0  0  0  0  0  0  0  0  0  0
   -6.7530    5.9170  -16.9850 C   0  0  0  0  0  0  0  0  0  0  0  0
   -5.7230    6.7110  -17.3590 N   0  0  0  0  0  0  0  0  0  0  0  0
   -4.9120    6.9920  -16.3000 N   0  0  0  0  0  0  0  0  0  0  0  0
   -5.4370    6.3900  -15.2470 C   0  0  0  0  0  0  0  0  0  0  0  0
   -6.6100    5.6850  -15.6070 C   0  0  0  0  0  0  0  0  0  0  0  0
  2  1  1  0
  3  2  1  0
  4  3  1  0
  5  4  1  0
  6  5  2  0
  7  5  1  0
  7  8  1  6
  9  8  1  0
 10  9  2  0
 11 10  1  0
 12 11  2  0
 13 12  1  0
 14  9  1  0
 14 13  2  0
 15 13  1  0
 16 15  1  0
 17 16  1  0
 17 12  1  0
 18  7  1  0
 19 18  2  0
 20 19  1  0
 21 20  1  0
 22 20  2  0
 23 22  1  0
 24 23  1  0
 25 24  1  0
 26 25  2  0
 27 18  1  0
 27 23  2  0
 27 26  1  0
M  END
>  <smiles>  (89) 
CCCNC(=O)[C@H](Nc1ccc2c(c1)CNC2)c1cc(Cl)cc2[nH]ncc12

>  <inchikey>  (89) 
SXCDIRRWDDNQMG-LJQANCHMSA-N

>  <alias>  (89) 
Z3506a

$$$$
Z3515a
     RDKit          3D

 21 24  0  0  0  0  0  0  0  0999 V2000
   -6.3760    5.4350  -12.5860 O   0  0  0  0  0  0  0  0  0  0  0  0
   -7.2350    4.7540  -13.1300 C   0  0  0  0  0  0  0  0  0  0  0  0
   -8.1530    4.0010  -12.4690 N   0  0  0  0  0  0  0  0  0  0  0  0
   -8.3770    3.9630  -11.0750 C   0  0  0  0  0  0  0  0  0  0  0  0
   -8.2030    5.1160  -10.3110 C   0  0  0  0  0  0  0  0  0  0  0  0
   -8.3770    5.0750   -8.9400 C   0  0  0  0  0  0  0  0  0  0  0  0
   -8.6530    3.8550   -8.3350 C   0  0  0  0  0  0  0  0  0  0  0  0
   -8.8180    2.7040   -9.0920 C   0  0  0  0  0  0  0  0  0  0  0  0
   -8.6620    2.7350  -10.4700 C   0  0  0  0  0  0  0  0  0  0  0  0
   -9.1690    1.5580   -8.1900 C   0  0  0  0  0  0  0  0  0  0  0  0
   -8.7460    2.0810   -6.8830 N   0  0  0  0  0  0  0  0  0  0  0  0
   -8.9170    3.5420   -6.8910 C   0  0  0  0  0  0  0  0  0  0  0  0
   -7.2630    4.6670  -14.6030 C   0  0  0  0  0  0  0  0  0  0  0  0
   -8.2710    4.2340  -15.4170 C   0  0  0  0  0  0  0  0  0  0  0  0
   -7.8610    4.2300  -16.8190 C   0  0  0  0  0  0  0  0  0  0  0  0
   -8.6090    3.7950  -17.8790 N   0  0  0  0  0  0  0  0  0  0  0  0
   -8.0240    3.8570  -19.1030 C   0  0  0  0  0  0  0  0  0  0  0  0
   -6.7480    4.3340  -19.3190 C   0  0  0  0  0  0  0  0  0  0  0  0
   -6.0040    4.7880  -18.2560 C   0  0  0  0  0  0  0  0  0  0  0  0
   -6.5790    4.7340  -16.9910 C   0  0  0  0  0  0  0  0  0  0  0  0
   -5.8360    5.1590  -15.4840 S   0  0  0  0  0  0  0  0  0  0  0  0
  2  1  2  0
  3  2  1  0
  4  3  1  0
  5  4  2  0
  6  5  1  0
  7  6  2  0
  8  7  1  0
  9  4  1  0
  9  8  2  0
 10  8  1  0
 11 10  1  0
 12 11  1  0
 12  7  1  0
 13  2  1  0
 14 13  2  0
 15 14  1  0
 16 15  2  0
 17 16  1  0
 18 17  2  0
 19 18  1  0
 20 19  2  0
 20 15  1  0
 21 20  1  0
 21 13  1  0
M  END
>  <smiles>  (90) 
O=C(Nc1ccc2c(c1)CNC2)c1cc2ncccc2s1

>  <inchikey>  (90) 
YHOOYPROOXBLEU-UHFFFAOYSA-N

>  <alias>  (90) 
Z3515a

$$$$
Z3527a
     RDKit          3D

 22 25  0  0  0  0  0  0  0  0999 V2000
   -6.5820    5.8170  -12.4390 O   0  0  0  0  0  0  0  0  0  0  0  0
   -7.3050    5.0360  -13.0520 C   0  0  0  0  0  0  0  0  0  0  0  0
   -8.1860    4.2040  -12.4520 N   0  0  0  0  0  0  0  0  0  0  0  0
   -8.4120    4.0870  -11.0620 C   0  0  0  0  0  0  0  0  0  0  0  0
   -8.2390    5.1990  -10.2390 C   0  0  0  0  0  0  0  0  0  0  0  0
   -8.4020    5.0830   -8.8710 C   0  0  0  0  0  0  0  0  0  0  0  0
   -8.6630    3.8290   -8.3330 C   0  0  0  0  0  0  0  0  0  0  0  0
   -8.8200    2.7180   -9.1480 C   0  0  0  0  0  0  0  0  0  0  0  0
   -8.6660    2.8200  -10.5220 C   0  0  0  0  0  0  0  0  0  0  0  0
   -9.1670    1.5320   -8.3000 C   0  0  0  0  0  0  0  0  0  0  0  0
   -8.6940    1.9790   -6.9820 N   0  0  0  0  0  0  0  0  0  0  0  0
   -8.9140    3.4300   -6.9080 C   0  0  0  0  0  0  0  0  0  0  0  0
   -7.1640    4.8830  -14.5350 C   0  0  0  0  0  0  0  0  0  0  0  0
   -5.9580    5.2690  -15.1770 C   0  0  0  0  0  0  0  0  0  0  0  0
   -5.8350    5.2000  -16.5340 C   0  0  0  0  0  0  0  0  0  0  0  0
   -6.9140    4.7530  -17.3240 C   0  0  0  0  0  0  0  0  0  0  0  0
   -6.7310    4.6420  -18.6750 N   0  0  0  0  0  0  0  0  0  0  0  0
   -7.7420    4.1660  -19.3770 C   0  0  0  0  0  0  0  0  0  0  0  0
   -9.0090    3.8640  -18.8500 C   0  0  0  0  0  0  0  0  0  0  0  0
   -9.1840    3.9160  -17.5080 C   0  0  0  0  0  0  0  0  0  0  0  0
   -8.1270    4.3830  -16.7000 C   0  0  0  0  0  0  0  0  0  0  0  0
   -8.2370    4.4800  -15.2940 C   0  0  0  0  0  0  0  0  0  0  0  0
  2  1  2  0
  3  2  1  0
  4  3  1  0
  5  4  2  0
  6  5  1  0
  7  6  2  0
  8  7  1  0
  9  4  1  0
  9  8  2  0
 10  8  1  0
 11 10  1  0
 12 11  1  0
 12  7  1  0
 13  2  1  0
 14 13  2  0
 15 14  1  0
 16 15  2  0
 17 16  1  0
 18 17  2  0
 19 18  1  0
 20 19  2  0
 21 20  1  0
 21 16  1  0
 22 21  2  0
 22 13  1  0
M  END
>  <smiles>  (91) 
O=C(Nc1ccc2c(c1)CNC2)c1ccc2ncccc2c1

>  <inchikey>  (91) 
CAOCHPLQOYSVQU-UHFFFAOYSA-N

>  <alias>  (91) 
Z3527a

$$$$
Z3596a
     RDKit          3D

 22 25  0  0  0  0  0  0  0  0999 V2000
   -6.9540    5.7010  -13.2730 O   0  0  0  0  0  0  0  0  0  0  0  0
   -7.6370    4.7900  -13.7360 C   0  0  0  0  0  0  0  0  0  0  0  0
   -7.7440    4.5910  -15.2190 C   0  0  0  0  0  0  0  0  0  0  0  0
   -6.6560    4.8360  -16.0680 C   0  0  0  0  0  0  0  0  0  0  0  0
   -5.2200    5.1650  -15.7850 C   0  0  0  0  0  0  0  0  0  0  0  0
   -8.9640    4.2140  -15.7810 C   0  0  0  0  0  0  0  0  0  0  0  0
   -9.1020    4.1120  -17.1620 C   0  0  0  0  0  0  0  0  0  0  0  0
   -8.0310    4.3730  -18.0090 C   0  0  0  0  0  0  0  0  0  0  0  0
   -6.8080    4.7220  -17.4460 C   0  0  0  0  0  0  0  0  0  0  0  0
   -5.5680    4.8950  -18.0640 N   0  0  0  0  0  0  0  0  0  0  0  0
   -4.5770    5.1000  -17.1540 C   0  0  0  0  0  0  0  0  0  0  0  0
   -3.3760    5.1350  -17.4060 O   0  0  0  0  0  0  0  0  0  0  0  0
   -8.3410    3.9200  -12.9670 N   0  0  0  0  0  0  0  0  0  0  0  0
   -8.4160    3.8910  -11.5510 C   0  0  0  0  0  0  0  0  0  0  0  0
   -8.7550    2.7190  -10.8770 C   0  0  0  0  0  0  0  0  0  0  0  0
   -8.8610    2.7180   -9.4880 C   0  0  0  0  0  0  0  0  0  0  0  0
   -9.2470    1.6030   -8.5610 C   0  0  0  0  0  0  0  0  0  0  0  0
   -8.8820    2.1740   -7.2660 N   0  0  0  0  0  0  0  0  0  0  0  0
   -8.7700    3.6310   -7.2990 C   0  0  0  0  0  0  0  0  0  0  0  0
   -8.6140    3.8780   -8.7700 C   0  0  0  0  0  0  0  0  0  0  0  0
   -8.2700    5.0440   -9.4440 C   0  0  0  0  0  0  0  0  0  0  0  0
   -8.1730    5.0520  -10.8250 C   0  0  0  0  0  0  0  0  0  0  0  0
  2  1  2  0
  3  2  1  0
  4  3  2  0
  5  4  1  0
  6  3  1  0
  7  6  2  0
  8  7  1  0
  9  8  2  0
  9  4  1  0
 10  9  1  0
 11 10  1  0
 11  5  1  0
 12 11  2  0
 13  2  1  0
 14 13  1  0
 15 14  2  0
 16 15  1  0
 17 16  1  0
 18 17  1  0
 19 18  1  0
 20 19  1  0
 20 16  2  0
 21 20  1  0
 22 14  1  0
 22 21  2  0
M  END
>  <smiles>  (92) 
O=C1Cc2c(cccc2C(=O)Nc2ccc3c(c2)CNC3)N1

>  <inchikey>  (92) 
OZAKPONUOMDABD-UHFFFAOYSA-N

>  <alias>  (92) 
Z3596a

$$$$
Z3622a
     RDKit          3D

 28 32  0  0  0  0  0  0  0  0999 V2000
  -10.4440    4.0130  -17.6120 F   0  0  0  0  0  0  0  0  0  0  0  0
   -9.2060    4.2320  -17.0970 C   0  0  0  0  0  0  0  0  0  0  0  0
   -9.0670    4.2750  -15.7260 C   0  0  0  0  0  0  0  0  0  0  0  0
   -8.1760    4.4550  -17.9770 C   0  0  0  0  0  0  0  0  0  0  0  0
   -6.9290    4.7640  -17.4480 C   0  0  0  0  0  0  0  0  0  0  0  0
   -6.7450    4.8350  -16.0660 C   0  0  0  0  0  0  0  0  0  0  0  0
   -5.4110    5.1390  -15.7940 N   0  0  0  0  0  0  0  0  0  0  0  0
   -4.8310    5.2420  -16.9890 C   0  0  0  0  0  0  0  0  0  0  0  0
   -3.4050    5.5420  -17.2060 C   0  0  0  0  0  0  0  0  0  0  0  0
   -2.8470    5.4200  -18.4750 C   0  0  0  0  0  0  0  0  0  0  0  0
   -1.5230    5.7620  -18.6960 C   0  0  0  0  0  0  0  0  0  0  0  0
   -0.7400    6.2190  -17.6580 C   0  0  0  0  0  0  0  0  0  0  0  0
   -1.2780    6.3310  -16.3930 C   0  0  0  0  0  0  0  0  0  0  0  0
   -2.6020    5.9950  -16.1630 C   0  0  0  0  0  0  0  0  0  0  0  0
   -5.6990    5.0260  -18.0100 N   0  0  0  0  0  0  0  0  0  0  0  0
   -7.8180    4.6010  -15.1950 C   0  0  0  0  0  0  0  0  0  0  0  0
   -7.6910    4.7830  -13.7120 C   0  0  0  0  0  0  0  0  0  0  0  0
   -6.9650    5.6600  -13.2480 O   0  0  0  0  0  0  0  0  0  0  0  0
   -8.4290    3.9400  -12.9460 N   0  0  0  0  0  0  0  0  0  0  0  0
   -8.5150    3.9250  -11.5310 C   0  0  0  0  0  0  0  0  0  0  0  0
   -8.7560    2.7320  -10.8520 C   0  0  0  0  0  0  0  0  0  0  0  0
   -8.8690    2.7290   -9.4650 C   0  0  0  0  0  0  0  0  0  0  0  0
   -9.2120    1.6010   -8.5370 C   0  0  0  0  0  0  0  0  0  0  0  0
   -8.8600    2.1910   -7.2520 N   0  0  0  0  0  0  0  0  0  0  0  0
   -8.8260    3.6490   -7.2790 C   0  0  0  0  0  0  0  0  0  0  0  0
   -8.7070    3.9080   -8.7510 C   0  0  0  0  0  0  0  0  0  0  0  0
   -8.4630    5.0970   -9.4310 C   0  0  0  0  0  0  0  0  0  0  0  0
   -8.3760    5.1090  -10.8110 C   0  0  0  0  0  0  0  0  0  0  0  0
  2  1  1  0
  3  2  2  0
  4  2  1  0
  5  4  2  0
  6  5  1  0
  7  6  1  0
  8  7  2  0
  9  8  1  0
 10  9  2  0
 11 10  1  0
 12 11  2  0
 13 12  1  0
 14 13  2  0
 14  9  1  0
 15  5  1  0
 15  8  1  0
 16  6  2  0
 16  3  1  0
 17 16  1  0
 18 17  2  0
 19 17  1  0
 20 19  1  0
 21 20  2  0
 22 21  1  0
 23 22  1  0
 24 23  1  0
 25 24  1  0
 26 25  1  0
 26 22  2  0
 27 26  1  0
 28 20  1  0
 28 27  2  0
M  END
>  <smiles>  (93) 
O=C(Nc1ccc2c(c1)CNC2)c1cc(F)cc2[nH]c(-c3ccccc3)nc12

>  <inchikey>  (93) 
DWEGWCUYPPIYDT-UHFFFAOYSA-N

>  <alias>  (93) 
Z3622a

$$$$
Z3677a
     RDKit          3D

 22 25  0  0  0  0  0  0  0  0999 V2000
   -6.6760    5.4760  -13.3230 O   0  0  0  0  0  0  0  0  0  0  0  0
   -7.4490    4.6330  -13.7660 C   0  0  0  0  0  0  0  0  0  0  0  0
   -7.5860    4.4200  -15.2410 C   0  0  0  0  0  0  0  0  0  0  0  0
   -6.5230    4.7070  -16.0990 C   0  0  0  0  0  0  0  0  0  0  0  0
   -8.8050    3.9970  -15.7870 C   0  0  0  0  0  0  0  0  0  0  0  0
   -8.9710    3.8670  -17.1590 C   0  0  0  0  0  0  0  0  0  0  0  0
   -7.8870    4.1310  -17.9900 C   0  0  0  0  0  0  0  0  0  0  0  0
   -6.6690    4.5610  -17.4750 C   0  0  0  0  0  0  0  0  0  0  0  0
   -5.7210    4.7590  -18.6220 C   0  0  0  0  0  0  0  0  0  0  0  0
   -7.7670    3.9570  -19.3730 N   0  0  0  0  0  0  0  0  0  0  0  0
   -6.5220    4.2820  -19.8150 C   0  0  0  0  0  0  0  0  0  0  0  0
   -6.1220    4.1650  -20.9770 O   0  0  0  0  0  0  0  0  0  0  0  0
   -8.2690    3.8850  -12.9760 N   0  0  0  0  0  0  0  0  0  0  0  0
   -8.4190    3.9490  -11.5640 C   0  0  0  0  0  0  0  0  0  0  0  0
   -8.6720    2.7870  -10.8330 C   0  0  0  0  0  0  0  0  0  0  0  0
   -8.7520    2.8380   -9.4420 C   0  0  0  0  0  0  0  0  0  0  0  0
   -9.0670    1.7450   -8.4630 C   0  0  0  0  0  0  0  0  0  0  0  0
   -8.7330    2.3870   -7.1900 N   0  0  0  0  0  0  0  0  0  0  0  0
   -8.6300    3.8390   -7.2920 C   0  0  0  0  0  0  0  0  0  0  0  0
   -8.5640    4.0420   -8.7770 C   0  0  0  0  0  0  0  0  0  0  0  0
   -8.3360    5.2040   -9.5090 C   0  0  0  0  0  0  0  0  0  0  0  0
   -8.2730    5.1610  -10.8920 C   0  0  0  0  0  0  0  0  0  0  0  0
  2  1  2  0
  3  2  1  0
  4  3  2  0
  5  3  1  0
  6  5  2  0
  7  6  1  0
  8  7  2  0
  8  4  1  0
  9  8  1  0
 10  7  1  0
 11 10  1  0
 11  9  1  0
 12 11  2  0
 13  2  1  0
 14 13  1  0
 15 14  2  0
 16 15  1  0
 17 16  1  0
 18 17  1  0
 19 18  1  0
 20 19  1  0
 20 16  2  0
 21 20  1  0
 22 14  1  0
 22 21  2  0
M  END
>  <smiles>  (94) 
O=C1Cc2cc(C(=O)Nc3ccc4c(c3)CNC4)ccc2N1

>  <inchikey>  (94) 
QDANXSJPLDZYDO-UHFFFAOYSA-N

>  <alias>  (94) 
Z3677a

$$$$
Z3685a
     RDKit          3D

 28 32  0  0  0  0  0  0  0  0999 V2000
  -10.4220    3.8360  -17.6530 F   0  0  0  0  0  0  0  0  0  0  0  0
   -9.2040    4.1730  -17.1570 C   0  0  0  0  0  0  0  0  0  0  0  0
   -9.0540    4.2750  -15.7890 C   0  0  0  0  0  0  0  0  0  0  0  0
   -8.1870    4.3810  -18.0520 C   0  0  0  0  0  0  0  0  0  0  0  0
   -6.9420    4.7050  -17.5330 C   0  0  0  0  0  0  0  0  0  0  0  0
   -6.7150    4.8350  -16.1470 C   0  0  0  0  0  0  0  0  0  0  0  0
   -5.3370    5.1440  -16.0470 C   0  0  0  0  0  0  0  0  0  0  0  0
   -4.7600    5.1810  -17.2330 N   0  0  0  0  0  0  0  0  0  0  0  0
   -5.7460    4.9140  -18.1390 N   0  0  0  0  0  0  0  0  0  0  0  0
   -7.7960    4.6080  -15.2750 C   0  0  0  0  0  0  0  0  0  0  0  0
   -7.6060    4.7400  -13.7880 C   0  0  0  0  0  0  0  0  0  0  0  0
   -6.6310    5.3320  -13.3390 O   0  0  0  0  0  0  0  0  0  0  0  0
   -8.5410    4.1560  -12.9940 N   0  0  0  0  0  0  0  0  0  0  0  0
   -8.5520    4.1290  -11.5720 C   0  0  0  0  0  0  0  0  0  0  0  0
   -8.3540    5.3090  -10.8530 C   0  0  0  0  0  0  0  0  0  0  0  0
   -8.3900    5.2980   -9.4540 C   0  0  0  0  0  0  0  0  0  0  0  0
   -8.2460    6.6180   -8.7690 C   0  0  0  0  0  0  0  0  0  0  0  0
   -9.0330    7.7650   -9.3880 C   0  0  0  0  0  0  0  0  0  0  0  0
   -9.2110    8.8620   -8.3360 C   0  0  0  0  0  0  0  0  0  0  0  0
   -7.9690    9.1680   -7.6810 O   0  0  0  0  0  0  0  0  0  0  0  0
   -7.4980    8.0710   -6.8980 C   0  0  0  0  0  0  0  0  0  0  0  0
   -7.5080    6.7780   -7.6430 C   0  0  0  0  0  0  0  0  0  0  0  0
   -8.6250    4.0920   -8.7730 C   0  0  0  0  0  0  0  0  0  0  0  0
   -8.7480    3.8310   -7.2990 C   0  0  0  0  0  0  0  0  0  0  0  0
   -8.7720    2.3740   -7.2670 N   0  0  0  0  0  0  0  0  0  0  0  0
   -9.1000    1.7800   -8.5570 C   0  0  0  0  0  0  0  0  0  0  0  0
   -8.8160    2.9180   -9.4920 C   0  0  0  0  0  0  0  0  0  0  0  0
   -8.7710    2.9350  -10.8850 C   0  0  0  0  0  0  0  0  0  0  0  0
  2  1  1  0
  3  2  2  0
  4  2  1  0
  5  4  2  0
  6  5  1  0
  7  6  1  0
  8  7  2  0
  9  5  1  0
  9  8  1  0
 10  6  2  0
 10  3  1  0
 11 10  1  0
 12 11  2  0
 13 11  1  0
 14 13  1  0
 15 14  2  0
 16 15  1  0
 17 16  1  0
 18 17  2  0
 19 18  1  0
 20 19  1  0
 21 20  1  0
 22 21  1  0
 22 17  1  0
 23 16  2  0
 24 23  1  0
 25 24  1  0
 26 25  1  0
 27 26  1  0
 27 23  1  0
 28 14  1  0
 28 27  2  0
M  END
>  <smiles>  (95) 
O=C(Nc1cc2c(c(C3=CCOCC3)c1)CNC2)c1cc(F)cc2[nH]ncc12

>  <inchikey>  (95) 
OVKAMOGUHWHSGI-UHFFFAOYSA-N

>  <alias>  (95) 
Z3685a

$$$$
Z3720a
     RDKit          3D

 30 34  0  0  0  0  0  0  0  0999 V2000
  -10.2440    3.7730  -17.6690 F   0  0  0  0  0  0  0  0  0  0  0  0
   -9.0510    4.2080  -17.1860 C   0  0  0  0  0  0  0  0  0  0  0  0
   -8.0640    4.5100  -18.0890 C   0  0  0  0  0  0  0  0  0  0  0  0
   -6.8440    4.9550  -17.5940 C   0  0  0  0  0  0  0  0  0  0  0  0
   -6.6400    5.0680  -16.2180 C   0  0  0  0  0  0  0  0  0  0  0  0
   -5.3220    5.4510  -15.9770 N   0  0  0  0  0  0  0  0  0  0  0  0
   -5.6310    5.2560  -18.1860 N   0  0  0  0  0  0  0  0  0  0  0  0
   -4.7640    5.5300  -17.1740 C   0  0  0  0  0  0  0  0  0  0  0  0
   -3.3330    5.7940  -17.3910 C   0  0  0  0  0  0  0  0  0  0  0  0
   -2.7870    5.8040  -18.5780 N   0  0  0  0  0  0  0  0  0  0  0  0
   -1.4030    6.0200  -18.5430 N   0  0  0  0  0  0  0  0  0  0  0  0
   -2.1970    6.0540  -16.0920 S   0  0  0  0  0  0  0  0  0  0  0  0
   -0.9460    6.1700  -17.3420 C   0  0  0  0  0  0  0  0  0  0  0  0
    0.4980    6.4340  -16.9920 C   0  0  1  0  0  0  0  0  0  0  0  0
    0.9950    5.4440  -15.9400 C   0  0  0  0  0  0  0  0  0  0  0  0
    1.4400    6.4690  -18.2000 C   0  0  0  0  0  0  0  0  0  0  0  0
   -8.9000    4.3110  -15.8200 C   0  0  0  0  0  0  0  0  0  0  0  0
   -7.6680    4.7420  -15.3190 C   0  0  0  0  0  0  0  0  0  0  0  0
   -7.4540    4.8150  -13.8330 C   0  0  0  0  0  0  0  0  0  0  0  0
   -6.5560    5.5120  -13.3640 O   0  0  0  0  0  0  0  0  0  0  0  0
   -8.3100    4.0880  -13.0690 N   0  0  0  0  0  0  0  0  0  0  0  0
   -8.3680    4.0440  -11.6500 C   0  0  0  0  0  0  0  0  0  0  0  0
   -8.6790    2.8630  -10.9780 C   0  0  0  0  0  0  0  0  0  0  0  0
   -8.7930    2.8560   -9.5900 C   0  0  0  0  0  0  0  0  0  0  0  0
   -9.1720    1.7340   -8.6680 C   0  0  0  0  0  0  0  0  0  0  0  0
   -9.0280    2.3450   -7.3560 N   0  0  0  0  0  0  0  0  0  0  0  0
   -8.7690    3.7770   -7.4020 C   0  0  0  0  0  0  0  0  0  0  0  0
   -8.5800    4.0220   -8.8700 C   0  0  0  0  0  0  0  0  0  0  0  0
   -8.2560    5.1960   -9.5400 C   0  0  0  0  0  0  0  0  0  0  0  0
   -8.1540    5.2110  -10.9190 C   0  0  0  0  0  0  0  0  0  0  0  0
  2  1  1  0
  3  2  2  0
  4  3  1  0
  5  4  2  0
  6  5  1  0
  7  4  1  0
  8  7  1  0
  8  6  2  0
  9  8  1  0
 10  9  2  0
 11 10  1  0
 12  9  1  0
 13 11  2  0
 13 12  1  0
 14 13  1  0
 14 15  1  1
 16 14  1  0
 17  2  1  0
 18 17  2  0
 18  5  1  0
 19 18  1  0
 20 19  2  0
 21 19  1  0
 22 21  1  0
 23 22  2  0
 24 23  1  0
 25 24  1  0
 26 25  1  0
 27 26  1  0
 28 27  1  0
 28 24  2  0
 29 28  1  0
 30 22  1  0
 30 29  2  0
M  END
>  <smiles>  (96) 
CC(C)c1nnc(-c2nc3c(C(=O)Nc4ccc5c(c4)CNC5)cc(F)cc3[nH]2)s1

>  <inchikey>  (96) 
RSOBJAAUDASANC-UHFFFAOYSA-N

>  <alias>  (96) 
Z3720a

$$$$
Z3729a
     RDKit          3D

 21 24  0  0  0  0  0  0  0  0999 V2000
   -6.5150    5.3060  -12.8210 O   0  0  0  0  0  0  0  0  0  0  0  0
   -7.3630    4.6120  -13.3790 C   0  0  0  0  0  0  0  0  0  0  0  0
   -7.4250    4.5300  -14.8750 C   0  0  0  0  0  0  0  0  0  0  0  0
   -8.5950    4.1960  -15.5590 C   0  0  0  0  0  0  0  0  0  0  0  0
   -8.6050    4.1790  -16.9610 C   0  0  0  0  0  0  0  0  0  0  0  0
   -9.5910    3.8710  -17.9580 C   0  0  0  0  0  0  0  0  0  0  0  0
   -8.9840    3.9930  -19.1670 C   0  0  0  0  0  0  0  0  0  0  0  0
   -7.6710    4.3590  -18.9990 N   0  0  0  0  0  0  0  0  0  0  0  0
   -7.4190    4.4990  -17.6530 C   0  0  0  0  0  0  0  0  0  0  0  0
   -6.2540    4.8570  -16.9830 C   0  0  0  0  0  0  0  0  0  0  0  0
   -6.2620    4.8570  -15.5960 C   0  0  0  0  0  0  0  0  0  0  0  0
   -8.2920    3.9030  -12.6930 N   0  0  0  0  0  0  0  0  0  0  0  0
   -8.4550    3.8820  -11.2770 C   0  0  0  0  0  0  0  0  0  0  0  0
   -8.6640    2.6870  -10.5890 C   0  0  0  0  0  0  0  0  0  0  0  0
   -8.7590    2.6850   -9.1940 C   0  0  0  0  0  0  0  0  0  0  0  0
   -9.0730    1.5490   -8.2660 C   0  0  0  0  0  0  0  0  0  0  0  0
   -8.8700    2.1610   -6.9410 N   0  0  0  0  0  0  0  0  0  0  0  0
   -8.8200    3.6310   -7.0150 C   0  0  0  0  0  0  0  0  0  0  0  0
   -8.6450    3.8720   -8.4860 C   0  0  0  0  0  0  0  0  0  0  0  0
   -8.4430    5.0650   -9.1760 C   0  0  0  0  0  0  0  0  0  0  0  0
   -8.3560    5.0730  -10.5610 C   0  0  0  0  0  0  0  0  0  0  0  0
  2  1  2  0
  3  2  1  0
  4  3  2  0
  5  4  1  0
  6  5  1  0
  7  6  2  0
  8  7  1  0
  9  8  1  0
  9  5  2  0
 10  9  1  0
 11 10  2  0
 11  3  1  0
 12  2  1  0
 13 12  1  0
 14 13  2  0
 15 14  1  0
 16 15  1  0
 17 16  1  0
 18 17  1  0
 19 18  1  0
 19 15  2  0
 20 19  1  0
 21 13  1  0
 21 20  2  0
M  END
>  <smiles>  (97) 
O=C(Nc1ccc2c(c1)CNC2)c1ccc2[nH]ccc2c1

>  <inchikey>  (97) 
HPSOSXRYCXJEKK-UHFFFAOYSA-N

>  <alias>  (97) 
Z3729a

$$$$
Z3733a
     RDKit          3D

 21 24  0  0  0  0  0  0  0  0999 V2000
   -6.5920    5.3560  -13.2270 O   0  0  0  0  0  0  0  0  0  0  0  0
   -7.5580    4.7500  -13.6800 C   0  0  0  0  0  0  0  0  0  0  0  0
   -7.7280    4.5970  -15.1590 C   0  0  0  0  0  0  0  0  0  0  0  0
   -6.7170    4.9990  -16.0530 C   0  0  0  0  0  0  0  0  0  0  0  0
   -5.4500    5.4310  -15.8510 N   0  0  0  0  0  0  0  0  0  0  0  0
   -4.7910    5.6210  -17.0320 N   0  0  0  0  0  0  0  0  0  0  0  0
   -5.6510    5.3220  -17.9860 C   0  0  0  0  0  0  0  0  0  0  0  0
   -6.8970    4.9100  -17.4470 C   0  0  0  0  0  0  0  0  0  0  0  0
   -8.1050    4.4130  -17.9420 C   0  0  0  0  0  0  0  0  0  0  0  0
   -9.0950    3.9960  -17.0670 C   0  0  0  0  0  0  0  0  0  0  0  0
   -8.9120    4.0810  -15.6910 C   0  0  0  0  0  0  0  0  0  0  0  0
   -8.5030    4.1610  -12.9060 N   0  0  0  0  0  0  0  0  0  0  0  0
   -8.5400    4.1100  -11.4900 C   0  0  0  0  0  0  0  0  0  0  0  0
   -8.8570    2.9240  -10.8290 C   0  0  0  0  0  0  0  0  0  0  0  0
   -8.8900    2.8880   -9.4380 C   0  0  0  0  0  0  0  0  0  0  0  0
   -9.2760    1.7640   -8.5220 C   0  0  0  0  0  0  0  0  0  0  0  0
   -8.9510    2.3120   -7.2050 N   0  0  0  0  0  0  0  0  0  0  0  0
   -8.6310    3.7330   -7.2330 C   0  0  0  0  0  0  0  0  0  0  0  0
   -8.5780    4.0230   -8.7050 C   0  0  0  0  0  0  0  0  0  0  0  0
   -8.2660    5.2060   -9.3670 C   0  0  0  0  0  0  0  0  0  0  0  0
   -8.2530    5.2530  -10.7490 C   0  0  0  0  0  0  0  0  0  0  0  0
  2  1  2  0
  3  2  1  0
  4  3  2  0
  5  4  1  0
  6  5  1  0
  7  6  2  0
  8  7  1  0
  8  4  1  0
  9  8  2  0
 10  9  1  0
 11 10  2  0
 11  3  1  0
 12  2  1  0
 13 12  1  0
 14 13  2  0
 15 14  1  0
 16 15  1  0
 17 16  1  0
 18 17  1  0
 19 18  1  0
 19 15  2  0
 20 19  1  0
 21 13  1  0
 21 20  2  0
M  END
>  <smiles>  (98) 
O=C(Nc1ccc2c(c1)CNC2)c1cccc2cn[nH]c12

>  <inchikey>  (98) 
NUNDPDNYDUMFHN-UHFFFAOYSA-N

>  <alias>  (98) 
Z3733a

$$$$
Z3743a
     RDKit          3D

 28 31  0  0  0  0  0  0  0  0999 V2000
   -9.9470    3.9900  -18.1980 Br  0  0  0  0  0  0  0  0  0  0  0  0
   -8.5400    4.5380  -17.0350 C   0  0  0  0  0  0  0  0  0  0  0  0
   -8.5810    4.1690  -15.6880 C   0  0  0  0  0  0  0  0  0  0  0  0
   -7.5260    5.3380  -17.5540 C   0  0  0  0  0  0  0  0  0  0  0  0
   -6.5540    5.8250  -16.6780 C   0  0  0  0  0  0  0  0  0  0  0  0
   -6.6000    5.4700  -15.3280 C   0  0  0  0  0  0  0  0  0  0  0  0
   -5.5730    6.1370  -14.7100 N   0  0  0  0  0  0  0  0  0  0  0  0
   -4.9510    6.8490  -15.6770 C   0  0  0  0  0  0  0  0  0  0  0  0
   -5.4860    6.7020  -16.8740 N   0  0  0  0  0  0  0  0  0  0  0  0
   -7.5820    4.6150  -14.8160 C   0  0  0  0  0  0  0  0  0  0  0  0
   -7.4600    4.1450  -13.3690 C   0  0  2  0  0  0  0  0  0  0  0  0
   -6.9250    2.6790  -13.2800 C   0  0  0  0  0  0  0  0  0  0  0  0
   -5.8020    2.5250  -12.5740 N   0  0  0  0  0  0  0  0  0  0  0  0
   -4.7360    3.5180  -12.5390 C   0  0  0  0  0  0  0  0  0  0  0  0
   -3.7720    3.4360  -13.8050 C   0  0  2  0  0  0  0  0  0  0  0  0
   -4.3210    2.6960  -14.8060 F   0  0  0  0  0  0  0  0  0  0  0  0
   -2.6220    2.7950  -13.4680 F   0  0  0  0  0  0  0  0  0  0  0  0
   -7.5310    1.7370  -13.7770 O   0  0  0  0  0  0  0  0  0  0  0  0
   -8.6270    4.3510  -12.5400 N   0  0  0  0  0  0  0  0  0  0  0  0
   -8.5500    4.2750  -11.1490 C   0  0  0  0  0  0  0  0  0  0  0  0
   -8.8310    3.0710  -10.5040 C   0  0  0  0  0  0  0  0  0  0  0  0
   -8.8360    3.0060   -9.1150 C   0  0  0  0  0  0  0  0  0  0  0  0
   -9.0950    1.8310   -8.2180 C   0  0  0  0  0  0  0  0  0  0  0  0
   -8.9710    2.4150   -6.8820 N   0  0  0  0  0  0  0  0  0  0  0  0
   -8.7280    3.8570   -6.9010 C   0  0  0  0  0  0  0  0  0  0  0  0
   -8.5650    4.1420   -8.3640 C   0  0  0  0  0  0  0  0  0  0  0  0
   -8.2590    5.3360   -9.0100 C   0  0  0  0  0  0  0  0  0  0  0  0
   -8.2480    5.4020  -10.3920 C   0  0  0  0  0  0  0  0  0  0  0  0
  2  1  1  0
  3  2  2  0
  4  2  1  0
  5  4  2  0
  6  5  1  0
  7  6  1  0
  8  7  1  0
  9  5  1  0
  9  8  2  0
 10  3  1  0
 10  6  2  0
 11 10  1  0
 12 11  1  0
 13 12  1  0
 14 13  1  0
 15 14  1  0
 15 16  1  6
 17 15  1  0
 18 12  2  0
 11 19  1  6
 20 19  1  0
 21 20  2  0
 22 21  1  0
 23 22  1  0
 24 23  1  0
 25 24  1  0
 26 25  1  0
 26 22  2  0
 27 26  1  0
 28 20  1  0
 28 27  2  0
M  END
>  <smiles>  (99) 
O=C(NCC(F)F)[C@H](Nc1ccc2c(c1)CNC2)c1cc(Br)cc2nc[nH]c12

>  <inchikey>  (99) 
ZDOBRSVSMPMTBA-GOSISDBHSA-N

>  <alias>  (99) 
Z3743a

$$$$
Z3746a
     RDKit          3D

 21 23  0  0  0  0  0  0  0  0999 V2000
   -4.0040    5.3120  -18.8110 O   0  0  0  0  0  0  0  0  0  0  0  0
   -5.1100    5.1470  -18.3000 C   0  0  0  0  0  0  0  0  0  0  0  0
   -6.2470    4.8190  -18.9700 N   0  0  0  0  0  0  0  0  0  0  0  0
   -7.3090    4.5870  -18.0990 C   0  0  0  0  0  0  0  0  0  0  0  0
   -8.5980    4.1520  -18.3840 C   0  0  0  0  0  0  0  0  0  0  0  0
   -9.4860    3.9730  -17.3340 C   0  0  0  0  0  0  0  0  0  0  0  0
   -9.0950    4.2190  -16.0240 C   0  0  0  0  0  0  0  0  0  0  0  0
   -5.4470    5.2010  -16.8250 C   0  0  0  0  0  0  0  0  0  0  0  0
   -6.8980    4.8280  -16.7930 C   0  0  0  0  0  0  0  0  0  0  0  0
   -7.8010    4.6490  -15.7350 C   0  0  0  0  0  0  0  0  0  0  0  0
   -7.4310    4.9180  -14.3010 C   0  0  0  0  0  0  0  0  0  0  0  0
   -6.4110    5.5360  -14.0080 O   0  0  0  0  0  0  0  0  0  0  0  0
   -8.3100    4.4560  -13.3780 N   0  0  0  0  0  0  0  0  0  0  0  0
   -8.2470    4.5940  -11.9720 C   0  0  0  0  0  0  0  0  0  0  0  0
   -7.8160    5.7790  -11.3970 C   0  0  0  0  0  0  0  0  0  0  0  0
   -7.8240    5.9160  -10.0210 C   0  0  0  0  0  0  0  0  0  0  0  0
   -8.2630    4.8750   -9.2170 C   0  0  0  0  0  0  0  0  0  0  0  0
   -8.6890    3.5540  -11.1590 C   0  0  0  0  0  0  0  0  0  0  0  0
   -8.7180    3.6910   -9.7760 C   0  0  0  0  0  0  0  0  0  0  0  0
   -9.3550    2.6320   -8.9110 C   0  0  0  0  0  0  0  0  0  0  0  0
   -8.3970    1.6150   -8.5050 N   0  0  0  0  0  0  0  0  0  0  0  0
  2  1  2  0
  3  2  1  0
  4  3  1  0
  5  4  2  0
  6  5  1  0
  7  6  2  0
  8  2  1  0
  9  4  1  0
  9  8  1  0
 10  9  2  0
 10  7  1  0
 11 10  1  0
 12 11  2  0
 13 11  1  0
 14 13  1  0
 15 14  2  0
 16 15  1  0
 17 16  2  0
 18 14  1  0
 19 18  2  0
 19 17  1  0
 20 19  1  0
 21 20  1  0
M  END
>  <smiles>  (100) 
NCc1cccc(NC(=O)c2cccc3c2CC(=O)N3)c1

>  <inchikey>  (100) 
HQSWEWUQCXVKEY-UHFFFAOYSA-N

>  <alias>  (100) 
Z3746a

$$$$
Z3754a
     RDKit          3D

 29 31  0  0  0  0  0  0  0  0999 V2000
   -2.5610    2.2280  -13.7170 F   0  0  0  0  0  0  0  0  0  0  0  0
   -3.8890    2.4970  -13.8230 C   0  0  2  0  0  0  0  0  0  0  0  0
   -3.9700    3.7480  -14.3500 F   0  0  0  0  0  0  0  0  0  0  0  0
   -4.5290    2.4950  -12.3800 C   0  0  0  0  0  0  0  0  0  0  0  0
   -5.7970    3.2080  -12.4250 N   0  0  0  0  0  0  0  0  0  0  0  0
   -6.8510    2.7520  -13.0990 C   0  0  0  0  0  0  0  0  0  0  0  0
   -6.9600    1.5860  -13.4750 O   0  0  0  0  0  0  0  0  0  0  0  0
   -7.9770    3.7970  -13.3450 C   0  0  2  0  0  0  0  0  0  0  0  0
   -7.8510    4.3400  -14.7640 C   0  0  0  0  0  0  0  0  0  0  0  0
   -8.8660    4.1150  -15.6890 C   0  0  0  0  0  0  0  0  0  0  0  0
   -8.6630    4.4460  -17.0170 C   0  0  0  0  0  0  0  0  0  0  0  0
  -10.0460    4.1240  -18.2770 Br  0  0  0  0  0  0  0  0  0  0  0  0
   -7.4850    5.0130  -17.4530 C   0  0  0  0  0  0  0  0  0  0  0  0
   -6.6720    4.9440  -15.1890 C   0  0  0  0  0  0  0  0  0  0  0  0
   -6.4820    5.2810  -16.5270 C   0  0  0  0  0  0  0  0  0  0  0  0
   -5.2310    5.9420  -17.0140 C   0  0  0  0  0  0  0  0  0  0  0  0
   -4.5970    6.7040  -16.2880 O   0  0  0  0  0  0  0  0  0  0  0  0
   -4.8660    5.6910  -18.2700 N   0  0  0  0  0  0  0  0  0  0  0  0
   -3.8400    6.4660  -18.9420 C   0  0  0  0  0  0  0  0  0  0  0  0
   -8.0810    4.8230  -12.3240 N   0  0  0  0  0  0  0  0  0  0  0  0
   -8.3110    4.5830  -10.9610 C   0  0  0  0  0  0  0  0  0  0  0  0
   -8.6470    3.3170  -10.4760 C   0  0  0  0  0  0  0  0  0  0  0  0
   -8.7950    3.1060   -9.1060 C   0  0  0  0  0  0  0  0  0  0  0  0
   -9.1110    1.8420   -8.3630 C   0  0  0  0  0  0  0  0  0  0  0  0
   -8.9190    2.2430   -6.9700 N   0  0  0  0  0  0  0  0  0  0  0  0
   -8.8290    3.6940   -6.8080 C   0  0  0  0  0  0  0  0  0  0  0  0
   -8.6280    4.1580   -8.2190 C   0  0  0  0  0  0  0  0  0  0  0  0
   -8.3190    5.4240   -8.7050 C   0  0  0  0  0  0  0  0  0  0  0  0
   -8.1580    5.6360  -10.0640 C   0  0  0  0  0  0  0  0  0  0  0  0
  2  1  1  1
  3  2  1  0
  4  2  1  0
  5  4  1  0
  6  5  1  0
  7  6  2  0
  8  6  1  0
  9  8  1  0
 10  9  2  0
 11 10  1  0
 12 11  1  0
 13 11  2  0
 14  9  1  0
 15 13  1  0
 15 14  2  0
 16 15  1  0
 17 16  2  0
 18 16  1  0
 19 18  1  0
  8 20  1  1
 21 20  1  0
 22 21  2  0
 23 22  1  0
 24 23  1  0
 25 24  1  0
 26 25  1  0
 27 26  1  0
 27 23  2  0
 28 27  1  0
 29 21  1  0
 29 28  2  0
M  END
>  <smiles>  (101) 
CNC(=O)c1cc(Br)cc([C@H](Nc2ccc3c(c2)CNC3)C(=O)NCC(F)F)c1

>  <inchikey>  (101) 
ZSXOLMJFELISNG-SFHVURJKSA-N

>  <alias>  (101) 
Z3754a

$$$$
Z3774a
     RDKit          3D

 28 31  0  0  0  0  0  0  0  0999 V2000
   -9.8940    4.0280  -17.9310 Cl  0  0  0  0  0  0  0  0  0  0  0  0
   -8.5490    4.5770  -16.9580 C   0  0  0  0  0  0  0  0  0  0  0  0
   -8.5480    4.3340  -15.5920 C   0  0  0  0  0  0  0  0  0  0  0  0
   -7.5060    5.2330  -17.5780 C   0  0  0  0  0  0  0  0  0  0  0  0
   -6.4270    5.6760  -16.8230 C   0  0  0  0  0  0  0  0  0  0  0  0
   -5.2200    6.2910  -17.4970 C   0  0  1  0  0  0  0  0  0  0  0  0
   -4.1690    5.4310  -18.1460 C   0  0  0  0  0  0  0  0  0  0  0  0
   -5.0660    6.2540  -18.9930 C   0  0  0  0  0  0  0  0  0  0  0  0
   -6.4430    5.4560  -15.4510 C   0  0  0  0  0  0  0  0  0  0  0  0
   -7.4730    4.7710  -14.8200 C   0  0  0  0  0  0  0  0  0  0  0  0
   -7.3550    4.4470  -13.3350 C   0  0  2  0  0  0  0  0  0  0  0  0
   -6.7470    3.0670  -13.1050 C   0  0  0  0  0  0  0  0  0  0  0  0
   -5.6980    3.0620  -12.2880 N   0  0  0  0  0  0  0  0  0  0  0  0
   -4.5160    2.2590  -12.5440 C   0  0  0  0  0  0  0  0  0  0  0  0
   -3.7050    2.9700  -13.6650 C   0  0  1  0  0  0  0  0  0  0  0  0
   -2.4950    2.3610  -13.7490 F   0  0  0  0  0  0  0  0  0  0  0  0
   -4.3310    2.7040  -14.8400 F   0  0  0  0  0  0  0  0  0  0  0  0
   -7.2240    2.0470  -13.5940 O   0  0  0  0  0  0  0  0  0  0  0  0
   -8.5110    4.6340  -12.4840 N   0  0  0  0  0  0  0  0  0  0  0  0
   -8.4360    4.4950  -11.0970 C   0  0  0  0  0  0  0  0  0  0  0  0
   -8.7260    3.2810  -10.4810 C   0  0  0  0  0  0  0  0  0  0  0  0
   -8.7110    3.1890   -9.0940 C   0  0  0  0  0  0  0  0  0  0  0  0
   -8.9520    2.0040   -8.2080 C   0  0  0  0  0  0  0  0  0  0  0  0
   -8.7020    2.5250   -6.8690 N   0  0  0  0  0  0  0  0  0  0  0  0
   -8.5150    3.9680   -6.9080 C   0  0  0  0  0  0  0  0  0  0  0  0
   -8.4150    4.3450   -8.3510 C   0  0  0  0  0  0  0  0  0  0  0  0
   -8.1250    5.5190   -8.9370 N   0  0  0  0  0  0  0  0  0  0  0  0
   -8.1320    5.5750  -10.2750 C   0  0  0  0  0  0  0  0  0  0  0  0
  2  1  1  0
  3  2  2  0
  4  2  1  0
  5  4  2  0
  6  5  1  6
  7  6  1  0
  8  7  1  0
  8  6  1  0
  9  5  1  0
 10  3  1  0
 10  9  2  0
 11 10  1  0
 12 11  1  0
 13 12  1  0
 14 13  1  0
 15 14  1  0
 15 16  1  6
 17 15  1  0
 18 12  2  0
 11 19  1  6
 20 19  1  0
 21 20  2  0
 22 21  1  0
 23 22  1  0
 24 23  1  0
 25 24  1  0
 26 25  1  0
 26 22  2  0
 27 26  1  0
 28 20  1  0
 28 27  2  0
M  END
>  <smiles>  (102) 
O=C(NCC(F)F)[C@H](Nc1cnc2c(c1)CNC2)c1cc(Cl)cc(C2CC2)c1

>  <inchikey>  (102) 
MFDMWFRKMOCKSW-LJQANCHMSA-N

>  <alias>  (102) 
Z3774a

$$$$
Z3790a
     RDKit          3D

 29 33  0  0  0  0  0  0  0  0999 V2000
   -6.7580    5.7190  -12.5460 O   0  0  0  0  0  0  0  0  0  0  0  0
   -7.4120    4.8380  -13.1000 C   0  0  0  0  0  0  0  0  0  0  0  0
   -8.1700    3.9470  -12.4210 N   0  0  0  0  0  0  0  0  0  0  0  0
   -8.3360    3.9260  -11.0150 C   0  0  0  0  0  0  0  0  0  0  0  0
   -8.7300    2.7940  -10.3050 C   0  0  0  0  0  0  0  0  0  0  0  0
   -8.7780    2.8260   -8.9120 C   0  0  0  0  0  0  0  0  0  0  0  0
   -9.0770    1.7190   -7.9450 C   0  0  0  0  0  0  0  0  0  0  0  0
   -8.7700    2.3510   -6.6540 N   0  0  0  0  0  0  0  0  0  0  0  0
   -8.5890    3.7970   -6.7490 C   0  0  0  0  0  0  0  0  0  0  0  0
   -8.4590    3.9940   -8.2300 C   0  0  0  0  0  0  0  0  0  0  0  0
   -8.0780    5.1240   -8.9420 C   0  0  0  0  0  0  0  0  0  0  0  0
   -8.0170    5.0910  -10.3240 C   0  0  0  0  0  0  0  0  0  0  0  0
   -7.3910    4.7030  -14.5890 C   0  0  0  0  0  0  0  0  0  0  0  0
   -8.3750    4.1340  -15.3940 C   0  0  0  0  0  0  0  0  0  0  0  0
   -6.2780    5.2880  -15.1770 C   0  0  0  0  0  0  0  0  0  0  0  0
   -6.1220    5.3030  -16.5480 C   0  0  0  0  0  0  0  0  0  0  0  0
   -7.0940    4.7550  -17.3760 C   0  0  0  0  0  0  0  0  0  0  0  0
   -8.2310    4.1830  -16.7780 C   0  0  0  0  0  0  0  0  0  0  0  0
   -9.3750    3.6490  -17.9730 S   0  0  0  0  0  0  0  0  0  0  0  0
   -8.3430    4.1640  -19.2520 C   0  0  0  0  0  0  0  0  0  0  0  0
   -7.1710    4.7200  -18.8260 C   0  0  0  0  0  0  0  0  0  0  0  0
   -6.1010    5.1820  -19.7520 C   0  0  0  0  0  0  0  0  0  0  0  0
   -5.6860    4.3900  -20.8220 C   0  0  0  0  0  0  0  0  0  0  0  0
   -4.6810    4.8190  -21.6700 C   0  0  0  0  0  0  0  0  0  0  0  0
   -5.4870    6.4160  -19.5690 C   0  0  0  0  0  0  0  0  0  0  0  0
   -4.4890    6.8390  -20.4280 C   0  0  0  0  0  0  0  0  0  0  0  0
   -4.0700    6.0500  -21.4870 C   0  0  0  0  0  0  0  0  0  0  0  0
   -2.9930    6.5310  -22.4130 C   0  0  0  0  0  0  0  0  0  0  0  0
   -1.9180    7.1270  -21.6170 N   0  0  0  0  0  0  0  0  0  0  0  0
  2  1  2  0
  3  2  1  0
  4  3  1  0
  5  4  2  0
  6  5  1  0
  7  6  1  0
  8  7  1  0
  9  8  1  0
 10  9  1  0
 10  6  2  0
 11 10  1  0
 12  4  1  0
 12 11  2  0
 13  2  1  0
 14 13  2  0
 15 13  1  0
 16 15  2  0
 17 16  1  0
 18 17  2  0
 18 14  1  0
 19 18  1  0
 20 19  1  0
 21 20  2  0
 21 17  1  0
 22 21  1  0
 23 22  2  0
 24 23  1  0
 25 22  1  0
 26 25  2  0
 27 24  2  0
 27 26  1  0
 28 27  1  0
 29 28  1  0
M  END
>  <smiles>  (103) 
NCc1ccc(-c2csc3cc(C(=O)Nc4ccc5c(c4)CNC5)ccc23)cc1

>  <inchikey>  (103) 
GOHRAXAGQILAHI-UHFFFAOYSA-N

>  <alias>  (103) 
Z3790a

$$$$
Z3799a
     RDKit          3D

 24 27  0  0  0  0  0  0  0  0999 V2000
   -6.7270    6.0510  -14.3340 O   0  0  0  0  0  0  0  0  0  0  0  0
   -7.2850    4.9770  -14.5480 C   0  0  0  0  0  0  0  0  0  0  0  0
   -7.7530    4.6160  -15.9270 C   0  0  0  0  0  0  0  0  0  0  0  0
   -6.9300    4.7890  -17.0450 C   0  0  0  0  0  0  0  0  0  0  0  0
   -5.5180    5.2640  -17.1850 C   0  0  0  0  0  0  0  0  0  0  0  0
   -9.0420    4.1200  -16.1130 C   0  0  0  0  0  0  0  0  0  0  0  0
   -9.5040    3.8080  -17.3850 C   0  0  0  0  0  0  0  0  0  0  0  0
   -8.6930    3.9800  -18.4970 C   0  0  0  0  0  0  0  0  0  0  0  0
   -7.4040    4.4680  -18.3110 C   0  0  0  0  0  0  0  0  0  0  0  0
   -6.3960    4.6710  -19.2480 N   0  0  0  0  0  0  0  0  0  0  0  0
   -5.2550    5.1270  -18.6680 C   0  0  0  0  0  0  0  0  0  0  0  0
   -4.2090    5.3820  -19.2590 O   0  0  0  0  0  0  0  0  0  0  0  0
   -7.4890    4.0700  -13.5800 N   0  0  0  0  0  0  0  0  0  0  0  0
   -8.4140    4.3010  -12.4700 C   0  0  1  0  0  0  0  0  0  0  0  0
   -8.3460    3.1960  -11.4030 C   0  0  0  0  0  0  0  0  0  0  0  0
   -8.0950    3.9210  -10.1590 N   0  0  0  0  0  0  0  0  0  0  0  0
   -7.4900    5.2220  -10.4320 C   0  0  0  0  0  0  0  0  0  0  0  0
   -8.1540    5.6330  -11.7320 C   0  0  0  0  0  0  0  0  0  0  0  0
   -8.3920    3.4690   -8.8900 C   0  0  0  0  0  0  0  0  0  0  0  0
   -8.6590    2.1600   -8.7720 N   0  0  0  0  0  0  0  0  0  0  0  0
   -8.9320    1.6970   -7.5440 C   0  0  0  0  0  0  0  0  0  0  0  0
   -8.9440    2.4830   -6.4150 C   0  0  0  0  0  0  0  0  0  0  0  0
   -8.6780    3.8220   -6.5520 C   0  0  0  0  0  0  0  0  0  0  0  0
   -8.3960    4.3470   -7.7990 C   0  0  0  0  0  0  0  0  0  0  0  0
  2  1  2  0
  3  2  1  0
  4  3  2  0
  5  4  1  0
  6  3  1  0
  7  6  2  0
  8  7  1  0
  9  8  2  0
  9  4  1  0
 10  9  1  0
 11 10  1  0
 11  5  1  0
 12 11  2  0
 13  2  1  0
 14 13  1  6
 15 14  1  0
 16 15  1  0
 17 16  1  0
 18 14  1  0
 18 17  1  0
 19 16  1  0
 20 19  2  0
 21 20  1  0
 22 21  2  0
 23 22  1  0
 24 23  2  0
 24 19  1  0
M  END
>  <smiles>  (104) 
O=C1Cc2c(cccc2C(=O)N[C@@H]2CCN(c3ccccn3)C2)N1

>  <inchikey>  (104) 
HAZUYGZWRQNNJE-GFCCVEGCSA-N

>  <alias>  (104) 
Z3799a

$$$$
Z3802a
     RDKit          3D

 29 32  0  0  0  0  0  0  0  0999 V2000
   -7.0590    5.9800  -13.1500 O   0  0  0  0  0  0  0  0  0  0  0  0
   -7.6420    5.0300  -13.6640 C   0  0  0  0  0  0  0  0  0  0  0  0
   -7.6770    4.8680  -15.1560 C   0  0  0  0  0  0  0  0  0  0  0  0
   -8.8610    4.4240  -15.7540 C   0  0  0  0  0  0  0  0  0  0  0  0
   -8.9030    4.3010  -17.1270 C   0  0  0  0  0  0  0  0  0  0  0  0
  -10.0520    3.8510  -17.6960 F   0  0  0  0  0  0  0  0  0  0  0  0
   -7.8390    4.5860  -17.9500 C   0  0  0  0  0  0  0  0  0  0  0  0
   -6.5660    5.1610  -15.9520 C   0  0  0  0  0  0  0  0  0  0  0  0
   -6.6670    5.0040  -17.3300 C   0  0  0  0  0  0  0  0  0  0  0  0
   -5.4220    5.2310  -17.9160 N   0  0  0  0  0  0  0  0  0  0  0  0
   -4.4760    5.5370  -16.9960 C   0  0  0  0  0  0  0  0  0  0  0  0
   -3.2950    5.7660  -17.2130 O   0  0  0  0  0  0  0  0  0  0  0  0
   -5.1490    5.5750  -15.6160 C   0  0  2  0  0  0  0  0  0  0  0  0
   -4.6490    4.5270  -14.7570 O   0  0  0  0  0  0  0  0  0  0  0  0
   -3.8390    4.8820  -13.6200 C   0  0  0  0  0  0  0  0  0  0  0  0
   -4.2900    4.0360  -12.4470 C   0  0  0  0  0  0  0  0  0  0  0  0
   -4.2070    4.8430  -11.1400 C   0  0  0  0  0  0  0  0  0  0  0  0
   -4.9740    6.0450  -11.0910 O   0  0  0  0  0  0  0  0  0  0  0  0
   -5.0680    6.9990  -15.0540 C   0  0  0  0  0  0  0  0  0  0  0  0
   -8.3040    4.0880  -12.9430 N   0  0  0  0  0  0  0  0  0  0  0  0
   -8.4480    4.0470  -11.5310 C   0  0  0  0  0  0  0  0  0  0  0  0
   -8.7420    2.8500  -10.8800 C   0  0  0  0  0  0  0  0  0  0  0  0
   -8.8510    2.8180   -9.4930 C   0  0  0  0  0  0  0  0  0  0  0  0
   -9.2310    1.6790   -8.5940 C   0  0  0  0  0  0  0  0  0  0  0  0
   -8.9400    2.2330   -7.2750 N   0  0  0  0  0  0  0  0  0  0  0  0
   -8.7550    3.6830   -7.2830 C   0  0  0  0  0  0  0  0  0  0  0  0
   -8.6420    3.9720   -8.7500 C   0  0  0  0  0  0  0  0  0  0  0  0
   -8.3580    5.1670   -9.4020 C   0  0  0  0  0  0  0  0  0  0  0  0
   -8.2700    5.2080  -10.7820 C   0  0  0  0  0  0  0  0  0  0  0  0
  2  1  2  0
  3  2  1  0
  4  3  2  0
  5  4  1  0
  6  5  1  0
  7  5  2  0
  8  3  1  0
  9  7  1  0
  9  8  2  0
 10  9  1  0
 11 10  1  0
 12 11  2  0
 13  8  1  0
 13 11  1  0
 14 13  1  0
 15 14  1  0
 16 15  1  0
 17 16  1  0
 18 17  1  0
 13 19  1  1
 20  2  1  0
 21 20  1  0
 22 21  2  0
 23 22  1  0
 24 23  1  0
 25 24  1  0
 26 25  1  0
 27 26  1  0
 27 23  2  0
 28 27  1  0
 29 21  1  0
 29 28  2  0
M  END
>  <smiles>  (105) 
C[C@]1(OCCCO)C(=O)Nc2cc(F)cc(C(=O)Nc3ccc4c(c3)CNC4)c21

>  <inchikey>  (105) 
JPBNOOYFKLIKNL-OAQYLSRUSA-N

>  <alias>  (105) 
Z3802a

$$$$
Z3808b
     RDKit          3D

 22 25  0  0  0  0  0  0  0  0999 V2000
  -10.2000    3.7130  -17.5010 F   0  0  0  0  0  0  0  0  0  0  0  0
   -9.0150    4.2070  -17.0580 C   0  0  0  0  0  0  0  0  0  0  0  0
   -8.8340    4.3440  -15.7010 C   0  0  0  0  0  0  0  0  0  0  0  0
   -8.0540    4.5090  -17.9880 C   0  0  0  0  0  0  0  0  0  0  0  0
   -6.8300    4.9620  -17.5130 C   0  0  0  0  0  0  0  0  0  0  0  0
   -6.5660    5.1110  -16.1370 C   0  0  0  0  0  0  0  0  0  0  0  0
   -5.2260    5.5670  -16.0840 C   0  0  0  0  0  0  0  0  0  0  0  0
   -4.7110    5.6990  -17.2910 N   0  0  0  0  0  0  0  0  0  0  0  0
   -5.6940    5.3280  -18.1630 N   0  0  0  0  0  0  0  0  0  0  0  0
   -7.5970    4.7960  -15.2310 C   0  0  0  0  0  0  0  0  0  0  0  0
   -7.4040    4.9260  -13.7470 C   0  0  0  0  0  0  0  0  0  0  0  0
   -6.3560    5.3670  -13.2820 O   0  0  0  0  0  0  0  0  0  0  0  0
   -8.4170    4.4620  -12.9760 N   0  0  0  0  0  0  0  0  0  0  0  0
   -8.4250    4.3320  -11.5680 C   0  0  0  0  0  0  0  0  0  0  0  0
   -8.7470    3.1090  -10.9960 C   0  0  0  0  0  0  0  0  0  0  0  0
   -8.7990    2.9880   -9.6120 C   0  0  0  0  0  0  0  0  0  0  0  0
   -9.1630    1.7990   -8.7720 C   0  0  0  0  0  0  0  0  0  0  0  0
   -9.2930    2.3810   -7.4470 N   0  0  0  0  0  0  0  0  0  0  0  0
   -8.7090    3.7200   -7.4030 C   0  0  0  0  0  0  0  0  0  0  0  0
   -8.5040    4.1150   -8.8280 C   0  0  0  0  0  0  0  0  0  0  0  0
   -8.1580    5.2930   -9.3730 N   0  0  0  0  0  0  0  0  0  0  0  0
   -8.1340    5.3860  -10.7090 C   0  0  0  0  0  0  0  0  0  0  0  0
  2  1  1  0
  3  2  2  0
  4  2  1  0
  5  4  2  0
  6  5  1  0
  7  6  1  0
  8  7  2  0
  9  5  1  0
  9  8  1  0
 10  6  2  0
 10  3  1  0
 11 10  1  0
 12 11  2  0
 13 11  1  0
 14 13  1  0
 15 14  2  0
 16 15  1  0
 17 16  1  0
 18 17  1  0
 19 18  1  0
 20 19  1  0
 20 16  2  0
 21 20  1  0
 22 14  1  0
 22 21  2  0
M  END
>  <smiles>  (106) 
O=C(Nc1cnc2c(c1)CNC2)c1cc(F)cc2[nH]ncc12

>  <inchikey>  (106) 
LPGIDXODXUYNEY-UHFFFAOYSA-N

>  <alias>  (106) 
Z3808b

$$$$
Z3813a
     RDKit          3D

 22 24  0  0  0  0  0  0  0  0999 V2000
   -3.7970    5.0910  -18.5530 O   0  0  0  0  0  0  0  0  0  0  0  0
   -4.9550    5.0130  -18.1560 C   0  0  0  0  0  0  0  0  0  0  0  0
   -6.0310    4.6890  -18.9220 N   0  0  0  0  0  0  0  0  0  0  0  0
   -7.1910    4.5700  -18.1560 C   0  0  0  0  0  0  0  0  0  0  0  0
   -8.4630    4.1660  -18.5440 C   0  0  0  0  0  0  0  0  0  0  0  0
   -9.4300    3.9820  -17.5670 C   0  0  0  0  0  0  0  0  0  0  0  0
   -9.1380    4.2010  -16.2270 C   0  0  0  0  0  0  0  0  0  0  0  0
   -5.4420    5.1940  -16.7350 C   0  0  0  0  0  0  0  0  0  0  0  0
   -6.8900    4.8180  -16.8220 C   0  0  0  0  0  0  0  0  0  0  0  0
   -7.8710    4.6360  -15.8420 C   0  0  0  0  0  0  0  0  0  0  0  0
   -7.5870    4.9120  -14.3960 C   0  0  0  0  0  0  0  0  0  0  0  0
   -6.7460    5.7450  -14.0620 O   0  0  0  0  0  0  0  0  0  0  0  0
   -8.3380    4.2180  -13.5100 N   0  0  0  0  0  0  0  0  0  0  0  0
   -8.3320    4.3730  -12.1070 C   0  0  0  0  0  0  0  0  0  0  0  0
   -7.9800    5.6070  -11.5710 C   0  0  0  0  0  0  0  0  0  0  0  0
   -8.0090    5.8230  -10.2030 C   0  0  0  0  0  0  0  0  0  0  0  0
   -7.6490    7.1720   -9.6300 C   0  0  0  0  0  0  0  0  0  0  0  0
   -8.7180    3.3440  -11.2630 C   0  0  0  0  0  0  0  0  0  0  0  0
   -8.7790    3.5410   -9.8910 C   0  0  0  0  0  0  0  0  0  0  0  0
   -8.4030    4.7760   -9.3770 C   0  0  0  0  0  0  0  0  0  0  0  0
   -9.3490    2.4730   -8.9940 C   0  0  0  0  0  0  0  0  0  0  0  0
   -8.2980    1.5970   -8.4850 N   0  0  0  0  0  0  0  0  0  0  0  0
  2  1  2  0
  3  2  1  0
  4  3  1  0
  5  4  2  0
  6  5  1  0
  7  6  2  0
  8  2  1  0
  9  4  1  0
  9  8  1  0
 10  9  2  0
 10  7  1  0
 11 10  1  0
 12 11  2  0
 13 11  1  0
 14 13  1  0
 15 14  2  0
 16 15  1  0
 17 16  1  0
 18 14  1  0
 19 18  2  0
 20 19  1  0
 20 16  2  0
 21 19  1  0
 22 21  1  0
M  END
>  <smiles>  (107) 
Cc1cc(CN)cc(NC(=O)c2cccc3c2CC(=O)N3)c1

>  <inchikey>  (107) 
ACLYMOZSBKAVNS-UHFFFAOYSA-N

>  <alias>  (107) 
Z3813a

$$$$
Z3830a
     RDKit          3D

 26 29  0  0  0  0  0  0  0  0999 V2000
  -10.2140    3.7840  -18.0470 Cl  0  0  0  0  0  0  0  0  0  0  0  0
   -8.7200    4.2570  -17.2830 C   0  0  0  0  0  0  0  0  0  0  0  0
   -8.6660    4.3420  -15.8980 C   0  0  0  0  0  0  0  0  0  0  0  0
   -7.6250    4.5280  -18.0760 C   0  0  0  0  0  0  0  0  0  0  0  0
   -6.4360    4.8830  -17.4510 C   0  0  0  0  0  0  0  0  0  0  0  0
   -6.3220    4.9830  -16.0500 C   0  0  0  0  0  0  0  0  0  0  0  0
   -4.9670    5.3290  -15.8330 C   0  0  0  0  0  0  0  0  0  0  0  0
   -4.3040    5.4320  -16.9690 N   0  0  0  0  0  0  0  0  0  0  0  0
   -5.2060    5.1600  -17.9580 N   0  0  0  0  0  0  0  0  0  0  0  0
   -7.4710    4.7160  -15.2750 C   0  0  0  0  0  0  0  0  0  0  0  0
   -7.4390    4.8960  -13.7820 C   0  0  0  0  0  0  0  0  0  0  0  0
   -6.6420    5.6800  -13.2720 O   0  0  0  0  0  0  0  0  0  0  0  0
   -8.3060    4.1440  -13.0540 N   0  0  0  0  0  0  0  0  0  0  0  0
   -8.4330    4.1230  -11.6330 C   0  0  0  0  0  0  0  0  0  0  0  0
   -8.7010    2.9360  -10.9500 C   0  0  0  0  0  0  0  0  0  0  0  0
   -8.2080    5.2960  -10.9090 C   0  0  0  0  0  0  0  0  0  0  0  0
   -8.2020    5.2750   -9.5230 C   0  0  0  0  0  0  0  0  0  0  0  0
   -8.4240    4.0790   -8.8480 C   0  0  0  0  0  0  0  0  0  0  0  0
   -8.6930    2.9200   -9.5560 C   0  0  0  0  0  0  0  0  0  0  0  0
   -8.9330    1.7790   -8.6120 C   0  0  0  0  0  0  0  0  0  0  0  0
   -8.6180    2.2890   -7.2750 N   0  0  0  0  0  0  0  0  0  0  0  0
   -8.2790    3.7110   -7.3890 C   0  0  2  0  0  0  0  0  0  0  0  0
   -9.0720    4.5980   -6.4090 C   0  0  0  0  0  0  0  0  0  0  0  0
   -8.5090    5.9830   -6.1760 C   0  0  0  0  0  0  0  0  0  0  0  0
   -9.2180    6.9650   -6.1950 O   0  0  0  0  0  0  0  0  0  0  0  0
   -7.2140    6.0310   -5.9340 O   0  0  0  0  0  0  0  0  0  0  0  0
  2  1  1  0
  3  2  2  0
  4  2  1  0
  5  4  2  0
  6  5  1  0
  7  6  1  0
  8  7  2  0
  9  5  1  0
  9  8  1  0
 10  6  2  0
 10  3  1  0
 11 10  1  0
 12 11  2  0
 13 11  1  0
 14 13  1  0
 15 14  2  0
 16 14  1  0
 17 16  2  0
 18 17  1  0
 19 15  1  0
 19 18  2  0
 20 19  1  0
 21 20  1  0
 22 21  1  0
 22 18  1  0
 22 23  1  1
 24 23  1  0
 25 24  2  0
 26 24  1  0
M  END
>  <smiles>  (108) 
O=C(O)C[C@H]1NCc2cc(NC(=O)c3cc(Cl)cc4[nH]ncc34)ccc21

>  <inchikey>  (108) 
ACAXOSXMTLFYMA-OAHLLOKOSA-N

>  <alias>  (108) 
Z3830a

$$$$
Z3831a
     RDKit          3D

 22 25  0  0  0  0  0  0  0  0999 V2000
   -6.8020    5.5060  -13.3510 O   0  0  0  0  0  0  0  0  0  0  0  0
   -7.6710    4.7530  -13.7830 C   0  0  0  0  0  0  0  0  0  0  0  0
   -7.8530    4.5650  -15.2580 C   0  0  0  0  0  0  0  0  0  0  0  0
   -6.7700    4.7220  -16.1300 C   0  0  0  0  0  0  0  0  0  0  0  0
   -5.2970    4.8300  -15.8780 C   0  0  0  0  0  0  0  0  0  0  0  0
   -9.1210    4.3620  -15.7940 C   0  0  0  0  0  0  0  0  0  0  0  0
   -9.3160    4.3620  -17.1700 C   0  0  0  0  0  0  0  0  0  0  0  0
   -8.2510    4.5590  -18.0390 C   0  0  0  0  0  0  0  0  0  0  0  0
   -6.9750    4.7300  -17.5040 C   0  0  0  0  0  0  0  0  0  0  0  0
   -5.7560    4.9270  -18.1510 N   0  0  0  0  0  0  0  0  0  0  0  0
   -4.7210    4.9820  -17.2690 C   0  0  0  0  0  0  0  0  0  0  0  0
   -3.5340    5.1020  -17.5680 O   0  0  0  0  0  0  0  0  0  0  0  0
   -8.4930    4.0400  -12.9770 N   0  0  0  0  0  0  0  0  0  0  0  0
   -8.5200    4.0730  -11.5740 C   0  0  0  0  0  0  0  0  0  0  0  0
   -8.7330    2.8920  -10.9750 N   0  0  0  0  0  0  0  0  0  0  0  0
   -8.8290    2.8910   -9.6370 C   0  0  0  0  0  0  0  0  0  0  0  0
   -9.1530    1.7730   -8.7020 C   0  0  0  0  0  0  0  0  0  0  0  0
   -8.8850    2.2840   -7.3670 N   0  0  0  0  0  0  0  0  0  0  0  0
   -8.8440    3.7450   -7.3680 C   0  0  0  0  0  0  0  0  0  0  0  0
   -8.6900    4.0300   -8.8330 C   0  0  0  0  0  0  0  0  0  0  0  0
   -8.4470    5.2360   -9.4820 C   0  0  0  0  0  0  0  0  0  0  0  0
   -8.3650    5.2750  -10.8610 C   0  0  0  0  0  0  0  0  0  0  0  0
  2  1  2  0
  3  2  1  0
  4  3  2  0
  5  4  1  0
  6  3  1  0
  7  6  2  0
  8  7  1  0
  9  8  2  0
  9  4  1  0
 10  9  1  0
 11 10  1  0
 11  5  1  0
 12 11  2  0
 13  2  1  0
 14 13  1  0
 15 14  2  0
 16 15  1  0
 17 16  1  0
 18 17  1  0
 19 18  1  0
 20 19  1  0
 20 16  2  0
 21 20  1  0
 22 14  1  0
 22 21  2  0
M  END
>  <smiles>  (109) 
O=C1Cc2c(cccc2C(=O)Nc2ccc3c(n2)CNC3)N1

>  <inchikey>  (109) 
MGCAZFAVYBYTMO-UHFFFAOYSA-N

>  <alias>  (109) 
Z3831a

$$$$
Z3842a
     RDKit          3D

 29 31  0  0  0  0  0  0  0  0999 V2000
   -5.2640    7.4220  -16.6220 F   0  0  0  0  0  0  0  0  0  0  0  0
   -5.3400    6.1370  -16.9980 C   0  0  1  0  0  0  0  0  0  0  0  0
   -5.1420    6.0760  -18.3050 F   0  0  0  0  0  0  0  0  0  0  0  0
   -4.2780    5.5550  -16.4710 F   0  0  0  0  0  0  0  0  0  0  0  0
   -6.6140    5.4770  -16.5810 C   0  0  0  0  0  0  0  0  0  0  0  0
   -7.5750    5.1360  -17.5270 C   0  0  0  0  0  0  0  0  0  0  0  0
   -8.7280    4.4500  -17.1700 C   0  0  0  0  0  0  0  0  0  0  0  0
   -9.8040    4.1600  -18.1880 C   0  0  0  0  0  0  0  0  0  0  0  0
   -6.8070    5.1130  -15.2560 C   0  0  0  0  0  0  0  0  0  0  0  0
   -7.9230    4.3780  -14.8800 C   0  0  0  0  0  0  0  0  0  0  0  0
   -8.8810    4.0720  -15.8410 C   0  0  0  0  0  0  0  0  0  0  0  0
   -8.0110    3.7920  -13.4770 C   0  0  1  0  0  0  0  0  0  0  0  0
   -6.8470    2.7570  -13.2840 C   0  0  0  0  0  0  0  0  0  0  0  0
   -5.7660    3.2290  -12.6620 N   0  0  0  0  0  0  0  0  0  0  0  0
   -4.5510    2.4460  -12.4850 C   0  0  0  0  0  0  0  0  0  0  0  0
   -3.4830    2.8140  -13.5840 C   0  0  1  0  0  0  0  0  0  0  0  0
   -3.3610    1.7440  -14.4130 F   0  0  0  0  0  0  0  0  0  0  0  0
   -3.9170    3.8340  -14.3680 F   0  0  0  0  0  0  0  0  0  0  0  0
   -6.9540    1.5940  -13.6580 O   0  0  0  0  0  0  0  0  0  0  0  0
   -8.0070    4.8410  -12.4780 N   0  0  0  0  0  0  0  0  0  0  0  0
   -8.1790    4.6180  -11.1130 C   0  0  0  0  0  0  0  0  0  0  0  0
   -8.5480    3.3740  -10.6040 C   0  0  0  0  0  0  0  0  0  0  0  0
   -8.7220    3.2010   -9.2370 C   0  0  0  0  0  0  0  0  0  0  0  0
   -9.1510    1.9820   -8.4780 C   0  0  0  0  0  0  0  0  0  0  0  0
   -9.0170    2.4230   -7.0890 N   0  0  0  0  0  0  0  0  0  0  0  0
   -8.7620    3.8510   -6.9500 C   0  0  0  0  0  0  0  0  0  0  0  0
   -8.5220    4.2670   -8.3710 C   0  0  0  0  0  0  0  0  0  0  0  0
   -8.1560    5.5080   -8.8810 C   0  0  0  0  0  0  0  0  0  0  0  0
   -7.9840    5.6830  -10.2400 C   0  0  0  0  0  0  0  0  0  0  0  0
  2  1  1  1
  3  2  1  0
  4  2  1  0
  5  2  1  0
  6  5  2  0
  7  6  1  0
  8  7  1  0
  9  5  1  0
 10  9  2  0
 11  7  2  0
 11 10  1  0
 12 10  1  0
 13 12  1  0
 14 13  1  0
 15 14  1  0
 16 15  1  0
 16 17  1  6
 18 16  1  0
 19 13  2  0
 12 20  1  1
 21 20  1  0
 22 21  2  0
 23 22  1  0
 24 23  1  0
 25 24  1  0
 26 25  1  0
 27 26  1  0
 27 23  2  0
 28 27  1  0
 29 21  1  0
 29 28  2  0
M  END
>  <smiles>  (110) 
Cc1cc([C@H](Nc2ccc3c(c2)CNC3)C(=O)NCC(F)F)cc(C(F)(F)F)c1

>  <inchikey>  (110) 
DXHLVVVVEFLCRN-SFHVURJKSA-N

>  <alias>  (110) 
Z3842a

$$$$
Z3880a
     RDKit          3D

 21 24  0  0  0  0  0  0  0  0999 V2000
   -6.4890    5.6080  -13.0640 O   0  0  0  0  0  0  0  0  0  0  0  0
   -7.2920    4.8450  -13.5970 C   0  0  0  0  0  0  0  0  0  0  0  0
   -7.3800    4.7490  -15.0860 C   0  0  0  0  0  0  0  0  0  0  0  0
   -6.2030    4.9490  -15.8100 C   0  0  0  0  0  0  0  0  0  0  0  0
   -6.2510    4.8790  -17.2020 C   0  0  0  0  0  0  0  0  0  0  0  0
   -5.2510    5.0400  -18.1640 N   0  0  0  0  0  0  0  0  0  0  0  0
   -5.8690    4.8680  -19.3160 C   0  0  0  0  0  0  0  0  0  0  0  0
   -7.1910    4.6090  -19.1910 N   0  0  0  0  0  0  0  0  0  0  0  0
   -7.4600    4.6140  -17.8440 C   0  0  0  0  0  0  0  0  0  0  0  0
   -8.6380    4.4230  -17.1370 C   0  0  0  0  0  0  0  0  0  0  0  0
   -8.5860    4.4970  -15.7540 C   0  0  0  0  0  0  0  0  0  0  0  0
   -8.1550    4.0640  -12.8970 N   0  0  0  0  0  0  0  0  0  0  0  0
   -8.3090    4.0270  -11.4870 C   0  0  0  0  0  0  0  0  0  0  0  0
   -8.6610    2.8480  -10.8310 C   0  0  0  0  0  0  0  0  0  0  0  0
   -8.8070    2.8360   -9.4460 C   0  0  0  0  0  0  0  0  0  0  0  0
   -9.1920    1.7070   -8.5350 C   0  0  0  0  0  0  0  0  0  0  0  0
   -8.8550    2.2630   -7.2260 N   0  0  0  0  0  0  0  0  0  0  0  0
   -8.7610    3.7240   -7.2460 C   0  0  0  0  0  0  0  0  0  0  0  0
   -8.5930    3.9910   -8.7130 C   0  0  0  0  0  0  0  0  0  0  0  0
   -8.2490    5.1680   -9.3680 C   0  0  0  0  0  0  0  0  0  0  0  0
   -8.1120    5.1900  -10.7440 C   0  0  0  0  0  0  0  0  0  0  0  0
  2  1  2  0
  3  2  1  0
  4  3  2  0
  5  4  1  0
  6  5  1  0
  7  6  2  0
  8  7  1  0
  9  8  1  0
  9  5  2  0
 10  9  1  0
 11 10  2  0
 11  3  1  0
 12  2  1  0
 13 12  1  0
 14 13  2  0
 15 14  1  0
 16 15  1  0
 17 16  1  0
 18 17  1  0
 19 18  1  0
 19 15  2  0
 20 19  1  0
 21 13  1  0
 21 20  2  0
M  END
>  <smiles>  (111) 
O=C(Nc1ccc2c(c1)CNC2)c1ccc2[nH]cnc2c1

>  <inchikey>  (111) 
SOWYVVKGDMUQEU-UHFFFAOYSA-N

>  <alias>  (111) 
Z3880a

$$$$
Z3970a
     RDKit          3D

 22 25  0  0  0  0  0  0  0  0999 V2000
   -6.8410    5.5900  -13.3130 O   0  0  0  0  0  0  0  0  0  0  0  0
   -7.6790    4.8080  -13.7590 C   0  0  0  0  0  0  0  0  0  0  0  0
   -7.7960    4.5740  -15.2290 C   0  0  0  0  0  0  0  0  0  0  0  0
   -6.6940    4.8450  -16.0360 C   0  0  0  0  0  0  0  0  0  0  0  0
   -8.9770    4.1100  -15.8160 C   0  0  0  0  0  0  0  0  0  0  0  0
   -9.0730    3.9290  -17.1880 C   0  0  0  0  0  0  0  0  0  0  0  0
   -7.9590    4.2090  -17.9720 C   0  0  0  0  0  0  0  0  0  0  0  0
   -6.7720    4.6620  -17.4070 C   0  0  0  0  0  0  0  0  0  0  0  0
   -5.7780    4.8660  -18.5100 C   0  0  0  0  0  0  0  0  0  0  0  0
   -7.8040    4.1140  -19.3570 N   0  0  0  0  0  0  0  0  0  0  0  0
   -6.5490    4.4580  -19.7470 C   0  0  0  0  0  0  0  0  0  0  0  0
   -6.1260    4.4170  -20.8980 O   0  0  0  0  0  0  0  0  0  0  0  0
   -8.5030    4.0650  -12.9800 N   0  0  0  0  0  0  0  0  0  0  0  0
   -8.5280    4.0270  -11.5630 C   0  0  0  0  0  0  0  0  0  0  0  0
   -8.7320    2.8420  -10.8720 C   0  0  0  0  0  0  0  0  0  0  0  0
   -8.8140    2.8610   -9.4840 C   0  0  0  0  0  0  0  0  0  0  0  0
   -9.0880    1.7510   -8.5130 C   0  0  0  0  0  0  0  0  0  0  0  0
   -8.8320    2.3710   -7.2250 N   0  0  0  0  0  0  0  0  0  0  0  0
   -8.8000    3.8150   -7.3560 C   0  0  0  0  0  0  0  0  0  0  0  0
   -8.6600    4.0860   -8.8180 C   0  0  0  0  0  0  0  0  0  0  0  0
   -8.4450    5.2330   -9.4790 N   0  0  0  0  0  0  0  0  0  0  0  0
   -8.3840    5.1910  -10.8160 C   0  0  0  0  0  0  0  0  0  0  0  0
  2  1  2  0
  3  2  1  0
  4  3  2  0
  5  3  1  0
  6  5  2  0
  7  6  1  0
  8  7  2  0
  8  4  1  0
  9  8  1  0
 10  7  1  0
 11 10  1  0
 11  9  1  0
 12 11  2  0
 13  2  1  0
 14 13  1  0
 15 14  2  0
 16 15  1  0
 17 16  1  0
 18 17  1  0
 19 18  1  0
 20 19  1  0
 20 16  2  0
 21 20  1  0
 22 14  1  0
 22 21  2  0
M  END
>  <smiles>  (112) 
O=C1Cc2cc(C(=O)Nc3cnc4c(c3)CNC4)ccc2N1

>  <inchikey>  (112) 
QMPZYBMNQVTYSC-UHFFFAOYSA-N

>  <alias>  (112) 
Z3970a

$$$$
Z4008a
     RDKit          3D

 21 24  0  0  0  0  0  0  0  0999 V2000
   -6.4170    5.3030  -12.7970 O   0  0  0  0  0  0  0  0  0  0  0  0
   -7.3050    4.6280  -13.3130 C   0  0  0  0  0  0  0  0  0  0  0  0
   -7.4290    4.5340  -14.7980 C   0  0  0  0  0  0  0  0  0  0  0  0
   -6.3150    4.7880  -15.5980 C   0  0  0  0  0  0  0  0  0  0  0  0
   -6.4370    4.7160  -16.9880 C   0  0  0  0  0  0  0  0  0  0  0  0
   -5.4240    4.9470  -17.9200 N   0  0  0  0  0  0  0  0  0  0  0  0
   -5.8760    4.7730  -19.1160 C   0  0  0  0  0  0  0  0  0  0  0  0
   -7.5390    4.3200  -19.2720 S   0  0  0  0  0  0  0  0  0  0  0  0
   -7.6760    4.3700  -17.5450 C   0  0  0  0  0  0  0  0  0  0  0  0
   -8.7860    4.1190  -16.7500 C   0  0  0  0  0  0  0  0  0  0  0  0
   -8.6510    4.2070  -15.3780 C   0  0  0  0  0  0  0  0  0  0  0  0
   -8.2400    3.9530  -12.6000 N   0  0  0  0  0  0  0  0  0  0  0  0
   -8.3700    3.9260  -11.1890 C   0  0  0  0  0  0  0  0  0  0  0  0
   -8.6560    2.7270  -10.5460 C   0  0  0  0  0  0  0  0  0  0  0  0
   -8.7040    2.6730   -9.1560 C   0  0  0  0  0  0  0  0  0  0  0  0
   -8.9640    1.4990   -8.2600 C   0  0  0  0  0  0  0  0  0  0  0  0
   -8.7430    2.0540   -6.9290 N   0  0  0  0  0  0  0  0  0  0  0  0
   -8.5890    3.5200   -6.9400 C   0  0  0  0  0  0  0  0  0  0  0  0
   -8.4910    3.8210   -8.4060 C   0  0  0  0  0  0  0  0  0  0  0  0
   -8.2320    5.0260   -9.0510 C   0  0  0  0  0  0  0  0  0  0  0  0
   -8.1690    5.0790  -10.4340 C   0  0  0  0  0  0  0  0  0  0  0  0
  2  1  2  0
  3  2  1  0
  4  3  2  0
  5  4  1  0
  6  5  1  0
  7  6  2  0
  8  7  1  0
  9  8  1  0
  9  5  2  0
 10  9  1  0
 11 10  2  0
 11  3  1  0
 12  2  1  0
 13 12  1  0
 14 13  2  0
 15 14  1  0
 16 15  1  0
 17 16  1  0
 18 17  1  0
 19 18  1  0
 19 15  2  0
 20 19  1  0
 21 13  1  0
 21 20  2  0
M  END
>  <smiles>  (113) 
O=C(Nc1ccc2c(c1)CNC2)c1ccc2scnc2c1

>  <inchikey>  (113) 
ZIKAHJGVACLWJM-UHFFFAOYSA-N

>  <alias>  (113) 
Z4008a

$$$$
Z4019a
     RDKit          3D

 25 29  0  0  0  0  0  0  0  0999 V2000
   -6.5850    5.1590  -13.1840 O   0  0  0  0  0  0  0  0  0  0  0  0
   -7.5400    4.5550  -13.6660 C   0  0  0  0  0  0  0  0  0  0  0  0
   -7.7160    4.4750  -15.1530 C   0  0  0  0  0  0  0  0  0  0  0  0
   -6.6530    4.7530  -16.0320 C   0  0  0  0  0  0  0  0  0  0  0  0
   -5.3610    5.0850  -15.7970 N   0  0  0  0  0  0  0  0  0  0  0  0
   -4.6580    5.2250  -16.9640 N   0  0  0  0  0  0  0  0  0  0  0  0
   -5.5000    4.9900  -17.9500 C   0  0  0  0  0  0  0  0  0  0  0  0
   -5.0670    5.0650  -19.3890 C   0  0  1  0  0  0  0  0  0  0  0  0
   -4.8150    6.5080  -19.8900 C   0  0  0  0  0  0  0  0  0  0  0  0
   -3.5500    6.0510  -20.5180 N   0  0  0  0  0  0  0  0  0  0  0  0
   -3.5620    4.8280  -19.6820 C   0  0  0  0  0  0  0  0  0  0  0  0
   -6.8110    4.6800  -17.4280 C   0  0  0  0  0  0  0  0  0  0  0  0
   -8.0550    4.3380  -17.9520 C   0  0  0  0  0  0  0  0  0  0  0  0
   -9.1120    4.0640  -17.0950 C   0  0  0  0  0  0  0  0  0  0  0  0
   -8.9440    4.1260  -15.7160 C   0  0  0  0  0  0  0  0  0  0  0  0
   -8.4780    3.9370  -12.9100 N   0  0  0  0  0  0  0  0  0  0  0  0
   -8.5400    3.9310  -11.4910 C   0  0  0  0  0  0  0  0  0  0  0  0
   -8.8400    2.7650  -10.7930 C   0  0  0  0  0  0  0  0  0  0  0  0
   -8.8950    2.7770   -9.4030 C   0  0  0  0  0  0  0  0  0  0  0  0
   -9.1920    1.6580   -8.4500 C   0  0  0  0  0  0  0  0  0  0  0  0
   -8.7980    2.2490   -7.1720 N   0  0  0  0  0  0  0  0  0  0  0  0
   -8.7260    3.7080   -7.2270 C   0  0  0  0  0  0  0  0  0  0  0  0
   -8.6400    3.9490   -8.7060 C   0  0  0  0  0  0  0  0  0  0  0  0
   -8.3440    5.1140   -9.4040 C   0  0  0  0  0  0  0  0  0  0  0  0
   -8.2970    5.1080  -10.7860 C   0  0  0  0  0  0  0  0  0  0  0  0
  2  1  2  0
  3  2  1  0
  4  3  2  0
  5  4  1  0
  6  5  1  0
  7  6  2  0
  8  7  1  1
  9  8  1  0
 10  9  1  0
 11  8  1  0
 11 10  1  0
 12  7  1  0
 12  4  1  0
 13 12  2  0
 14 13  1  0
 15 14  2  0
 15  3  1  0
 16  2  1  0
 17 16  1  0
 18 17  2  0
 19 18  1  0
 20 19  1  0
 21 20  1  0
 22 21  1  0
 23 22  1  0
 23 19  2  0
 24 23  1  0
 25 17  1  0
 25 24  2  0
M  END
>  <smiles>  (114) 
O=C(Nc1ccc2c(c1)CNC2)c1cccc2c(C3CNC3)n[nH]c12

>  <inchikey>  (114) 
RPFPGGUOMNRXSM-UHFFFAOYSA-N

>  <alias>  (114) 
Z4019a

$$$$
Z4025a
     RDKit          3D

 25 28  0  0  0  0  0  0  0  0999 V2000
   -6.8960    5.6760  -14.1020 O   0  0  0  0  0  0  0  0  0  0  0  0
   -7.6930    4.8330  -14.4970 C   0  0  0  0  0  0  0  0  0  0  0  0
   -7.9170    4.5910  -15.9650 C   0  0  0  0  0  0  0  0  0  0  0  0
   -6.9200    4.8310  -16.9260 C   0  0  0  0  0  0  0  0  0  0  0  0
   -5.4900    5.2600  -16.7990 C   0  0  0  0  0  0  0  0  0  0  0  0
   -9.1530    4.1070  -16.3930 C   0  0  0  0  0  0  0  0  0  0  0  0
   -9.3950    3.8680  -17.7390 C   0  0  0  0  0  0  0  0  0  0  0  0
   -8.4110    4.0970  -18.6900 C   0  0  0  0  0  0  0  0  0  0  0  0
   -7.1790    4.5860  -18.2690 C   0  0  0  0  0  0  0  0  0  0  0  0
   -6.0310    4.8490  -19.0170 N   0  0  0  0  0  0  0  0  0  0  0  0
   -4.9830    5.1960  -18.2240 C   0  0  0  0  0  0  0  0  0  0  0  0
   -3.8220    5.3480  -18.6020 O   0  0  0  0  0  0  0  0  0  0  0  0
   -8.4370    4.0720  -13.6240 N   0  0  0  0  0  0  0  0  0  0  0  0
   -8.3760    4.1430  -12.2200 C   0  0  0  0  0  0  0  0  0  0  0  0
   -8.0520    5.1920  -11.3960 C   0  0  0  0  0  0  0  0  0  0  0  0
   -8.1540    4.7310  -10.1370 N   0  0  0  0  0  0  0  0  0  0  0  0
   -8.5380    3.4310  -10.0910 N   0  0  0  0  0  0  0  0  0  0  0  0
   -8.6660    3.0810  -11.3600 C   0  0  0  0  0  0  0  0  0  0  0  0
   -7.8870    5.4520   -8.8830 C   0  0  0  0  0  0  0  0  0  0  0  0
   -6.4710    5.2690   -8.3820 C   0  0  0  0  0  0  0  0  0  0  0  0
   -5.6170    4.3440   -8.9540 C   0  0  0  0  0  0  0  0  0  0  0  0
   -4.3330    4.2140   -8.4600 C   0  0  0  0  0  0  0  0  0  0  0  0
   -3.8530    4.9370   -7.4430 N   0  0  0  0  0  0  0  0  0  0  0  0
   -4.6870    5.8290   -6.8970 C   0  0  0  0  0  0  0  0  0  0  0  0
   -5.9850    6.0230   -7.3260 C   0  0  0  0  0  0  0  0  0  0  0  0
  2  1  2  0
  3  2  1  0
  4  3  2  0
  5  4  1  0
  6  3  1  0
  7  6  2  0
  8  7  1  0
  9  8  2  0
  9  4  1  0
 10  9  1  0
 11 10  1  0
 11  5  1  0
 12 11  2  0
 13  2  1  0
 14 13  1  0
 15 14  2  0
 16 15  1  0
 17 16  1  0
 18 14  1  0
 18 17  2  0
 19 16  1  0
 20 19  1  0
 21 20  2  0
 22 21  1  0
 23 22  2  0
 24 23  1  0
 25 20  1  0
 25 24  2  0
M  END
>  <smiles>  (115) 
O=C1Cc2c(cccc2C(=O)Nc2cnn(Cc3ccncc3)c2)N1

>  <inchikey>  (115) 
MBDWRZYGZSFUAL-UHFFFAOYSA-N

>  <alias>  (115) 
Z4025a

$$$$
Z4094a
     RDKit          3D

 29 32  0  0  0  0  0  0  0  0999 V2000
  -10.3870    3.9850  -18.2100 Cl  0  0  0  0  0  0  0  0  0  0  0  0
   -8.9960    4.2520  -17.2020 C   0  0  0  0  0  0  0  0  0  0  0  0
   -9.0820    3.9810  -15.8500 C   0  0  0  0  0  0  0  0  0  0  0  0
   -7.8470    4.7620  -17.7680 C   0  0  0  0  0  0  0  0  0  0  0  0
   -6.7470    5.0310  -16.9640 C   0  0  0  0  0  0  0  0  0  0  0  0
   -5.5150    5.6950  -17.5330 C   0  0  1  0  0  0  0  0  0  0  0  0
   -4.3200    4.8830  -17.9420 C   0  0  0  0  0  0  0  0  0  0  0  0
   -5.1410    5.5460  -18.9810 C   0  0  0  0  0  0  0  0  0  0  0  0
   -6.8280    4.7290  -15.6070 C   0  0  0  0  0  0  0  0  0  0  0  0
   -7.9840    4.2140  -15.0310 C   0  0  0  0  0  0  0  0  0  0  0  0
   -7.9920    3.7690  -13.5710 C   0  0  1  0  0  0  0  0  0  0  0  0
   -6.8990    2.7200  -13.2970 C   0  0  0  0  0  0  0  0  0  0  0  0
   -5.8010    3.1680  -12.6810 N   0  0  0  0  0  0  0  0  0  0  0  0
   -4.6670    2.3000  -12.3950 C   0  0  0  0  0  0  0  0  0  0  0  0
   -3.6230    2.3120  -13.5990 C   0  0  2  0  0  0  0  0  0  0  0  0
   -2.9040    3.4630  -13.5290 F   0  0  0  0  0  0  0  0  0  0  0  0
   -4.2640    2.3580  -14.7970 F   0  0  0  0  0  0  0  0  0  0  0  0
   -7.0210    1.5720  -13.7080 O   0  0  0  0  0  0  0  0  0  0  0  0
   -7.9390    4.9070  -12.5990 N   0  0  0  0  0  0  0  0  0  0  0  0
   -7.9890    6.2630  -13.1380 C   0  0  0  0  0  0  0  0  0  0  0  0
   -8.1650    4.7240  -11.2110 C   0  0  0  0  0  0  0  0  0  0  0  0
   -8.4930    3.4610  -10.6870 C   0  0  0  0  0  0  0  0  0  0  0  0
   -8.6540    3.2790   -9.3150 C   0  0  0  0  0  0  0  0  0  0  0  0
   -9.0030    2.0320   -8.5570 C   0  0  0  0  0  0  0  0  0  0  0  0
   -8.8180    2.4570   -7.1700 N   0  0  0  0  0  0  0  0  0  0  0  0
   -8.7200    3.9130   -7.0270 C   0  0  0  0  0  0  0  0  0  0  0  0
   -8.5030    4.3490   -8.4450 C   0  0  0  0  0  0  0  0  0  0  0  0
   -8.2030    5.6070   -8.9520 C   0  0  0  0  0  0  0  0  0  0  0  0
   -8.0330    5.7970  -10.3120 C   0  0  0  0  0  0  0  0  0  0  0  0
  2  1  1  0
  3  2  2  0
  4  2  1  0
  5  4  2  0
  6  5  1  6
  7  6  1  0
  8  6  1  0
  8  7  1  0
  9  5  1  0
 10  9  2  0
 10  3  1  0
 11 10  1  0
 12 11  1  0
 13 12  1  0
 14 13  1  0
 15 14  1  0
 15 16  1  1
 17 15  1  0
 18 12  2  0
 11 19  1  1
 20 19  1  0
 21 19  1  0
 22 21  2  0
 23 22  1  0
 24 23  1  0
 25 24  1  0
 26 25  1  0
 27 26  1  0
 27 23  2  0
 28 27  1  0
 29 21  1  0
 29 28  2  0
M  END
>  <smiles>  (116) 
CN(c1ccc2c(c1)CNC2)[C@H](C(=O)NCC(F)F)c1cc(Cl)cc(C2CC2)c1

>  <inchikey>  (116) 
BECUWTOZXMPTLN-NRFANRHFSA-N

>  <alias>  (116) 
Z4094a

$$$$
Z4114a
     RDKit          3D

 28 31  0  0  0  0  0  0  0  0999 V2000
  -10.3830    3.9650  -18.1130 Cl  0  0  0  0  0  0  0  0  0  0  0  0
   -8.9140    4.3270  -17.2410 C   0  0  0  0  0  0  0  0  0  0  0  0
   -8.8950    4.2150  -15.8580 C   0  0  0  0  0  0  0  0  0  0  0  0
   -7.8150    4.7590  -17.9480 C   0  0  0  0  0  0  0  0  0  0  0  0
   -6.6610    5.1290  -17.2690 C   0  0  0  0  0  0  0  0  0  0  0  0
   -5.4880    5.7110  -18.0310 C   0  0  2  0  0  0  0  0  0  0  0  0
   -4.1370    5.0530  -18.0170 C   0  0  0  0  0  0  0  0  0  0  0  0
   -4.3290    6.3410  -17.3130 C   0  0  0  0  0  0  0  0  0  0  0  0
   -6.6410    5.0140  -15.8820 C   0  0  0  0  0  0  0  0  0  0  0  0
   -7.7360    4.5480  -15.1600 C   0  0  0  0  0  0  0  0  0  0  0  0
   -7.6160    4.3420  -13.6540 C   0  0  2  0  0  0  0  0  0  0  0  0
   -6.7100    3.1540  -13.4010 C   0  0  0  0  0  0  0  0  0  0  0  0
   -5.5640    3.4560  -12.8040 N   0  0  0  0  0  0  0  0  0  0  0  0
   -4.5200    2.4710  -12.5720 C   0  0  0  0  0  0  0  0  0  0  0  0
   -3.1490    3.0830  -12.7460 C   0  0  0  0  0  0  0  0  0  0  0  0
   -2.3510    2.3940  -13.8080 C   0  0  0  0  0  0  0  0  0  0  0  0
   -3.1000    2.3240  -14.9830 F   0  0  0  0  0  0  0  0  0  0  0  0
   -7.0380    2.0070  -13.6980 O   0  0  0  0  0  0  0  0  0  0  0  0
   -8.7970    4.1350  -12.8380 N   0  0  0  0  0  0  0  0  0  0  0  0
   -8.6870    4.1300  -11.4360 C   0  0  0  0  0  0  0  0  0  0  0  0
   -8.9790    2.9760  -10.7100 C   0  0  0  0  0  0  0  0  0  0  0  0
   -8.9290    2.9880   -9.3160 C   0  0  0  0  0  0  0  0  0  0  0  0
   -9.1890    1.8770   -8.3430 C   0  0  0  0  0  0  0  0  0  0  0  0
   -8.8310    2.4840   -7.0440 N   0  0  0  0  0  0  0  0  0  0  0  0
   -8.6820    3.9490   -7.1580 C   0  0  0  0  0  0  0  0  0  0  0  0
   -8.6000    4.1550   -8.6420 C   0  0  0  0  0  0  0  0  0  0  0  0
   -8.2850    5.3000   -9.3690 C   0  0  0  0  0  0  0  0  0  0  0  0
   -8.3150    5.2880  -10.7550 C   0  0  0  0  0  0  0  0  0  0  0  0
  2  1  1  0
  3  2  2  0
  4  2  1  0
  5  4  2  0
  6  5  1  1
  7  6  1  0
  8  6  1  0
  8  7  1  0
  9  5  1  0
 10  9  2  0
 10  3  1  0
 11 10  1  0
 12 11  1  0
 13 12  1  0
 14 13  1  0
 15 14  1  0
 16 15  1  0
 17 16  1  0
 18 12  2  0
 11 19  1  6
 20 19  1  0
 21 20  2  0
 22 21  1  0
 23 22  1  0
 24 23  1  0
 25 24  1  0
 26 25  1  0
 26 22  2  0
 27 26  1  0
 28 20  1  0
 28 27  2  0
M  END
>  <smiles>  (117) 
O=C(NCCCF)[C@H](Nc1ccc2c(c1)CNC2)c1cc(Cl)cc(C2CC2)c1

>  <inchikey>  (117) 
PRKQRQUDBSFLCZ-OAQYLSRUSA-N

>  <alias>  (117) 
Z4114a

$$$$
Z4164a
     RDKit          3D

 23 26  0  0  0  0  0  0  0  0999 V2000
   -9.0620    2.1600   -9.1510 F   0  0  0  0  0  0  0  0  0  0  0  0
   -8.7230    3.2970   -9.8120 C   0  0  0  0  0  0  0  0  0  0  0  0
   -8.4400    4.4160   -9.0790 C   0  0  0  0  0  0  0  0  0  0  0  0
   -8.1600    5.5870   -9.7630 C   0  0  0  0  0  0  0  0  0  0  0  0
   -8.1650    5.6120  -11.1490 C   0  0  0  0  0  0  0  0  0  0  0  0
   -8.7200    3.2710  -11.1850 C   0  0  0  0  0  0  0  0  0  0  0  0
   -8.4380    4.4520  -11.8630 C   0  0  0  0  0  0  0  0  0  0  0  0
   -8.4240    4.4530  -13.2790 N   0  0  0  0  0  0  0  0  0  0  0  0
   -7.4790    4.9970  -14.0830 C   0  0  0  0  0  0  0  0  0  0  0  0
   -6.4990    5.6020  -13.6590 O   0  0  0  0  0  0  0  0  0  0  0  0
   -7.6500    4.7640  -15.5550 C   0  0  0  0  0  0  0  0  0  0  0  0
   -6.6180    5.0630  -16.4570 C   0  0  0  0  0  0  0  0  0  0  0  0
   -6.7430    4.8110  -17.8340 C   0  0  0  0  0  0  0  0  0  0  0  0
   -7.9280    4.2620  -18.3150 C   0  0  0  0  0  0  0  0  0  0  0  0
   -8.9600    3.9730  -17.4330 C   0  0  0  0  0  0  0  0  0  0  0  0
   -8.8240    4.2170  -16.0730 C   0  0  0  0  0  0  0  0  0  0  0  0
   -5.3840    5.5860  -16.2610 N   0  0  0  0  0  0  0  0  0  0  0  0
   -4.6910    5.6870  -17.4340 N   0  0  0  0  0  0  0  0  0  0  0  0
   -5.4740    5.2300  -18.3840 C   0  0  0  0  0  0  0  0  0  0  0  0
   -5.0160    5.1710  -19.8160 C   0  0  2  0  0  0  0  0  0  0  0  0
   -3.4850    5.0070  -19.9900 C   0  0  0  0  0  0  0  0  0  0  0  0
   -3.4730    6.1930  -20.8760 N   0  0  0  0  0  0  0  0  0  0  0  0
   -4.8720    6.5390  -20.5310 C   0  0  0  0  0  0  0  0  0  0  0  0
  2  1  1  0
  3  2  2  0
  4  3  1  0
  5  4  2  0
  6  2  1  0
  7  6  2  0
  7  5  1  0
  8  7  1  0
  9  8  1  0
 10  9  2  0
 11  9  1  0
 12 11  2  0
 13 12  1  0
 14 13  2  0
 15 14  1  0
 16 15  2  0
 16 11  1  0
 17 12  1  0
 18 17  1  0
 19 13  1  0
 19 18  2  0
 20 19  1  1
 21 20  1  0
 22 21  1  0
 23 20  1  0
 23 22  1  0
M  END
>  <smiles>  (118) 
O=C(Nc1cccc(F)c1)c1cccc2c(C3CNC3)n[nH]c12

>  <inchikey>  (118) 
HXGWBNDFXGUFRV-UHFFFAOYSA-N

>  <alias>  (118) 
Z4164a

$$$$
Z4168a
     RDKit          3D

 28 32  0  0  0  0  0  0  0  0999 V2000
   -9.7710    3.6310  -18.0380 Cl  0  0  0  0  0  0  0  0  0  0  0  0
   -8.4330    4.1920  -17.0880 C   0  0  0  0  0  0  0  0  0  0  0  0
   -8.5170    4.1810  -15.7050 C   0  0  0  0  0  0  0  0  0  0  0  0
   -7.2890    4.6730  -17.7220 C   0  0  0  0  0  0  0  0  0  0  0  0
   -6.2130    5.1560  -16.9590 C   0  0  0  0  0  0  0  0  0  0  0  0
   -5.2000    5.5740  -17.8870 C   0  0  0  0  0  0  0  0  0  0  0  0
   -3.8940    6.2270  -17.5230 C   0  0  1  0  0  0  0  0  0  0  0  0
   -2.8470    5.2050  -17.0580 C   0  0  0  0  0  0  0  0  0  0  0  0
   -1.5260    5.8850  -16.7350 C   0  0  0  0  0  0  0  0  0  0  0  0
   -1.0390    6.6570  -17.8940 N   0  0  0  0  0  0  0  0  0  0  0  0
   -2.0090    7.7030  -18.2790 C   0  0  0  0  0  0  0  0  0  0  0  0
   -3.3340    7.0730  -18.6690 C   0  0  0  0  0  0  0  0  0  0  0  0
   -5.6930    5.3220  -19.1350 C   0  0  0  0  0  0  0  0  0  0  0  0
   -6.9490    4.7820  -19.0490 N   0  0  0  0  0  0  0  0  0  0  0  0
   -6.3040    5.1400  -15.5670 C   0  0  0  0  0  0  0  0  0  0  0  0
   -7.4510    4.6560  -14.9390 C   0  0  0  0  0  0  0  0  0  0  0  0
   -7.3980    4.7360  -13.4450 C   0  0  0  0  0  0  0  0  0  0  0  0
   -6.5320    5.4080  -12.8830 O   0  0  0  0  0  0  0  0  0  0  0  0
   -8.3230    4.0220  -12.7610 N   0  0  0  0  0  0  0  0  0  0  0  0
   -8.4400    3.9740  -11.3390 C   0  0  0  0  0  0  0  0  0  0  0  0
   -8.6410    2.7700  -10.6700 C   0  0  0  0  0  0  0  0  0  0  0  0
   -8.7220    2.7450   -9.2780 C   0  0  0  0  0  0  0  0  0  0  0  0
   -9.0260    1.5940   -8.3660 C   0  0  0  0  0  0  0  0  0  0  0  0
   -8.7340    2.1830   -7.0490 N   0  0  0  0  0  0  0  0  0  0  0  0
   -8.7090    3.6510   -7.0800 C   0  0  0  0  0  0  0  0  0  0  0  0
   -8.5990    3.9240   -8.5510 C   0  0  0  0  0  0  0  0  0  0  0  0
   -8.4020    5.1280   -9.2210 C   0  0  0  0  0  0  0  0  0  0  0  0
   -8.3180    5.1520  -10.6050 C   0  0  0  0  0  0  0  0  0  0  0  0
  2  1  1  0
  3  2  2  0
  4  2  1  0
  5  4  2  0
  6  5  1  0
  7  6  1  6
  8  7  1  0
  9  8  1  0
 10  9  1  0
 11 10  1  0
 12 11  1  0
 12  7  1  0
 13  6  2  0
 14 13  1  0
 14  4  1  0
 15  5  1  0
 16 15  2  0
 16  3  1  0
 17 16  1  0
 18 17  2  0
 19 17  1  0
 20 19  1  0
 21 20  2  0
 22 21  1  0
 23 22  1  0
 24 23  1  0
 25 24  1  0
 26 25  1  0
 26 22  2  0
 27 26  1  0
 28 20  1  0
 28 27  2  0
M  END
>  <smiles>  (119) 
O=C(Nc1ccc2c(c1)CNC2)c1cc(Cl)c2[nH]cc(C3CCNCC3)c2c1

>  <inchikey>  (119) 
FOXOYKNZORPOPR-UHFFFAOYSA-N

>  <alias>  (119) 
Z4168a

$$$$
Z4204a
     RDKit          3D

 28 32  0  0  0  0  0  0  0  0999 V2000
   -9.8010    3.6370  -18.0270 Cl  0  0  0  0  0  0  0  0  0  0  0  0
   -8.4470    4.1690  -17.0880 C   0  0  0  0  0  0  0  0  0  0  0  0
   -8.5060    4.1730  -15.7020 C   0  0  0  0  0  0  0  0  0  0  0  0
   -7.3110    4.6130  -17.7480 C   0  0  0  0  0  0  0  0  0  0  0  0
   -6.1870    5.0490  -17.0270 C   0  0  0  0  0  0  0  0  0  0  0  0
   -5.1940    5.4290  -18.0080 C   0  0  0  0  0  0  0  0  0  0  0  0
   -3.8250    6.0090  -17.7640 C   0  0  2  0  0  0  0  0  0  0  0  0
   -2.8630    5.1030  -16.9950 C   0  0  0  0  0  0  0  0  0  0  0  0
   -1.4410    5.6580  -17.0650 C   0  0  0  0  0  0  0  0  0  0  0  0
   -1.3950    7.0340  -17.6540 N   0  0  0  0  0  0  0  0  0  0  0  0
   -2.3970    7.9470  -17.0170 C   0  0  0  0  0  0  0  0  0  0  0  0
   -3.8230    7.4230  -17.1640 C   0  0  0  0  0  0  0  0  0  0  0  0
   -5.7620    5.2100  -19.2310 C   0  0  0  0  0  0  0  0  0  0  0  0
   -7.0300    4.7210  -19.0890 N   0  0  0  0  0  0  0  0  0  0  0  0
   -6.2440    5.0340  -15.6240 C   0  0  0  0  0  0  0  0  0  0  0  0
   -7.4050    4.6120  -14.9630 C   0  0  0  0  0  0  0  0  0  0  0  0
   -7.3850    4.7190  -13.4660 C   0  0  0  0  0  0  0  0  0  0  0  0
   -6.5530    5.4220  -12.8970 O   0  0  0  0  0  0  0  0  0  0  0  0
   -8.3000    3.9900  -12.7840 N   0  0  0  0  0  0  0  0  0  0  0  0
   -8.4290    3.9490  -11.3590 C   0  0  0  0  0  0  0  0  0  0  0  0
   -8.6420    2.7390  -10.7050 C   0  0  0  0  0  0  0  0  0  0  0  0
   -8.7350    2.7010   -9.3110 C   0  0  0  0  0  0  0  0  0  0  0  0
   -9.0860    1.5510   -8.4140 C   0  0  0  0  0  0  0  0  0  0  0  0
   -8.7380    2.1030   -7.0810 N   0  0  0  0  0  0  0  0  0  0  0  0
   -8.6900    3.5780   -7.1010 C   0  0  0  0  0  0  0  0  0  0  0  0
   -8.5790    3.8660   -8.5690 C   0  0  0  0  0  0  0  0  0  0  0  0
   -8.3710    5.0760   -9.2250 C   0  0  0  0  0  0  0  0  0  0  0  0
   -8.3050    5.1200  -10.6110 C   0  0  0  0  0  0  0  0  0  0  0  0
  2  1  1  0
  3  2  2  0
  4  2  1  0
  5  4  2  0
  6  5  1  0
  7  6  1  1
  8  7  1  0
  9  8  1  0
 10  9  1  0
 11 10  1  0
 12 11  1  0
 12  7  1  0
 13  6  2  0
 14 13  1  0
 14  4  1  0
 15  5  1  0
 16 15  2  0
 16  3  1  0
 17 16  1  0
 18 17  2  0
 19 17  1  0
 20 19  1  0
 21 20  2  0
 22 21  1  0
 23 22  1  0
 24 23  1  0
 25 24  1  0
 26 25  1  0
 26 22  2  0
 27 26  1  0
 28 20  1  0
 28 27  2  0
M  END
>  <smiles>  (120) 
O=C(Nc1ccc2c(c1)CNC2)c1cc(Cl)c2[nH]cc(C3CCNCC3)c2c1

>  <inchikey>  (120) 
FOXOYKNZORPOPR-UHFFFAOYSA-N

>  <alias>  (120) 
Z4204a

$$$$
Z4240a
     RDKit          3D

 29 32  0  0  0  0  0  0  0  0999 V2000
  -10.5100    3.9380  -18.0840 Cl  0  0  0  0  0  0  0  0  0  0  0  0
   -8.9810    4.2580  -17.3120 C   0  0  0  0  0  0  0  0  0  0  0  0
   -8.8850    4.1720  -15.9300 C   0  0  0  0  0  0  0  0  0  0  0  0
   -7.9240    4.6240  -18.0840 C   0  0  0  0  0  0  0  0  0  0  0  0
   -6.6940    4.9320  -17.4700 C   0  0  0  0  0  0  0  0  0  0  0  0
   -6.5670    4.8760  -16.0610 C   0  0  0  0  0  0  0  0  0  0  0  0
   -5.3770    5.1090  -15.4290 N   0  0  0  0  0  0  0  0  0  0  0  0
   -4.3180    5.3480  -16.1860 C   0  0  0  0  0  0  0  0  0  0  0  0
   -4.3390    5.3970  -17.5740 C   0  0  0  0  0  0  0  0  0  0  0  0
   -5.5260    5.2130  -18.2170 C   0  0  0  0  0  0  0  0  0  0  0  0
   -7.7000    4.4670  -15.2930 C   0  0  0  0  0  0  0  0  0  0  0  0
   -7.5340    4.2850  -13.7780 C   0  0  2  0  0  0  0  0  0  0  0  0
   -6.6920    3.0400  -13.4790 C   0  0  0  0  0  0  0  0  0  0  0  0
   -5.5140    3.2950  -12.9080 N   0  0  0  0  0  0  0  0  0  0  0  0
   -4.6300    2.2410  -12.4380 C   0  0  0  0  0  0  0  0  0  0  0  0
   -3.4210    2.0870  -13.4390 C   0  0  2  0  0  0  0  0  0  0  0  0
   -2.7800    3.2850  -13.5240 F   0  0  0  0  0  0  0  0  0  0  0  0
   -3.8950    1.8360  -14.6890 F   0  0  0  0  0  0  0  0  0  0  0  0
   -7.0970    1.9020  -13.7130 O   0  0  0  0  0  0  0  0  0  0  0  0
   -8.7250    4.1910  -12.9590 N   0  0  0  0  0  0  0  0  0  0  0  0
   -8.6230    4.2000  -11.5620 C   0  0  0  0  0  0  0  0  0  0  0  0
   -8.9160    3.0410  -10.8420 C   0  0  0  0  0  0  0  0  0  0  0  0
   -8.8530    3.0410   -9.4520 C   0  0  0  0  0  0  0  0  0  0  0  0
   -9.1760    1.9380   -8.4890 C   0  0  0  0  0  0  0  0  0  0  0  0
   -8.8250    2.5290   -7.1920 N   0  0  0  0  0  0  0  0  0  0  0  0
   -8.5080    3.9610   -7.2890 C   0  0  0  0  0  0  0  0  0  0  0  0
   -8.4930    4.1970   -8.7700 C   0  0  0  0  0  0  0  0  0  0  0  0
   -8.2010    5.3570   -9.4880 C   0  0  0  0  0  0  0  0  0  0  0  0
   -8.2620    5.3600  -10.8730 C   0  0  0  0  0  0  0  0  0  0  0  0
  2  1  1  0
  3  2  2  0
  4  2  1  0
  5  4  2  0
  6  5  1  0
  7  6  1  0
  8  7  2  0
  9  8  1  0
 10  5  1  0
 10  9  2  0
 11  6  2  0
 11  3  1  0
 12 11  1  0
 13 12  1  0
 14 13  1  0
 15 14  1  0
 16 15  1  0
 16 17  1  6
 18 16  1  0
 19 13  2  0
 12 20  1  1
 21 20  1  0
 22 21  2  0
 23 22  1  0
 24 23  1  0
 25 24  1  0
 26 25  1  0
 27 26  1  0
 27 23  2  0
 28 27  1  0
 29 21  1  0
 29 28  2  0
M  END
>  <smiles>  (121) 
O=C(NCC(F)F)[C@H](Nc1ccc2c(c1)CNC2)c1cc(Cl)cc2cccnc12

>  <inchikey>  (121) 
NANHWVFEXBOZDY-HXUWFJFHSA-N

>  <alias>  (121) 
Z4240a

$$$$
Z4245a
     RDKit          3D

 22 25  0  0  0  0  0  0  0  0999 V2000
   -5.9660    4.2850  -20.7270 O   0  0  0  0  0  0  0  0  0  0  0  0
   -6.4930    4.3590  -19.6180 C   0  0  0  0  0  0  0  0  0  0  0  0
   -7.7800    4.0170  -19.2950 N   0  0  0  0  0  0  0  0  0  0  0  0
   -5.8890    4.7180  -18.4370 N   0  0  0  0  0  0  0  0  0  0  0  0
   -6.7730    4.5770  -17.3800 C   0  0  0  0  0  0  0  0  0  0  0  0
   -7.9800    4.1440  -17.9240 C   0  0  0  0  0  0  0  0  0  0  0  0
   -9.0750    3.8770  -17.1120 C   0  0  0  0  0  0  0  0  0  0  0  0
   -8.9300    4.0300  -15.7410 C   0  0  0  0  0  0  0  0  0  0  0  0
   -6.6290    4.7330  -16.0040 C   0  0  0  0  0  0  0  0  0  0  0  0
   -7.7200    4.4530  -15.1810 C   0  0  0  0  0  0  0  0  0  0  0  0
   -7.5580    4.6050  -13.7010 C   0  0  0  0  0  0  0  0  0  0  0  0
   -6.6250    5.2520  -13.2340 O   0  0  0  0  0  0  0  0  0  0  0  0
   -8.4820    3.9930  -12.9210 N   0  0  0  0  0  0  0  0  0  0  0  0
   -8.5230    4.0160  -11.4970 C   0  0  0  0  0  0  0  0  0  0  0  0
   -8.8570    2.8630  -10.7900 C   0  0  0  0  0  0  0  0  0  0  0  0
   -8.8930    2.8780   -9.3990 C   0  0  0  0  0  0  0  0  0  0  0  0
   -9.1730    1.7560   -8.4440 C   0  0  0  0  0  0  0  0  0  0  0  0
   -8.7930    2.3620   -7.1550 N   0  0  0  0  0  0  0  0  0  0  0  0
   -8.7040    3.8210   -7.2270 C   0  0  0  0  0  0  0  0  0  0  0  0
   -8.6140    4.0490   -8.7060 C   0  0  0  0  0  0  0  0  0  0  0  0
   -8.2840    5.2010   -9.4110 C   0  0  0  0  0  0  0  0  0  0  0  0
   -8.2320    5.1850  -10.7970 C   0  0  0  0  0  0  0  0  0  0  0  0
  2  1  2  0
  3  2  1  0
  4  2  1  0
  5  4  1  0
  6  5  2  0
  6  3  1  0
  7  6  1  0
  8  7  2  0
  9  5  1  0
 10  9  2  0
 10  8  1  0
 11 10  1  0
 12 11  2  0
 13 11  1  0
 14 13  1  0
 15 14  2  0
 16 15  1  0
 17 16  1  0
 18 17  1  0
 19 18  1  0
 20 19  1  0
 20 16  2  0
 21 20  1  0
 22 14  1  0
 22 21  2  0
M  END
>  <smiles>  (122) 
O=C(Nc1ccc2c(c1)CNC2)c1ccc2[nH]c(=O)[nH]c2c1

>  <inchikey>  (122) 
GTSIYSOTZNGSFP-UHFFFAOYSA-N

>  <alias>  (122) 
Z4245a

$$$$
Z4429a
     RDKit          3D

 28 30  0  0  0  0  0  0  0  0999 V2000
   -5.3450    5.6840  -18.8780 F   0  0  0  0  0  0  0  0  0  0  0  0
   -5.3350    5.6290  -17.5350 C   0  0  1  0  0  0  0  0  0  0  0  0
   -4.3280    4.8230  -17.1970 F   0  0  0  0  0  0  0  0  0  0  0  0
   -5.0290    6.8400  -17.0410 F   0  0  0  0  0  0  0  0  0  0  0  0
   -6.6370    5.1310  -16.9770 C   0  0  0  0  0  0  0  0  0  0  0  0
   -7.7050    4.8290  -17.8070 C   0  0  0  0  0  0  0  0  0  0  0  0
   -8.8350    4.3460  -17.1900 C   0  0  0  0  0  0  0  0  0  0  0  0
  -10.2370    3.9890  -18.1620 Cl  0  0  0  0  0  0  0  0  0  0  0  0
   -8.8870    4.1560  -15.8160 C   0  0  0  0  0  0  0  0  0  0  0  0
   -6.6440    4.9820  -15.6480 N   0  0  0  0  0  0  0  0  0  0  0  0
   -7.7450    4.4830  -15.0750 C   0  0  0  0  0  0  0  0  0  0  0  0
   -7.5950    4.2390  -13.5810 C   0  0  2  0  0  0  0  0  0  0  0  0
   -6.7650    2.9470  -13.3610 C   0  0  0  0  0  0  0  0  0  0  0  0
   -7.1430    1.8440  -13.7480 O   0  0  0  0  0  0  0  0  0  0  0  0
   -5.6180    3.1380  -12.7030 N   0  0  0  0  0  0  0  0  0  0  0  0
   -4.4130    2.3460  -12.9540 C   0  0  1  0  0  0  0  0  0  0  0  0
   -3.7100    2.8550  -14.1900 C   0  0  0  0  0  0  0  0  0  0  0  0
   -3.5160    2.3890  -11.7380 C   0  0  0  0  0  0  0  0  0  0  0  0
   -8.7430    4.3150  -12.7070 N   0  0  0  0  0  0  0  0  0  0  0  0
   -8.5640    4.2510  -11.3240 C   0  0  0  0  0  0  0  0  0  0  0  0
   -8.8660    3.0720  -10.6480 C   0  0  0  0  0  0  0  0  0  0  0  0
   -8.8720    3.0440   -9.2590 C   0  0  0  0  0  0  0  0  0  0  0  0
   -9.2200    1.9170   -8.3320 C   0  0  0  0  0  0  0  0  0  0  0  0
   -9.0170    2.5180   -7.0200 N   0  0  0  0  0  0  0  0  0  0  0  0
   -8.7320    3.9510   -7.0670 C   0  0  0  0  0  0  0  0  0  0  0  0
   -8.5510    4.1860   -8.5380 C   0  0  0  0  0  0  0  0  0  0  0  0
   -8.1890    5.3470   -9.2150 C   0  0  0  0  0  0  0  0  0  0  0  0
   -8.1910    5.3800  -10.5990 C   0  0  0  0  0  0  0  0  0  0  0  0
  2  1  1  6
  3  2  1  0
  4  2  1  0
  5  2  1  0
  6  5  2  0
  7  6  1  0
  8  7  1  0
  9  7  2  0
 10  5  1  0
 11 10  2  0
 11  9  1  0
 12 11  1  0
 13 12  1  0
 14 13  2  0
 15 13  1  0
 16 15  1  0
 16 17  1  6
 18 16  1  0
 12 19  1  6
 20 19  1  0
 21 20  2  0
 22 21  1  0
 23 22  1  0
 24 23  1  0
 25 24  1  0
 26 25  1  0
 26 22  2  0
 27 26  1  0
 28 20  1  0
 28 27  2  0
M  END
>  <smiles>  (123) 
CC(C)NC(=O)[C@H](Nc1ccc2c(c1)CNC2)c1cc(Cl)cc(C(F)(F)F)n1

>  <inchikey>  (123) 
JBVFAKPDTJJPDG-QGZVFWFLSA-N

>  <alias>  (123) 
Z4429a

$$$$
Z4469a
     RDKit          3D

 29 33  0  0  0  0  0  0  0  0999 V2000
  -10.0510    3.9200  -17.8990 Cl  0  0  0  0  0  0  0  0  0  0  0  0
   -8.6200    4.3200  -17.0000 C   0  0  0  0  0  0  0  0  0  0  0  0
   -8.6560    4.3270  -15.6150 C   0  0  0  0  0  0  0  0  0  0  0  0
   -7.4430    4.6130  -17.6830 C   0  0  0  0  0  0  0  0  0  0  0  0
   -6.2760    4.9120  -16.9610 C   0  0  0  0  0  0  0  0  0  0  0  0
   -5.2790    5.1260  -17.9720 C   0  0  0  0  0  0  0  0  0  0  0  0
   -3.8100    5.3950  -17.7680 C   0  0  0  0  0  0  0  0  0  0  0  0
   -3.5290    6.8150  -17.2900 C   0  0  2  0  0  0  0  0  0  0  0  0
   -4.0100    7.8560  -18.3070 C   0  0  0  0  0  0  0  0  0  0  0  0
   -3.7440    9.2620  -17.7910 C   0  0  0  0  0  0  0  0  0  0  0  0
   -2.3100    9.4520  -17.4770 N   0  0  0  0  0  0  0  0  0  0  0  0
   -1.8320    8.4510  -16.4910 C   0  0  0  0  0  0  0  0  0  0  0  0
   -2.0430    7.0300  -16.9960 C   0  0  0  0  0  0  0  0  0  0  0  0
   -5.7990    5.0070  -19.1660 N   0  0  0  0  0  0  0  0  0  0  0  0
   -7.1190    4.6860  -18.9940 N   0  0  0  0  0  0  0  0  0  0  0  0
   -6.3220    4.9390  -15.5650 C   0  0  0  0  0  0  0  0  0  0  0  0
   -7.5040    4.6400  -14.8910 C   0  0  0  0  0  0  0  0  0  0  0  0
   -7.4370    4.6960  -13.3990 C   0  0  0  0  0  0  0  0  0  0  0  0
   -6.5610    5.3490  -12.8350 O   0  0  0  0  0  0  0  0  0  0  0  0
   -8.3750    3.9840  -12.7320 N   0  0  0  0  0  0  0  0  0  0  0  0
   -8.5030    3.8910  -11.3220 C   0  0  0  0  0  0  0  0  0  0  0  0
   -8.7380    2.6880  -10.6540 C   0  0  0  0  0  0  0  0  0  0  0  0
   -8.8260    2.6670   -9.2620 C   0  0  0  0  0  0  0  0  0  0  0  0
   -9.1180    1.5320   -8.3240 C   0  0  0  0  0  0  0  0  0  0  0  0
   -8.8100    2.1180   -7.0260 N   0  0  0  0  0  0  0  0  0  0  0  0
   -8.7870    3.5760   -7.0700 C   0  0  0  0  0  0  0  0  0  0  0  0
   -8.6680    3.8460   -8.5430 C   0  0  0  0  0  0  0  0  0  0  0  0
   -8.4330    5.0420   -9.2120 C   0  0  0  0  0  0  0  0  0  0  0  0
   -8.3530    5.0660  -10.5910 C   0  0  0  0  0  0  0  0  0  0  0  0
  2  1  1  0
  3  2  2  0
  4  2  1  0
  5  4  2  0
  6  5  1  0
  7  6  1  0
  8  7  1  6
  9  8  1  0
 10  9  1  0
 11 10  1  0
 12 11  1  0
 13 12  1  0
 13  8  1  0
 14  6  2  0
 15 14  1  0
 15  4  1  0
 16  5  1  0
 17 16  2  0
 17  3  1  0
 18 17  1  0
 19 18  2  0
 20 18  1  0
 21 20  1  0
 22 21  2  0
 23 22  1  0
 24 23  1  0
 25 24  1  0
 26 25  1  0
 27 26  1  0
 27 23  2  0
 28 27  1  0
 29 21  1  0
 29 28  2  0
M  END
>  <smiles>  (124) 
O=C(Nc1ccc2c(c1)CNC2)c1cc(Cl)c2[nH]nc(CC3CCNCC3)c2c1

>  <inchikey>  (124) 
KNPJGTVOUOTEPV-UHFFFAOYSA-N

>  <alias>  (124) 
Z4469a

$$$$
Z4498a
     RDKit          3D

 27 31  0  0  0  0  0  0  0  0999 V2000
   -9.7400    3.7640  -17.9090 Cl  0  0  0  0  0  0  0  0  0  0  0  0
   -8.4030    4.3380  -16.9660 C   0  0  0  0  0  0  0  0  0  0  0  0
   -8.4850    4.3390  -15.5850 C   0  0  0  0  0  0  0  0  0  0  0  0
   -7.2260    4.7150  -17.6090 C   0  0  0  0  0  0  0  0  0  0  0  0
   -6.0960    5.0520  -16.8480 C   0  0  0  0  0  0  0  0  0  0  0  0
   -5.0720    5.2920  -17.8200 C   0  0  0  0  0  0  0  0  0  0  0  0
   -3.6010    5.4390  -17.5350 C   0  0  0  0  0  0  0  0  0  0  0  0
   -2.9730    6.6900  -18.1120 C   0  0  1  0  0  0  0  0  0  0  0  0
   -1.6760    7.0070  -17.3280 C   0  0  0  0  0  0  0  0  0  0  0  0
   -0.9290    6.3010  -18.3930 N   0  0  0  0  0  0  0  0  0  0  0  0
   -2.0720    6.3770  -19.3330 C   0  0  0  0  0  0  0  0  0  0  0  0
   -5.5480    5.1770  -19.0340 N   0  0  0  0  0  0  0  0  0  0  0  0
   -6.8610    4.8160  -18.9090 N   0  0  0  0  0  0  0  0  0  0  0  0
   -6.1870    5.0590  -15.4580 C   0  0  0  0  0  0  0  0  0  0  0  0
   -7.3770    4.7140  -14.8250 C   0  0  0  0  0  0  0  0  0  0  0  0
   -7.3430    4.8360  -13.3370 C   0  0  0  0  0  0  0  0  0  0  0  0
   -6.5670    5.6210  -12.7950 O   0  0  0  0  0  0  0  0  0  0  0  0
   -8.2030    4.0400  -12.6540 N   0  0  0  0  0  0  0  0  0  0  0  0
   -8.3900    4.0080  -11.2520 C   0  0  0  0  0  0  0  0  0  0  0  0
   -8.6740    2.8120  -10.5990 C   0  0  0  0  0  0  0  0  0  0  0  0
   -8.8070    2.7830   -9.2110 C   0  0  0  0  0  0  0  0  0  0  0  0
   -9.1430    1.6420   -8.2970 C   0  0  0  0  0  0  0  0  0  0  0  0
   -8.7900    2.2140   -7.0020 N   0  0  0  0  0  0  0  0  0  0  0  0
   -8.7940    3.6720   -7.0110 C   0  0  0  0  0  0  0  0  0  0  0  0
   -8.6480    3.9520   -8.4790 C   0  0  0  0  0  0  0  0  0  0  0  0
   -8.3810    5.1480   -9.1330 C   0  0  0  0  0  0  0  0  0  0  0  0
   -8.2560    5.1790  -10.5100 C   0  0  0  0  0  0  0  0  0  0  0  0
  2  1  1  0
  3  2  2  0
  4  2  1  0
  5  4  2  0
  6  5  1  0
  7  6  1  0
  8  7  1  1
  9  8  1  0
 10  9  1  0
 11 10  1  0
 11  8  1  0
 12  6  2  0
 13 12  1  0
 13  4  1  0
 14  5  1  0
 15 14  2  0
 15  3  1  0
 16 15  1  0
 17 16  2  0
 18 16  1  0
 19 18  1  0
 20 19  2  0
 21 20  1  0
 22 21  1  0
 23 22  1  0
 24 23  1  0
 25 24  1  0
 25 21  2  0
 26 25  1  0
 27 19  1  0
 27 26  2  0
M  END
>  <smiles>  (125) 
O=C(Nc1ccc2c(c1)CNC2)c1cc(Cl)c2[nH]nc(CC3CNC3)c2c1

>  <inchikey>  (125) 
IQIXSNSUUMIWQP-UHFFFAOYSA-N

>  <alias>  (125) 
Z4498a

$$$$
Z4816a
     RDKit          3D

 30 34  0  0  0  0  0  0  0  0999 V2000
  -10.4570    3.9480  -18.2370 Cl  0  0  0  0  0  0  0  0  0  0  0  0
   -8.9580    4.4420  -17.5020 C   0  0  0  0  0  0  0  0  0  0  0  0
   -8.9010    4.5860  -16.1240 C   0  0  0  0  0  0  0  0  0  0  0  0
   -7.8700    4.6860  -18.3150 C   0  0  0  0  0  0  0  0  0  0  0  0
   -6.6960    5.0900  -17.6950 C   0  0  0  0  0  0  0  0  0  0  0  0
   -5.4710    5.3860  -18.2170 N   0  0  0  0  0  0  0  0  0  0  0  0
   -5.0470    5.3280  -19.6180 C   0  0  2  0  0  0  0  0  0  0  0  0
   -3.5370    5.1970  -19.9040 C   0  0  0  0  0  0  0  0  0  0  0  0
   -3.7500    6.1400  -21.0260 N   0  0  0  0  0  0  0  0  0  0  0  0
   -4.9860    6.6580  -20.3940 C   0  0  0  0  0  0  0  0  0  0  0  0
   -4.5820    5.7360  -17.2360 N   0  0  0  0  0  0  0  0  0  0  0  0
   -5.2400    5.6550  -16.0980 C   0  0  0  0  0  0  0  0  0  0  0  0
   -6.5860    5.2560  -16.3050 C   0  0  0  0  0  0  0  0  0  0  0  0
   -7.7180    5.0060  -15.5120 C   0  0  0  0  0  0  0  0  0  0  0  0
   -7.6810    5.2480  -14.0310 C   0  0  0  0  0  0  0  0  0  0  0  0
   -6.9290    6.0970  -13.5590 O   0  0  0  0  0  0  0  0  0  0  0  0
   -8.4850    4.4590  -13.2720 N   0  0  0  0  0  0  0  0  0  0  0  0
   -8.5850    4.4450  -11.8520 C   0  0  0  0  0  0  0  0  0  0  0  0
   -8.8490    3.2390  -11.2120 C   0  0  0  0  0  0  0  0  0  0  0  0
   -8.9160    3.1920   -9.8300 C   0  0  0  0  0  0  0  0  0  0  0  0
   -8.7140    4.3390   -9.0820 C   0  0  0  0  0  0  0  0  0  0  0  0
   -8.3950    5.5990  -11.0940 C   0  0  0  0  0  0  0  0  0  0  0  0
   -8.4450    5.5510   -9.7050 C   0  0  0  0  0  0  0  0  0  0  0  0
   -8.1600    6.7880   -8.8730 C   0  0  2  0  0  0  0  0  0  0  0  0
   -9.2530    7.8590   -8.9790 C   0  0  0  0  0  0  0  0  0  0  0  0
   -8.9310    9.0650   -8.0850 C   0  0  0  0  0  0  0  0  0  0  0  0
   -6.8000    7.4260   -9.1790 C   0  0  0  0  0  0  0  0  0  0  0  0
   -6.5490    8.6490   -8.2810 C   0  0  0  0  0  0  0  0  0  0  0  0
   -7.6230    9.6530   -8.4270 N   0  0  0  0  0  0  0  0  0  0  0  0
   -7.6320   10.2510   -9.7860 C   0  0  0  0  0  0  0  0  0  0  0  0
  2  1  1  0
  3  2  2  0
  4  2  1  0
  5  4  2  0
  6  5  1  0
  7  6  1  1
  8  7  1  0
  9  8  1  0
 10  7  1  0
 10  9  1  0
 11  6  1  0
 12 11  2  0
 13  5  1  0
 13 12  1  0
 14 13  2  0
 14  3  1  0
 15 14  1  0
 16 15  2  0
 17 15  1  0
 18 17  1  0
 19 18  2  0
 20 19  1  0
 21 20  2  0
 22 18  1  0
 23 21  1  0
 23 22  2  0
 24 23  1  6
 25 24  1  0
 26 25  1  0
 27 24  1  0
 28 27  1  0
 29 28  1  0
 29 26  1  0
 30 29  1  0
M  END
>  <smiles>  (126) 
CN1CCC(c2cccc(NC(=O)c3cc(Cl)cc4c3cnn4C3CNC3)c2)CC1

>  <inchikey>  (126) 
UNRWJPBZHNJGMF-UHFFFAOYSA-N

>  <alias>  (126) 
Z4816a

$$$$
Z4827a
     RDKit          3D

 30 34  0  0  0  0  0  0  0  0999 V2000
  -10.5490    4.0200  -18.3160 Cl  0  0  0  0  0  0  0  0  0  0  0  0
   -8.9980    4.3910  -17.6070 C   0  0  0  0  0  0  0  0  0  0  0  0
   -7.9220    4.6200  -18.4430 C   0  0  0  0  0  0  0  0  0  0  0  0
   -6.7190    4.9740  -17.8500 C   0  0  0  0  0  0  0  0  0  0  0  0
   -6.5690    5.1120  -16.4610 C   0  0  0  0  0  0  0  0  0  0  0  0
   -5.2050    5.4640  -16.2810 C   0  0  0  0  0  0  0  0  0  0  0  0
   -4.5720    5.5390  -17.4340 N   0  0  0  0  0  0  0  0  0  0  0  0
   -5.4970    5.2410  -18.3980 N   0  0  0  0  0  0  0  0  0  0  0  0
   -5.1080    5.2380  -19.8100 C   0  0  2  0  0  0  0  0  0  0  0  0
   -3.6010    5.1100  -20.1270 C   0  0  0  0  0  0  0  0  0  0  0  0
   -5.0380    6.6280  -20.4750 C   0  0  0  0  0  0  0  0  0  0  0  0
   -3.7640    6.2080  -21.1070 N   0  0  0  0  0  0  0  0  0  0  0  0
   -8.8990    4.4930  -16.2290 C   0  0  0  0  0  0  0  0  0  0  0  0
   -7.6860    4.8760  -15.6450 C   0  0  0  0  0  0  0  0  0  0  0  0
   -7.5830    5.0970  -14.1660 C   0  0  0  0  0  0  0  0  0  0  0  0
   -6.6000    5.6520  -13.6820 O   0  0  0  0  0  0  0  0  0  0  0  0
   -8.5960    4.6110  -13.4160 N   0  0  0  0  0  0  0  0  0  0  0  0
   -8.6240    4.5810  -12.0010 C   0  0  0  0  0  0  0  0  0  0  0  0
   -8.5430    5.7590  -11.2360 C   0  0  0  0  0  0  0  0  0  0  0  0
   -8.5500    5.6870   -9.8470 C   0  0  0  0  0  0  0  0  0  0  0  0
   -8.6390    4.4480   -9.2600 C   0  0  0  0  0  0  0  0  0  0  0  0
   -8.7220    4.3860   -7.9050 F   0  0  0  0  0  0  0  0  0  0  0  0
   -8.7060    3.2820   -9.9710 C   0  0  0  0  0  0  0  0  0  0  0  0
   -8.7030    3.3520  -11.3510 C   0  0  0  0  0  0  0  0  0  0  0  0
   -8.3860    7.0750  -11.7920 N   0  0  0  0  0  0  0  0  0  0  0  0
   -9.2460    7.7090  -12.6600 C   0  0  0  0  0  0  0  0  0  0  0  0
  -10.1510    7.1660  -13.2760 O   0  0  0  0  0  0  0  0  0  0  0  0
   -8.8590    9.1590  -12.7210 C   0  0  0  0  0  0  0  0  0  0  0  0
   -7.4170    9.1860  -12.2370 C   0  0  0  0  0  0  0  0  0  0  0  0
   -7.2410    7.9230  -11.4020 C   0  0  0  0  0  0  0  0  0  0  0  0
  2  1  1  0
  3  2  2  0
  4  3  1  0
  5  4  2  0
  6  5  1  0
  7  6  2  0
  8  4  1  0
  8  7  1  0
  9  8  1  1
 10  9  1  0
 11  9  1  0
 12 10  1  0
 12 11  1  0
 13  2  1  0
 14  5  1  0
 14 13  2  0
 15 14  1  0
 16 15  2  0
 17 15  1  0
 18 17  1  0
 19 18  1  0
 20 19  2  0
 21 20  1  0
 22 21  1  0
 23 21  2  0
 24 18  2  0
 24 23  1  0
 25 19  1  0
 26 25  1  0
 27 26  2  0
 28 26  1  0
 29 28  1  0
 30 29  1  0
 30 25  1  0
M  END
>  <smiles>  (127) 
O=C(Nc1ccc(F)cc1N1CCCC1=O)c1cc(Cl)cc2c1cnn2C1CNC1

>  <inchikey>  (127) 
NJUZARKEFBTBOM-UHFFFAOYSA-N

>  <alias>  (127) 
Z4827a

$$$$
Z4855a
     RDKit          3D

 27 31  0  0  0  0  0  0  0  0999 V2000
  -10.5600    4.1300  -18.1900 Cl  0  0  0  0  0  0  0  0  0  0  0  0
   -9.0450    4.5010  -17.4180 C   0  0  0  0  0  0  0  0  0  0  0  0
   -7.9450    4.7480  -18.2140 C   0  0  0  0  0  0  0  0  0  0  0  0
   -6.7630    5.0920  -17.5790 C   0  0  0  0  0  0  0  0  0  0  0  0
   -6.6520    5.2070  -16.1830 C   0  0  0  0  0  0  0  0  0  0  0  0
   -5.2860    5.5160  -15.9590 C   0  0  0  0  0  0  0  0  0  0  0  0
   -4.6120    5.5760  -17.0920 N   0  0  0  0  0  0  0  0  0  0  0  0
   -5.5180    5.3220  -18.0870 N   0  0  0  0  0  0  0  0  0  0  0  0
   -5.1050    5.3360  -19.4930 C   0  0  1  0  0  0  0  0  0  0  0  0
   -5.1370    6.6990  -20.2150 C   0  0  0  0  0  0  0  0  0  0  0  0
   -3.5980    5.2940  -19.8290 C   0  0  0  0  0  0  0  0  0  0  0  0
   -3.8880    6.2820  -20.8940 N   0  0  0  0  0  0  0  0  0  0  0  0
   -8.9920    4.5860  -16.0310 C   0  0  0  0  0  0  0  0  0  0  0  0
   -7.7970    4.9530  -15.3970 C   0  0  0  0  0  0  0  0  0  0  0  0
   -7.7430    5.1730  -13.9050 C   0  0  0  0  0  0  0  0  0  0  0  0
   -7.0830    6.1040  -13.4430 O   0  0  0  0  0  0  0  0  0  0  0  0
   -8.4260    4.2880  -13.1220 N   0  0  0  0  0  0  0  0  0  0  0  0
   -8.5150    4.3120  -11.6960 C   0  0  0  0  0  0  0  0  0  0  0  0
   -8.6670    3.1440  -10.9520 C   0  0  0  0  0  0  0  0  0  0  0  0
   -8.7470    3.1790   -9.5560 C   0  0  0  0  0  0  0  0  0  0  0  0
   -8.9500    1.8920   -8.7920 C   0  0  0  0  0  0  0  0  0  0  0  0
   -9.3860    2.1020   -7.3580 C   0  0  0  0  0  0  0  0  0  0  0  0
   -8.5440    3.1740   -6.6860 C   0  0  0  0  0  0  0  0  0  0  0  0
   -8.7320    4.5120   -7.3860 C   0  0  0  0  0  0  0  0  0  0  0  0
   -8.6500    4.4160   -8.8920 C   0  0  0  0  0  0  0  0  0  0  0  0
   -8.4930    5.5750   -9.6460 C   0  0  0  0  0  0  0  0  0  0  0  0
   -8.4370    5.5300  -11.0290 C   0  0  0  0  0  0  0  0  0  0  0  0
  2  1  1  0
  3  2  2  0
  4  3  1  0
  5  4  2  0
  6  5  1  0
  7  6  2  0
  8  4  1  0
  8  7  1  0
  9  8  1  1
 10  9  1  0
 11  9  1  0
 12 11  1  0
 12 10  1  0
 13  2  1  0
 14 13  2  0
 14  5  1  0
 15 14  1  0
 16 15  2  0
 17 15  1  0
 18 17  1  0
 19 18  2  0
 20 19  1  0
 21 20  1  0
 22 21  1  0
 23 22  1  0
 24 23  1  0
 25 24  1  0
 25 20  2  0
 26 25  1  0
 27 18  1  0
 27 26  2  0
M  END
>  <smiles>  (128) 
O=C(Nc1ccc2c(c1)CCCC2)c1cc(Cl)cc2c1cnn2C1CNC1

>  <inchikey>  (128) 
DPIGUVGLMKTLPK-UHFFFAOYSA-N

>  <alias>  (128) 
Z4855a

$$$$
Z4590a
     RDKit          3D

 30 34  0  0  0  0  0  0  0  0999 V2000
  -10.6370    4.0920  -18.1370 Cl  0  0  0  0  0  0  0  0  0  0  0  0
   -9.0990    4.4150  -17.3710 C   0  0  0  0  0  0  0  0  0  0  0  0
   -8.0010    4.6570  -18.1790 C   0  0  0  0  0  0  0  0  0  0  0  0
   -6.8010    4.9510  -17.5520 C   0  0  0  0  0  0  0  0  0  0  0  0
   -6.6700    5.0300  -16.1570 C   0  0  0  0  0  0  0  0  0  0  0  0
   -5.2950    5.3100  -15.9440 C   0  0  0  0  0  0  0  0  0  0  0  0
   -4.6390    5.3980  -17.0840 N   0  0  0  0  0  0  0  0  0  0  0  0
   -5.5590    5.1780  -18.0720 N   0  0  0  0  0  0  0  0  0  0  0  0
   -5.1550    5.2100  -19.4820 C   0  0  1  0  0  0  0  0  0  0  0  0
   -5.0130    6.6110  -20.1130 C   0  0  0  0  0  0  0  0  0  0  0  0
   -3.6570    5.0170  -19.8050 C   0  0  0  0  0  0  0  0  0  0  0  0
   -3.7710    6.1380  -20.7670 N   0  0  0  0  0  0  0  0  0  0  0  0
   -9.0240    4.4720  -15.9830 C   0  0  0  0  0  0  0  0  0  0  0  0
   -7.8110    4.8030  -15.3590 C   0  0  0  0  0  0  0  0  0  0  0  0
   -7.7090    5.0200  -13.8740 C   0  0  0  0  0  0  0  0  0  0  0  0
   -6.8390    5.7540  -13.4090 O   0  0  0  0  0  0  0  0  0  0  0  0
   -8.6020    4.3660  -13.0890 N   0  0  0  0  0  0  0  0  0  0  0  0
   -8.6370    4.4130  -11.6680 C   0  0  0  0  0  0  0  0  0  0  0  0
   -8.8060    3.2410  -10.9320 C   0  0  0  0  0  0  0  0  0  0  0  0
   -8.7960    3.2780   -9.5410 C   0  0  0  0  0  0  0  0  0  0  0  0
   -8.9340    2.1620   -8.5480 C   0  0  0  0  0  0  0  0  0  0  0  0
   -8.4910    2.7900   -7.2840 N   0  0  0  0  0  0  0  0  0  0  0  0
   -9.1210    2.2010   -6.0900 C   0  0  0  0  0  0  0  0  0  0  0  0
  -10.6820    2.5460   -6.0510 C   0  0  1  0  0  0  0  0  0  0  0  0
  -11.4040    1.3960   -6.1350 F   0  0  0  0  0  0  0  0  0  0  0  0
  -10.9680    3.0680   -4.8280 F   0  0  0  0  0  0  0  0  0  0  0  0
   -8.6530    4.2610   -7.3940 C   0  0  0  0  0  0  0  0  0  0  0  0
   -8.6300    4.4860   -8.8790 C   0  0  0  0  0  0  0  0  0  0  0  0
   -8.4670    5.6590   -9.6110 C   0  0  0  0  0  0  0  0  0  0  0  0
   -8.4680    5.6240  -10.9970 C   0  0  0  0  0  0  0  0  0  0  0  0
  2  1  1  0
  3  2  2  0
  4  3  1  0
  5  4  2  0
  6  5  1  0
  7  6  2  0
  8  4  1  0
  8  7  1  0
  9  8  1  1
 10  9  1  0
 11  9  1  0
 12 11  1  0
 12 10  1  0
 13  2  1  0
 14 13  2  0
 14  5  1  0
 15 14  1  0
 16 15  2  0
 17 15  1  0
 18 17  1  0
 19 18  2  0
 20 19  1  0
 21 20  1  0
 22 21  1  0
 23 22  1  0
 24 23  1  0
 24 25  1  1
 26 24  1  0
 27 22  1  0
 28 27  1  0
 28 20  2  0
 29 28  1  0
 30 18  1  0
 30 29  2  0
M  END
>  <smiles>  (129) 
O=C(Nc1ccc2c(c1)CN(CC(F)F)C2)c1cc(Cl)cc2c1cnn2C1CNC1

>  <inchikey>  (129) 
QWEOQFKKAVAVDN-UHFFFAOYSA-N

>  <alias>  (129) 
Z4590a

$$$$
Z4959a
     RDKit          3D

 24 27  0  0  0  0  0  0  0  0999 V2000
  -10.0530    3.8730  -17.6530 F   0  0  0  0  0  0  0  0  0  0  0  0
   -8.8760    4.1770  -17.0380 C   0  0  0  0  0  0  0  0  0  0  0  0
   -8.8490    4.2260  -15.6630 C   0  0  0  0  0  0  0  0  0  0  0  0
   -7.7760    4.4290  -17.8280 C   0  0  0  0  0  0  0  0  0  0  0  0
   -6.5740    4.7540  -17.2000 C   0  0  0  0  0  0  0  0  0  0  0  0
   -5.3560    4.9960  -18.0000 C   0  0  0  0  0  0  0  0  0  0  0  0
   -5.2730    5.2690  -19.3490 C   0  0  0  0  0  0  0  0  0  0  0  0
   -3.9830    5.4620  -19.6450 N   0  0  0  0  0  0  0  0  0  0  0  0
   -3.1950    5.3350  -18.5530 N   0  0  0  0  0  0  0  0  0  0  0  0
   -4.0220    5.0430  -17.5550 C   0  0  0  0  0  0  0  0  0  0  0  0
   -6.5160    4.8210  -15.8070 C   0  0  0  0  0  0  0  0  0  0  0  0
   -7.6490    4.5600  -15.0380 C   0  0  0  0  0  0  0  0  0  0  0  0
   -7.5240    4.7210  -13.5540 C   0  0  0  0  0  0  0  0  0  0  0  0
   -6.6680    5.4610  -13.0680 O   0  0  0  0  0  0  0  0  0  0  0  0
   -8.4010    4.0150  -12.8020 N   0  0  0  0  0  0  0  0  0  0  0  0
   -8.4990    4.0290  -11.3820 C   0  0  0  0  0  0  0  0  0  0  0  0
   -8.7060    2.8290  -10.7090 C   0  0  0  0  0  0  0  0  0  0  0  0
   -8.7870    2.8060   -9.3170 C   0  0  0  0  0  0  0  0  0  0  0  0
   -9.0950    1.6670   -8.3880 C   0  0  0  0  0  0  0  0  0  0  0  0
   -8.7370    2.2400   -7.0860 N   0  0  0  0  0  0  0  0  0  0  0  0
   -8.7830    3.7100   -7.1260 C   0  0  0  0  0  0  0  0  0  0  0  0
   -8.6410    3.9850   -8.5950 C   0  0  0  0  0  0  0  0  0  0  0  0
   -8.4270    5.1850   -9.2650 C   0  0  0  0  0  0  0  0  0  0  0  0
   -8.3680    5.2110  -10.6520 C   0  0  0  0  0  0  0  0  0  0  0  0
  2  1  1  0
  3  2  2  0
  4  2  1  0
  5  4  2  0
  6  5  1  0
  7  6  1  0
  8  7  2  0
  9  8  1  0
 10  9  1  0
 10  6  2  0
 11  5  1  0
 12 11  2  0
 12  3  1  0
 13 12  1  0
 14 13  2  0
 15 13  1  0
 16 15  1  0
 17 16  2  0
 18 17  1  0
 19 18  1  0
 20 19  1  0
 21 20  1  0
 22 21  1  0
 22 18  2  0
 23 22  1  0
 24 16  1  0
 24 23  2  0
M  END
>  <smiles>  (130) 
O=C(Nc1ccc2c(c1)CNC2)c1cc(F)cc(-c2cn[nH]c2)c1

>  <inchikey>  (130) 
JQVBRWVUKDQFJQ-UHFFFAOYSA-N

>  <alias>  (130) 
Z4959a

$$$$
Z4959b
     RDKit          3D

 24 27  0  0  0  0  0  0  0  0999 V2000
  -10.0660    3.8710  -17.6540 F   0  0  0  0  0  0  0  0  0  0  0  0
   -8.8890    4.1760  -17.0410 C   0  0  0  0  0  0  0  0  0  0  0  0
   -8.8610    4.2250  -15.6660 C   0  0  0  0  0  0  0  0  0  0  0  0
   -7.7890    4.4280  -17.8320 C   0  0  0  0  0  0  0  0  0  0  0  0
   -6.5880    4.7530  -17.2050 C   0  0  0  0  0  0  0  0  0  0  0  0
   -5.3700    4.9960  -18.0060 C   0  0  0  0  0  0  0  0  0  0  0  0
   -5.2880    5.2640  -19.3570 C   0  0  0  0  0  0  0  0  0  0  0  0
   -3.9990    5.4560  -19.6550 N   0  0  0  0  0  0  0  0  0  0  0  0
   -3.2100    5.3330  -18.5640 N   0  0  0  0  0  0  0  0  0  0  0  0
   -4.0350    5.0450  -17.5630 C   0  0  0  0  0  0  0  0  0  0  0  0
   -6.5280    4.8200  -15.8120 C   0  0  0  0  0  0  0  0  0  0  0  0
   -7.6610    4.5590  -15.0420 C   0  0  0  0  0  0  0  0  0  0  0  0
   -7.5310    4.7180  -13.5570 C   0  0  0  0  0  0  0  0  0  0  0  0
   -6.6720    5.4550  -13.0730 O   0  0  0  0  0  0  0  0  0  0  0  0
   -8.4060    4.0120  -12.8030 N   0  0  0  0  0  0  0  0  0  0  0  0
   -8.5000    4.0240  -11.3820 C   0  0  0  0  0  0  0  0  0  0  0  0
   -8.7060    2.8230  -10.7060 C   0  0  0  0  0  0  0  0  0  0  0  0
   -8.7850    2.8020   -9.3140 C   0  0  0  0  0  0  0  0  0  0  0  0
   -9.0910    1.6630   -8.3850 C   0  0  0  0  0  0  0  0  0  0  0  0
   -8.7340    2.2390   -7.0830 N   0  0  0  0  0  0  0  0  0  0  0  0
   -8.7750    3.7100   -7.1230 C   0  0  0  0  0  0  0  0  0  0  0  0
   -8.6380    3.9810   -8.5950 C   0  0  0  0  0  0  0  0  0  0  0  0
   -8.4260    5.1810   -9.2660 C   0  0  0  0  0  0  0  0  0  0  0  0
   -8.3670    5.2060  -10.6530 C   0  0  0  0  0  0  0  0  0  0  0  0
  2  1  1  0
  3  2  2  0
  4  2  1  0
  5  4  2  0
  6  5  1  0
  7  6  1  0
  8  7  2  0
  9  8  1  0
 10  9  1  0
 10  6  2  0
 11  5  1  0
 12 11  2  0
 12  3  1  0
 13 12  1  0
 14 13  2  0
 15 13  1  0
 16 15  1  0
 17 16  2  0
 18 17  1  0
 19 18  1  0
 20 19  1  0
 21 20  1  0
 22 21  1  0
 22 18  2  0
 23 22  1  0
 24 16  1  0
 24 23  2  0
M  END
>  <smiles>  (131) 
O=C(Nc1ccc2c(c1)CNC2)c1cc(F)cc(-c2cn[nH]c2)c1

>  <inchikey>  (131) 
JQVBRWVUKDQFJQ-UHFFFAOYSA-N

>  <alias>  (131) 
Z4959b

$$$$
Z4963a
     RDKit          3D

 22 25  0  0  0  0  0  0  0  0999 V2000
  -10.2480    3.9490  -18.0250 Cl  0  0  0  0  0  0  0  0  0  0  0  0
   -8.7460    4.2410  -17.1900 C   0  0  0  0  0  0  0  0  0  0  0  0
   -8.7300    4.2200  -15.8010 C   0  0  0  0  0  0  0  0  0  0  0  0
   -7.6140    4.5100  -17.9380 C   0  0  0  0  0  0  0  0  0  0  0  0
   -6.4350    4.7730  -17.2550 C   0  0  0  0  0  0  0  0  0  0  0  0
   -6.3780    4.7450  -15.8590 C   0  0  0  0  0  0  0  0  0  0  0  0
   -5.0720    4.9400  -15.4290 N   0  0  0  0  0  0  0  0  0  0  0  0
   -4.3890    5.0830  -16.5500 C   0  0  0  0  0  0  0  0  0  0  0  0
   -5.1450    4.9890  -17.6690 N   0  0  0  0  0  0  0  0  0  0  0  0
   -7.5370    4.4800  -15.1140 C   0  0  0  0  0  0  0  0  0  0  0  0
   -7.4560    4.5800  -13.6140 C   0  0  0  0  0  0  0  0  0  0  0  0
   -6.5750    5.2590  -13.0920 O   0  0  0  0  0  0  0  0  0  0  0  0
   -8.3830    3.9030  -12.8870 N   0  0  0  0  0  0  0  0  0  0  0  0
   -8.4920    3.9080  -11.4670 C   0  0  0  0  0  0  0  0  0  0  0  0
   -8.7260    2.7350  -10.7520 C   0  0  0  0  0  0  0  0  0  0  0  0
   -8.8070    2.7620   -9.3590 C   0  0  0  0  0  0  0  0  0  0  0  0
   -9.0240    1.6400   -8.3850 C   0  0  0  0  0  0  0  0  0  0  0  0
   -8.8800    2.2900   -7.0910 N   0  0  0  0  0  0  0  0  0  0  0  0
   -8.7870    3.7480   -7.2000 C   0  0  0  0  0  0  0  0  0  0  0  0
   -8.6540    3.9620   -8.6810 C   0  0  0  0  0  0  0  0  0  0  0  0
   -8.4130    5.1310   -9.3910 C   0  0  0  0  0  0  0  0  0  0  0  0
   -8.3330    5.1080  -10.7750 C   0  0  0  0  0  0  0  0  0  0  0  0
  2  1  1  0
  3  2  2  0
  4  2  1  0
  5  4  2  0
  6  5  1  0
  7  6  1  0
  8  7  2  0
  9  5  1  0
  9  8  1  0
 10  6  2  0
 10  3  1  0
 11 10  1  0
 12 11  2  0
 13 11  1  0
 14 13  1  0
 15 14  2  0
 16 15  1  0
 17 16  1  0
 18 17  1  0
 19 18  1  0
 20 19  1  0
 20 16  2  0
 21 20  1  0
 22 14  1  0
 22 21  2  0
M  END
>  <smiles>  (132) 
O=C(Nc1ccc2c(c1)CNC2)c1cc(Cl)cc2[nH]cnc12

>  <inchikey>  (132) 
VEJQQQWPFLPTEJ-UHFFFAOYSA-N

>  <alias>  (132) 
Z4963a

$$$$
Z4983a
     RDKit          3D

 23 26  0  0  0  0  0  0  0  0999 V2000
  -10.2180    3.8490  -17.9990 F   0  0  0  0  0  0  0  0  0  0  0  0
   -9.0430    4.2580  -17.4530 C   0  0  0  0  0  0  0  0  0  0  0  0
   -8.9720    4.4020  -16.0790 C   0  0  0  0  0  0  0  0  0  0  0  0
   -8.0080    4.5520  -18.3100 C   0  0  0  0  0  0  0  0  0  0  0  0
   -6.8500    5.0440  -17.7320 C   0  0  0  0  0  0  0  0  0  0  0  0
   -5.6630    5.4170  -18.2950 N   0  0  0  0  0  0  0  0  0  0  0  0
   -5.2940    5.4080  -19.7110 C   0  0  1  0  0  0  0  0  0  0  0  0
   -5.2010    6.7840  -20.3980 C   0  0  0  0  0  0  0  0  0  0  0  0
   -4.0140    6.2510  -21.1080 N   0  0  0  0  0  0  0  0  0  0  0  0
   -3.8000    5.2340  -20.0530 C   0  0  0  0  0  0  0  0  0  0  0  0
   -4.7730    5.8400  -17.3470 N   0  0  0  0  0  0  0  0  0  0  0  0
   -5.3920    5.7380  -16.1880 C   0  0  0  0  0  0  0  0  0  0  0  0
   -6.7110    5.2380  -16.3480 C   0  0  0  0  0  0  0  0  0  0  0  0
   -7.7970    4.9080  -15.5160 C   0  0  0  0  0  0  0  0  0  0  0  0
   -7.7070    5.1250  -14.0340 C   0  0  0  0  0  0  0  0  0  0  0  0
   -7.0260    6.0410  -13.5800 O   0  0  0  0  0  0  0  0  0  0  0  0
   -8.3790    4.2410  -13.2550 N   0  0  0  0  0  0  0  0  0  0  0  0
   -8.4480    4.2220  -11.8530 C   0  0  0  0  0  0  0  0  0  0  0  0
   -8.3910    3.0000  -11.3000 N   0  0  0  0  0  0  0  0  0  0  0  0
   -8.4260    2.9210   -9.9610 C   0  0  0  0  0  0  0  0  0  0  0  0
   -8.5120    4.0190   -9.1320 C   0  0  0  0  0  0  0  0  0  0  0  0
   -8.5640    5.2660   -9.7110 C   0  0  0  0  0  0  0  0  0  0  0  0
   -8.5370    5.3920  -11.0890 C   0  0  0  0  0  0  0  0  0  0  0  0
  2  1  1  0
  3  2  2  0
  4  2  1  0
  5  4  2  0
  6  5  1  0
  7  6  1  1
  8  7  1  0
  9  8  1  0
 10  7  1  0
 10  9  1  0
 11  6  1  0
 12 11  2  0
 13  5  1  0
 13 12  1  0
 14 13  2  0
 14  3  1  0
 15 14  1  0
 16 15  2  0
 17 15  1  0
 18 17  1  0
 19 18  2  0
 20 19  1  0
 21 20  2  0
 22 21  1  0
 23 18  1  0
 23 22  2  0
M  END
>  <smiles>  (133) 
O=C(Nc1ccccn1)c1cc(F)cc2c1cnn2C1CNC1

>  <inchikey>  (133) 
QXWNKVRRNUSKDY-UHFFFAOYSA-N

>  <alias>  (133) 
Z4983a

$$$$
Z5011a
     RDKit          3D

 24 27  0  0  0  0  0  0  0  0999 V2000
   -6.3870    5.3510  -12.8740 O   0  0  0  0  0  0  0  0  0  0  0  0
   -7.3040    4.7430  -13.4230 C   0  0  0  0  0  0  0  0  0  0  0  0
   -7.4090    4.7110  -14.9190 C   0  0  0  0  0  0  0  0  0  0  0  0
   -8.5310    4.2780  -15.6290 C   0  0  0  0  0  0  0  0  0  0  0  0
   -8.4910    4.2850  -17.0050 C   0  0  0  0  0  0  0  0  0  0  0  0
   -9.5830    3.9160  -17.7170 F   0  0  0  0  0  0  0  0  0  0  0  0
   -6.2780    5.1550  -15.6090 C   0  0  0  0  0  0  0  0  0  0  0  0
   -6.2500    5.1500  -17.0060 C   0  0  0  0  0  0  0  0  0  0  0  0
   -7.3790    4.6940  -17.7100 C   0  0  0  0  0  0  0  0  0  0  0  0
   -7.0920    4.7560  -19.0490 N   0  0  0  0  0  0  0  0  0  0  0  0
   -5.8230    5.2430  -19.2070 C   0  0  0  0  0  0  0  0  0  0  0  0
   -5.2630    5.5130  -17.9900 C   0  0  0  0  0  0  0  0  0  0  0  0
   -3.9200    6.1460  -17.7250 C   0  0  0  0  0  0  0  0  0  0  0  0
   -2.9490    5.1010  -17.3800 N   0  0  0  0  0  0  0  0  0  0  0  0
   -8.2720    4.0830  -12.7340 N   0  0  0  0  0  0  0  0  0  0  0  0
   -8.4190    4.0410  -11.3160 C   0  0  0  0  0  0  0  0  0  0  0  0
   -8.6990    2.8430  -10.6620 C   0  0  0  0  0  0  0  0  0  0  0  0
   -8.8490    2.8170   -9.2740 C   0  0  0  0  0  0  0  0  0  0  0  0
   -9.1830    1.6740   -8.3600 C   0  0  0  0  0  0  0  0  0  0  0  0
   -8.8380    2.2410   -7.0640 N   0  0  0  0  0  0  0  0  0  0  0  0
   -8.8510    3.7020   -7.0750 C   0  0  0  0  0  0  0  0  0  0  0  0
   -8.7010    3.9880   -8.5410 C   0  0  0  0  0  0  0  0  0  0  0  0
   -8.4290    5.1840   -9.1940 C   0  0  0  0  0  0  0  0  0  0  0  0
   -8.2900    5.2130  -10.5730 C   0  0  0  0  0  0  0  0  0  0  0  0
  2  1  2  0
  3  2  1  0
  4  3  2  0
  5  4  1  0
  6  5  1  0
  7  3  1  0
  8  7  2  0
  9  8  1  0
  9  5  2  0
 10  9  1  0
 11 10  1  0
 12 11  2  0
 12  8  1  0
 13 12  1  0
 14 13  1  0
 15  2  1  0
 16 15  1  0
 17 16  2  0
 18 17  1  0
 19 18  1  0
 20 19  1  0
 21 20  1  0
 22 21  1  0
 22 18  2  0
 23 22  1  0
 24 16  1  0
 24 23  2  0
M  END
>  <smiles>  (134) 
NCc1c[nH]c2c(F)cc(C(=O)Nc3ccc4c(c3)CNC4)cc12

>  <inchikey>  (134) 
CZZNOLDQCUUTIW-UHFFFAOYSA-N

>  <alias>  (134) 
Z5011a

$$$$
Z5017a
     RDKit          3D

 23 26  0  0  0  0  0  0  0  0999 V2000
  -10.2890    3.8240  -18.0540 F   0  0  0  0  0  0  0  0  0  0  0  0
   -9.1220    4.2910  -17.5350 C   0  0  0  0  0  0  0  0  0  0  0  0
   -9.0320    4.4410  -16.1650 C   0  0  0  0  0  0  0  0  0  0  0  0
   -8.1180    4.6320  -18.4120 C   0  0  0  0  0  0  0  0  0  0  0  0
   -6.9680    5.1680  -17.8540 C   0  0  0  0  0  0  0  0  0  0  0  0
   -5.7920    5.5560  -18.4320 N   0  0  0  0  0  0  0  0  0  0  0  0
   -5.4100    5.5410  -19.8450 C   0  0  2  0  0  0  0  0  0  0  0  0
   -3.9250    5.2300  -20.1350 C   0  0  0  0  0  0  0  0  0  0  0  0
   -3.9200    6.3680  -21.0840 N   0  0  0  0  0  0  0  0  0  0  0  0
   -5.1610    6.9190  -20.4910 C   0  0  0  0  0  0  0  0  0  0  0  0
   -4.9010    6.0050  -17.4970 N   0  0  0  0  0  0  0  0  0  0  0  0
   -5.5070    5.9010  -16.3310 C   0  0  0  0  0  0  0  0  0  0  0  0
   -6.8180    5.3740  -16.4740 C   0  0  0  0  0  0  0  0  0  0  0  0
   -7.8720    5.0010  -15.6240 C   0  0  0  0  0  0  0  0  0  0  0  0
   -7.7690    5.2090  -14.1420 C   0  0  0  0  0  0  0  0  0  0  0  0
   -7.0980    6.1300  -13.6840 O   0  0  0  0  0  0  0  0  0  0  0  0
   -8.4360    4.3200  -13.3680 N   0  0  0  0  0  0  0  0  0  0  0  0
   -8.4770    4.2990  -11.9820 C   0  0  0  0  0  0  0  0  0  0  0  0
   -8.5230    3.0860  -11.4050 N   0  0  0  0  0  0  0  0  0  0  0  0
   -8.5110    3.0850  -10.0640 C   0  0  0  0  0  0  0  0  0  0  0  0
   -8.4590    4.2340   -9.3050 C   0  0  0  0  0  0  0  0  0  0  0  0
   -8.4160    5.4180  -10.0050 C   0  0  0  0  0  0  0  0  0  0  0  0
   -8.4280    5.4840  -11.3430 N   0  0  0  0  0  0  0  0  0  0  0  0
  2  1  1  0
  3  2  2  0
  4  2  1  0
  5  4  2  0
  6  5  1  0
  7  6  1  1
  8  7  1  0
  9  8  1  0
 10  9  1  0
 10  7  1  0
 11  6  1  0
 12 11  2  0
 13  5  1  0
 13 12  1  0
 14 13  2  0
 14  3  1  0
 15 14  1  0
 16 15  2  0
 17 15  1  0
 18 17  1  0
 19 18  2  0
 20 19  1  0
 21 20  2  0
 22 21  1  0
 23 18  1  0
 23 22  2  0
M  END
>  <smiles>  (135) 
O=C(Nc1ncccn1)c1cc(F)cc2c1cnn2C1CNC1

>  <inchikey>  (135) 
MVDDYECVTQJJIB-UHFFFAOYSA-N

>  <alias>  (135) 
Z5017a

$$$$
Z5348a
     RDKit          3D

 26 29  0  0  0  0  0  0  0  0999 V2000
  -10.7470    4.1450  -18.1960 Cl  0  0  0  0  0  0  0  0  0  0  0  0
   -9.2020    4.4660  -17.4480 C   0  0  0  0  0  0  0  0  0  0  0  0
   -9.1230    4.5790  -16.0620 C   0  0  0  0  0  0  0  0  0  0  0  0
   -8.1060    4.6660  -18.2660 C   0  0  0  0  0  0  0  0  0  0  0  0
   -6.9170    5.0390  -17.6620 C   0  0  0  0  0  0  0  0  0  0  0  0
   -5.7050    5.3560  -18.2070 N   0  0  0  0  0  0  0  0  0  0  0  0
   -5.3220    5.3880  -19.6210 C   0  0  1  0  0  0  0  0  0  0  0  0
   -5.1330    6.8000  -20.2130 C   0  0  0  0  0  0  0  0  0  0  0  0
   -3.9270    6.2900  -20.9090 N   0  0  0  0  0  0  0  0  0  0  0  0
   -3.8340    5.1480  -19.9680 C   0  0  0  0  0  0  0  0  0  0  0  0
   -4.7990    5.7000  -17.2400 N   0  0  0  0  0  0  0  0  0  0  0  0
   -5.4360    5.6080  -16.0900 C   0  0  0  0  0  0  0  0  0  0  0  0
   -6.7810    5.1940  -16.2740 C   0  0  0  0  0  0  0  0  0  0  0  0
   -7.9070    4.9570  -15.4610 C   0  0  0  0  0  0  0  0  0  0  0  0
   -7.7830    5.2500  -13.9890 C   0  0  0  0  0  0  0  0  0  0  0  0
   -6.9540    6.0650  -13.5860 O   0  0  0  0  0  0  0  0  0  0  0  0
   -8.6060    4.5760  -13.1500 N   0  0  0  0  0  0  0  0  0  0  0  0
   -8.6620    4.7350  -11.7330 C   0  0  0  0  0  0  0  0  0  0  0  0
   -8.4260    5.9650  -11.1220 C   0  0  0  0  0  0  0  0  0  0  0  0
   -8.4980    6.0750   -9.7400 C   0  0  0  0  0  0  0  0  0  0  0  0
   -8.8220    4.9680   -8.9700 C   0  0  0  0  0  0  0  0  0  0  0  0
   -8.9800    3.6290  -10.9520 C   0  0  0  0  0  0  0  0  0  0  0  0
   -9.0790    3.7370   -9.5680 C   0  0  0  0  0  0  0  0  0  0  0  0
   -9.4940    2.5440   -8.7440 C   0  0  0  0  0  0  0  0  0  0  0  0
   -8.3460    1.9260   -8.0820 N   0  0  0  0  0  0  0  0  0  0  0  0
   -8.4510    2.0130   -6.6250 C   0  0  0  0  0  0  0  0  0  0  0  0
  2  1  1  0
  3  2  2  0
  4  2  1  0
  5  4  2  0
  6  5  1  0
  7  6  1  1
  8  7  1  0
  9  8  1  0
 10  7  1  0
 10  9  1  0
 11  6  1  0
 12 11  2  0
 13  5  1  0
 13 12  1  0
 14 13  2  0
 14  3  1  0
 15 14  1  0
 16 15  2  0
 17 15  1  0
 18 17  1  0
 19 18  2  0
 20 19  1  0
 21 20  2  0
 22 18  1  0
 23 22  2  0
 23 21  1  0
 24 23  1  0
 25 24  1  0
 26 25  1  0
M  END
>  <smiles>  (136) 
CNCc1cccc(NC(=O)c2cc(Cl)cc3c2cnn3C2CNC2)c1

>  <inchikey>  (136) 
NSSWESUKHRMODM-UHFFFAOYSA-N

>  <alias>  (136) 
Z5348a

$$$$
