XX01ZVNS2B-x4838_B_203_6_XX01ZVNS2B-x4590+B+203+1__LIG
     RDKit          3D

 28 32  0  0  0  0  0  0  0  0999 V2000
  -10.6130    4.2230  -18.2060 Cl  0  0  0  0  0  0  0  0  0  0  0  0
   -9.0760    4.5840  -17.4640 C   0  0  0  0  0  0  0  0  0  0  0  0
   -7.9720    4.7620  -18.2770 C   0  0  0  0  0  0  0  0  0  0  0  0
   -6.7820    5.1290  -17.6620 C   0  0  0  0  0  0  0  0  0  0  0  0
   -6.6650    5.3000  -16.2720 C   0  0  0  0  0  0  0  0  0  0  0  0
   -5.3230    5.7160  -16.0760 C   0  0  0  0  0  0  0  0  0  0  0  0
   -4.6710    5.7970  -17.2190 N   0  0  0  0  0  0  0  0  0  0  0  0
   -5.5620    5.4380  -18.1930 N   0  0  0  0  0  0  0  0  0  0  0  0
   -5.1530    5.4490  -19.6000 C   0  0  0  0  0  0  0  0  0  0  0  0
   -3.6480    5.2670  -19.8840 C   0  0  0  0  0  0  0  0  0  0  0  0
   -5.0230    6.8410  -20.2500 C   0  0  0  0  0  0  0  0  0  0  0  0
   -3.7280    6.4100  -20.8210 N   0  0  0  0  0  0  0  0  0  0  0  0
   -9.0110    4.7280  -16.0860 C   0  0  0  0  0  0  0  0  0  0  0  0
   -7.8030    5.0810  -15.4750 C   0  0  0  0  0  0  0  0  0  0  0  0
   -7.7330    5.2350  -13.9810 C   0  0  0  0  0  0  0  0  0  0  0  0
   -7.0750    6.1450  -13.4740 O   0  0  0  0  0  0  0  0  0  0  0  0
   -8.4200    4.3140  -13.2540 N   0  0  0  0  0  0  0  0  0  0  0  0
   -8.5400    4.2560  -11.8390 C   0  0  0  0  0  0  0  0  0  0  0  0
   -8.6850    3.0420  -11.1680 C   0  0  0  0  0  0  0  0  0  0  0  0
   -8.9040    3.0330   -9.7940 C   0  0  0  0  0  0  0  0  0  0  0  0
   -8.7790    1.9230   -8.7850 C   0  0  0  0  0  0  0  0  0  0  0  0
   -8.9230    2.6570   -7.4310 C   0  0  0  0  0  0  0  0  0  0  0  0
  -10.1010    2.1640   -6.6150 C   0  0  0  0  0  0  0  0  0  0  0  0
   -7.6470    2.6590   -6.6170 C   0  0  0  0  0  0  0  0  0  0  0  0
   -9.2080    4.0730   -7.7730 O   0  0  0  0  0  0  0  0  0  0  0  0
   -8.9520    4.2290   -9.1130 C   0  0  0  0  0  0  0  0  0  0  0  0
   -8.7840    5.4460   -9.7480 C   0  0  0  0  0  0  0  0  0  0  0  0
   -8.5780    5.4520  -11.1190 C   0  0  0  0  0  0  0  0  0  0  0  0
 12 10  1  0
 10  9  1  0
  9  8  1  0
  8  7  1  0
  7  6  2  0
  6  5  1  0
  5 14  2  0
 15 14  1  0
 16 15  2  0
 17 15  1  0
 18 17  1  0
 18 28  2  0
 28 27  1  0
 27 26  2  0
 26 20  1  0
 20 19  2  0
 19 18  1  0
 21 20  1  0
 22 21  1  0
 23 22  1  0
 24 22  1  0
 25 22  1  0
 26 25  1  0
 14 13  1  0
 13  2  2  0
  2  1  1  0
  3  2  1  0
  4  3  2  0
  5  4  1  0
  8  4  1  0
 11  9  1  0
 12 11  1  0
M  END
$$$$
