A71EV2A-x5249_A_201_3_A71EV2A-x0911+A+147+1__LIG
     RDKit          3D

 24 26  0  0  0  0  0  0  0  0999 V2000
   10.0970   16.4760   19.3180 O   0  0  0  0  0  0  0  0  0  0  0  0
   10.5200   15.3310   19.5150 C   0  0  0  0  0  0  0  0  0  0  0  0
   10.9780   14.5520   18.5440 N   0  0  0  0  0  0  0  0  0  0  0  0
   10.5220   14.7260   20.9080 C   0  0  1  0  0  0  0  0  0  0  0  0
   11.8900   14.9210   21.5860 C   0  0  0  0  0  0  0  0  0  0  0  0
   11.9190   14.2650   22.9760 C   0  0  0  0  0  0  0  0  0  0  0  0
   10.7520   14.7180   23.8260 C   0  0  0  0  0  0  0  0  0  0  0  0
    9.4070   15.2460   21.8290 C   0  0  0  0  0  0  0  0  0  0  0  0
    9.4680   14.5620   23.1250 N   0  0  0  0  0  0  0  0  0  0  0  0
    8.4560   13.6940   23.4480 C   0  0  0  0  0  0  0  0  0  0  0  0
    7.6530   13.2730   22.6360 O   0  0  0  0  0  0  0  0  0  0  0  0
    8.3560   13.3510   24.8020 N   0  0  0  0  0  0  0  0  0  0  0  0
    7.5750   12.1990   25.1410 C   0  0  0  0  0  0  0  0  0  0  0  0
    8.0300   10.9310   24.7690 C   0  0  0  0  0  0  0  0  0  0  0  0
    9.4790   10.8360   23.7660 S   0  0  0  0  0  0  0  0  0  0  0  0
    9.6180    9.0660   23.4240 C   0  0  0  0  0  0  0  0  0  0  0  0
    8.4130   14.3740   25.8710 C   0  0  0  0  0  0  0  0  0  0  0  0
    7.2920   15.3790   25.7270 C   0  0  0  0  0  0  0  0  0  0  0  0
    5.9640   14.6740   25.6610 C   0  0  0  0  0  0  0  0  0  0  0  0
    5.9630   13.4930   26.4890 O   0  0  0  0  0  0  0  0  0  0  0  0
    6.4230   12.3110   25.9330 C   0  0  0  0  0  0  0  0  0  0  0  0
    5.7460   11.1730   26.3380 C   0  0  0  0  0  0  0  0  0  0  0  0
    6.2170    9.9220   25.9770 C   0  0  0  0  0  0  0  0  0  0  0  0
    7.3520    9.7920   25.1950 C   0  0  0  0  0  0  0  0  0  0  0  0
 16 15  1  0
 15 14  1  0
 14 24  2  0
 24 23  1  0
 23 22  2  0
 22 21  1  0
 21 13  2  0
 14 13  1  0
 13 12  1  0
 12 10  1  0
 11 10  2  0
 10  9  1  0
  9  7  1  0
  7  6  1  0
  6  5  1  0
  5  4  1  0
  4  2  1  6
  3  2  1  0
  2  1  2  0
  8  4  1  0
  9  8  1  0
 17 12  1  0
 18 17  1  0
 19 18  1  0
 20 19  1  0
 21 20  1  0
M  END
$$$$
