XX01ZVNS2B-x0844_B_301_1_XX01ZVNS2B-x4590+B+203+1__LIG
     RDKit          3D

 12 13  0  0  0  0  0  0  0  0999 V2000
  -10.8240    4.4490  -17.7270 N   0  0  0  0  0  0  0  0  0  0  0  0
   -9.8040    4.2710  -18.1930 C   0  0  0  0  0  0  0  0  0  0  0  0
   -8.5350    4.0070  -18.8640 C   0  0  0  0  0  0  0  0  0  0  0  0
   -7.3720    4.7570  -18.3020 C   0  0  0  0  0  0  0  0  0  0  0  0
   -6.2440    4.9570  -19.0270 N   0  0  0  0  0  0  0  0  0  0  0  0
   -5.3980    5.9310  -18.3490 C   0  0  1  0  0  0  0  0  0  0  0  0
   -6.0220    5.9420  -16.9280 C   0  0  1  0  0  0  0  0  0  0  0  0
   -7.3120    5.2430  -17.1210 N   0  0  0  0  0  0  0  0  0  0  0  0
   -3.8680    5.9290  -18.2910 C   0  0  0  0  0  0  0  0  0  0  0  0
   -3.3110    4.9830  -17.2240 C   0  0  0  0  0  0  0  0  0  0  0  0
   -3.8100    5.3610  -15.8340 C   0  0  0  0  0  0  0  0  0  0  0  0
   -5.3330    5.2600  -15.7430 C   0  0  0  0  0  0  0  0  0  0  0  0
  2  1  3  0
  3  2  1  0
  4  3  1  0
  4  8  2  0
  8  7  1  0
  7 12  1  1
 12 11  1  0
 11 10  1  0
 10  9  1  0
  6  9  1  1
  7  6  1  0
  6  5  1  0
  5  4  1  0
M  END
$$$$
