A71EV2A-x4675_A_201_3_A71EV2A-x0911+A+147+1__LIG
     RDKit          3D

 22 23  0  0  0  0  0  0  0  0999 V2000
   10.4340   16.8290   19.1490 O   0  0  0  0  0  0  0  0  0  0  0  0
   10.7650   15.6690   19.4090 C   0  0  0  0  0  0  0  0  0  0  0  0
   11.0940   14.7930   18.4780 N   0  0  0  0  0  0  0  0  0  0  0  0
   10.8140   15.1680   20.8430 C   0  0  1  0  0  0  0  0  0  0  0  0
   11.9700   15.8130   21.6240 C   0  0  0  0  0  0  0  0  0  0  0  0
   12.0260   15.3100   23.0700 C   0  0  0  0  0  0  0  0  0  0  0  0
   10.6890   15.5020   23.7620 C   0  0  0  0  0  0  0  0  0  0  0  0
    9.5100   15.4550   21.5950 C   0  0  0  0  0  0  0  0  0  0  0  0
    9.6010   14.9240   22.9580 N   0  0  0  0  0  0  0  0  0  0  0  0
    8.7640   13.9520   23.3760 C   0  0  0  0  0  0  0  0  0  0  0  0
    7.8170   13.5760   22.7010 O   0  0  0  0  0  0  0  0  0  0  0  0
    9.0690   13.3280   24.7250 C   0  0  0  0  0  0  0  0  0  0  0  0
    8.8180   11.8380   24.7030 C   0  0  0  0  0  0  0  0  0  0  0  0
    7.5980   11.2490   25.0600 C   0  0  0  0  0  0  0  0  0  0  0  0
    6.1610   12.1910   25.5210 S   0  0  0  0  0  0  0  0  0  0  0  0
    5.1760   11.2730   26.0210 O   0  0  0  0  0  0  0  0  0  0  0  0
    5.8020   13.0170   24.4010 O   0  0  0  0  0  0  0  0  0  0  0  0
    6.6520   13.2340   26.8430 C   0  0  0  0  0  0  0  0  0  0  0  0
    9.8150   10.9960   24.2130 C   0  0  0  0  0  0  0  0  0  0  0  0
    9.6000    9.6420   24.0660 C   0  0  0  0  0  0  0  0  0  0  0  0
    8.4030    9.0880   24.4300 C   0  0  0  0  0  0  0  0  0  0  0  0
    7.3940    9.8820   24.9460 C   0  0  0  0  0  0  0  0  0  0  0  0
 18 15  1  0
 16 15  2  0
 17 15  2  0
 15 14  1  0
 14 22  2  0
 22 21  1  0
 21 20  2  0
 20 19  1  0
 19 13  2  0
 14 13  1  0
 13 12  1  0
 12 10  1  0
 11 10  2  0
 10  9  1  0
  9  7  1  0
  7  6  1  0
  6  5  1  0
  5  4  1  0
  4  2  1  6
  3  2  1  0
  2  1  2  0
  8  4  1  0
  9  8  1  0
M  END
$$$$
