A71EV2A-x4237_A_201_1_A71EV2A-x0911+A+147+1_ALIG
     RDKit          3D

 26 28  0  0  0  0  0  0  0  0999 V2000
    7.0620   19.1480   27.0320 F   0  0  0  0  0  0  0  0  0  0  0  0
    7.0240   17.8430   26.6600 C   0  0  0  0  0  0  0  0  0  0  0  0
    7.5710   16.9070   27.4910 C   0  0  0  0  0  0  0  0  0  0  0  0
    7.5490   15.5830   27.0900 C   0  0  0  0  0  0  0  0  0  0  0  0
    6.4490   17.5240   25.4650 C   0  0  0  0  0  0  0  0  0  0  0  0
    6.4400   16.1960   25.0780 C   0  0  0  0  0  0  0  0  0  0  0  0
    6.9900   15.2090   25.8790 C   0  0  0  0  0  0  0  0  0  0  0  0
    6.9830   13.7640   25.4390 C   0  0  0  0  0  0  0  0  0  0  0  0
    8.2580   13.3580   24.6670 C   0  0  1  0  0  0  0  0  0  0  0  0
    8.4100   11.8630   24.4350 C   0  0  0  0  0  0  0  0  0  0  0  0
    7.5310   10.9470   24.9910 C   0  0  0  0  0  0  0  0  0  0  0  0
    7.7280    9.5890   24.8180 C   0  0  0  0  0  0  0  0  0  0  0  0
    8.8090    9.1320   24.0980 C   0  0  0  0  0  0  0  0  0  0  0  0
    9.6690   10.0260   23.5190 C   0  0  0  0  0  0  0  0  0  0  0  0
    9.4710   11.3850   23.6800 C   0  0  0  0  0  0  0  0  0  0  0  0
    8.2110   13.9100   23.2440 C   0  0  0  0  0  0  0  0  0  0  0  0
    7.3840   13.4890   22.4520 O   0  0  0  0  0  0  0  0  0  0  0  0
    9.1180   14.8440   22.8880 N   0  0  0  0  0  0  0  0  0  0  0  0
   10.1670   15.4010   23.7580 C   0  0  0  0  0  0  0  0  0  0  0  0
   11.5570   15.1460   23.1770 C   0  0  0  0  0  0  0  0  0  0  0  0
   11.6340   15.6080   21.7200 C   0  0  0  0  0  0  0  0  0  0  0  0
    9.1540   15.3700   21.5230 C   0  0  0  0  0  0  0  0  0  0  0  0
   10.4950   15.0080   20.8830 C   0  0  1  0  0  0  0  0  0  0  0  0
   10.5340   15.5050   19.4480 C   0  0  0  0  0  0  0  0  0  0  0  0
   10.2600   16.6760   19.1720 O   0  0  0  0  0  0  0  0  0  0  0  0
   10.8460   14.6030   18.5330 N   0  0  0  0  0  0  0  0  0  0  0  0
 26 24  1  0
 25 24  2  0
 23 24  1  6
 23 21  1  0
 21 20  1  0
 20 19  1  0
 19 18  1  0
 18 16  1  0
 17 16  2  0
 16  9  1  0
  9  8  1  6
  8  7  1  0
  7  4  2  0
  4  3  1  0
  3  2  2  0
  2  1  1  0
  5  2  1  0
  6  5  2  0
  7  6  1  0
 10  9  1  0
 10 15  2  0
 15 14  1  0
 14 13  2  0
 13 12  1  0
 12 11  2  0
 11 10  1  0
 22 18  1  0
 23 22  1  0
M  END
$$$$
A71EV2A-x4237_A_201_1_A71EV2A-x0911+A+147+1_BLIG
     RDKit          3D

 26 28  0  0  0  0  0  0  0  0999 V2000
    5.8830   12.0750   30.7600 F   0  0  0  0  0  0  0  0  0  0  0  0
    5.9180   12.4220   29.4450 C   0  0  0  0  0  0  0  0  0  0  0  0
    5.4200   11.5440   28.5240 C   0  0  0  0  0  0  0  0  0  0  0  0
    5.5800   11.8410   27.1830 C   0  0  0  0  0  0  0  0  0  0  0  0
    6.5330   13.5940   29.0940 C   0  0  0  0  0  0  0  0  0  0  0  0
    6.6950   13.8690   27.7480 C   0  0  0  0  0  0  0  0  0  0  0  0
    6.2290   12.9970   26.7730 C   0  0  0  0  0  0  0  0  0  0  0  0
    6.4190   13.2990   25.3040 C   0  0  0  0  0  0  0  0  0  0  0  0
    7.9100   13.4350   24.8810 C   0  0  1  0  0  0  0  0  0  0  0  0
    8.6740   12.1170   24.9300 C   0  0  0  0  0  0  0  0  0  0  0  0
    8.0300   10.9110   24.6950 C   0  0  0  0  0  0  0  0  0  0  0  0
    8.7580    9.7510   24.4810 C   0  0  0  0  0  0  0  0  0  0  0  0
   10.1310    9.7810   24.5070 C   0  0  0  0  0  0  0  0  0  0  0  0
   10.7810   10.9620   24.7860 C   0  0  0  0  0  0  0  0  0  0  0  0
   10.0580   12.1190   25.0170 C   0  0  0  0  0  0  0  0  0  0  0  0
    7.9860   13.8340   23.4080 C   0  0  0  0  0  0  0  0  0  0  0  0
    7.2450   13.3050   22.5990 O   0  0  0  0  0  0  0  0  0  0  0  0
    8.8830   14.7730   23.0290 N   0  0  0  0  0  0  0  0  0  0  0  0
    9.8680   15.4250   23.9040 C   0  0  0  0  0  0  0  0  0  0  0  0
   11.2840   15.1740   23.3980 C   0  0  0  0  0  0  0  0  0  0  0  0
   11.4210   15.5920   21.9320 C   0  0  0  0  0  0  0  0  0  0  0  0
    8.9530   15.2380   21.6410 C   0  0  0  0  0  0  0  0  0  0  0  0
   10.3390   14.9470   21.0510 C   0  0  1  0  0  0  0  0  0  0  0  0
   10.4080   15.4740   19.6280 C   0  0  0  0  0  0  0  0  0  0  0  0
   10.0850   16.6340   19.3620 O   0  0  0  0  0  0  0  0  0  0  0  0
   10.8290   14.6170   18.7110 N   0  0  0  0  0  0  0  0  0  0  0  0
 26 24  1  0
 25 24  2  0
 23 24  1  6
 23 21  1  0
 21 20  1  0
 20 19  1  0
 19 18  1  0
 18 16  1  0
 17 16  2  0
 16  9  1  0
  9  8  1  6
  8  7  1  0
  7  4  2  0
  4  3  1  0
  3  2  2  0
  2  1  1  0
  5  2  1  0
  6  5  2  0
  7  6  1  0
 10  9  1  0
 10 15  2  0
 15 14  1  0
 14 13  2  0
 13 12  1  0
 12 11  2  0
 11 10  1  0
 22 18  1  0
 23 22  1  0
M  END
$$$$
