A71EV2A-x4447_C_201_1_A71EV2A-x0911+A+147+1__LIG
     RDKit          3D

 22 24  0  0  0  0  0  0  0  0999 V2000
   10.4510   16.7540   19.1340 O   0  0  0  0  0  0  0  0  0  0  0  0
   10.8400   15.6020   19.3670 C   0  0  0  0  0  0  0  0  0  0  0  0
   11.0290   14.6900   18.4210 N   0  0  0  0  0  0  0  0  0  0  0  0
   11.0180   15.1120   20.7930 C   0  0  1  0  0  0  0  0  0  0  0  0
   12.2130   15.7910   21.4770 C   0  0  0  0  0  0  0  0  0  0  0  0
   12.3320   15.3580   22.9420 C   0  0  0  0  0  0  0  0  0  0  0  0
   11.0150   15.5830   23.6900 C   0  0  0  0  0  0  0  0  0  0  0  0
    9.7510   15.4580   21.5750 C   0  0  0  0  0  0  0  0  0  0  0  0
    9.8860   14.9880   22.9550 N   0  0  0  0  0  0  0  0  0  0  0  0
    9.2290   13.8250   23.2450 C   0  0  0  0  0  0  0  0  0  0  0  0
    8.1600   13.5230   22.7090 O   0  0  0  0  0  0  0  0  0  0  0  0
    9.7980   13.0420   24.1880 N   0  0  0  0  0  0  0  0  0  0  0  0
    9.2130   11.7890   24.4800 C   0  0  0  0  0  0  0  0  0  0  0  0
    9.6220   10.6090   23.8450 C   0  0  0  0  0  0  0  0  0  0  0  0
    8.9810    9.3950   24.0800 C   0  0  0  0  0  0  0  0  0  0  0  0
    7.9160    9.3140   24.9670 C   0  0  0  0  0  0  0  0  0  0  0  0
    7.5160   10.4840   25.5960 C   0  0  0  0  0  0  0  0  0  0  0  0
    6.5100   10.7390   26.5030 N   0  0  0  0  0  0  0  0  0  0  0  0
    5.5470    9.7710   27.0100 C   0  0  0  0  0  0  0  0  0  0  0  0
    8.1220   11.7120   25.3620 C   0  0  0  0  0  0  0  0  0  0  0  0
    7.4960   12.7110   26.0940 N   0  0  0  0  0  0  0  0  0  0  0  0
    6.5600   12.0730   26.7530 C   0  0  0  0  0  0  0  0  0  0  0  0
 19 18  1  0
 18 22  1  0
 22 21  2  0
 21 20  1  0
 20 13  1  0
 13 12  1  0
 12 10  1  0
 11 10  2  0
 10  9  1  0
  9  7  1  0
  7  6  1  0
  6  5  1  0
  5  4  1  0
  4  2  1  6
  3  2  1  0
  2  1  2  0
  8  4  1  0
  9  8  1  0
 14 13  2  0
 15 14  1  0
 16 15  2  0
 17 16  1  0
 20 17  2  0
 18 17  1  0
M  END
$$$$
