A71EV2A-x4402_A_201_1_A71EV2A-x0911+A+147+1__LIG
     RDKit          3D

 19 20  0  0  0  0  0  0  0  0999 V2000
    7.6760   13.4110   22.2940 O   0  0  0  0  0  0  0  0  0  0  0  0
    8.5040   13.8540   23.0540 C   0  0  0  0  0  0  0  0  0  0  0  0
    9.2030   14.9860   22.7580 N   0  0  0  0  0  0  0  0  0  0  0  0
    9.1890   15.4760   21.3750 C   0  0  0  0  0  0  0  0  0  0  0  0
   10.4810   15.1510   20.6690 C   0  0  0  0  0  0  0  0  0  0  0  0
   10.4630   15.5020   19.2050 C   0  0  0  0  0  0  0  0  0  0  0  0
   10.1000   16.6220   18.8280 O   0  0  0  0  0  0  0  0  0  0  0  0
   10.8340   14.5350   18.3820 N   0  0  0  0  0  0  0  0  0  0  0  0
   10.0440   15.7570   23.6760 C   0  0  0  0  0  0  0  0  0  0  0  0
    9.6450   15.5070   25.1150 C   0  0  0  0  0  0  0  0  0  0  0  0
    9.4080   14.0350   25.4120 C   0  0  0  0  0  0  0  0  0  0  0  0
    8.6490   13.3730   24.3340 N   0  0  0  0  0  0  0  0  0  0  0  0
    8.2220   12.0500   24.6350 C   0  0  0  0  0  0  0  0  0  0  0  0
    7.2780   11.8180   25.6320 C   0  0  0  0  0  0  0  0  0  0  0  0
    6.9020   10.5160   25.9120 C   0  0  0  0  0  0  0  0  0  0  0  0
    7.4320    9.4640   25.1780 C   0  0  0  0  0  0  0  0  0  0  0  0
    8.7750   10.9810   23.9340 C   0  0  0  0  0  0  0  0  0  0  0  0
    8.3740    9.6790   24.1880 C   0  0  0  0  0  0  0  0  0  0  0  0
    9.0080    8.5220   23.4550 C   0  0  0  0  0  0  0  0  0  0  0  0
 19 18  1  0
 18 16  2  0
 16 15  1  0
 15 14  2  0
 14 13  1  0
 13 12  1  0
 12 11  1  0
 11 10  1  0
 10  9  1  0
  9  3  1  0
  4  3  1  0
  5  4  1  0
  6  5  1  0
  8  6  1  0
  7  6  2  0
  3  2  1  0
 12  2  1  0
  2  1  2  0
 17 13  2  0
 18 17  1  0
M  END
$$$$
