A71EV2A-x4537_A_201_1_A71EV2A-x0911+A+147+1__LIG
     RDKit          3D

 20 22  0  0  0  0  0  0  0  0999 V2000
   11.4120   14.7830   25.0060 O   0  0  0  0  0  0  0  0  0  0  0  0
   11.3190   14.9260   23.7900 C   0  0  0  0  0  0  0  0  0  0  0  0
   12.5160   15.3700   22.9840 C   0  0  0  0  0  0  0  0  0  0  0  0
   12.2070   15.9160   21.5870 C   0  0  0  0  0  0  0  0  0  0  0  0
   10.1630   14.7150   23.1240 N   0  0  0  0  0  0  0  0  0  0  0  0
    9.8970   14.9960   21.7050 C   0  0  0  0  0  0  0  0  0  0  0  0
   11.1980   14.9890   20.8960 C   0  0  1  0  0  0  0  0  0  0  0  0
   10.9640   15.3790   19.4450 C   0  0  0  0  0  0  0  0  0  0  0  0
   11.2100   14.5830   18.5210 O   0  0  0  0  0  0  0  0  0  0  0  0
   10.4030   16.5630   19.2460 N   0  0  0  0  0  0  0  0  0  0  0  0
    9.0010   14.2490   23.8540 C   0  0  0  0  0  0  0  0  0  0  0  0
    8.8410   12.7480   23.9100 C   0  0  0  0  0  0  0  0  0  0  0  0
    7.8740   12.0330   24.7140 C   0  0  0  0  0  0  0  0  0  0  0  0
    7.9600   10.6400   24.5060 C   0  0  0  0  0  0  0  0  0  0  0  0
    9.2250   10.2400   23.3900 S   0  0  0  0  0  0  0  0  0  0  0  0
    9.6120   11.9070   23.1700 C   0  0  0  0  0  0  0  0  0  0  0  0
    6.9290   12.4810   25.6510 C   0  0  0  0  0  0  0  0  0  0  0  0
    6.1050   11.5930   26.3180 C   0  0  0  0  0  0  0  0  0  0  0  0
    6.1930   10.2420   26.0750 C   0  0  0  0  0  0  0  0  0  0  0  0
    7.1190    9.7490   25.1710 C   0  0  0  0  0  0  0  0  0  0  0  0
 10  8  1  0
  9  8  2  0
  7  8  1  6
  7  4  1  0
  4  3  1  0
  3  2  1  0
  2  1  2  0
  5  2  1  0
 11  5  1  0
 12 11  1  0
 12 16  2  0
 16 15  1  0
 15 14  1  0
 14 20  2  0
 20 19  1  0
 19 18  2  0
 18 17  1  0
 17 13  2  0
 13 12  1  0
 14 13  1  0
  6  5  1  0
  7  6  1  0
M  END
$$$$
