A71EV2A-x3522_A_201_1_A71EV2A-x0911+A+147+1_ALIG
     RDKit          3D

 22 23  0  0  0  0  0  0  0  0999 V2000
    6.1360   10.9690   26.5560 Cl  0  0  0  0  0  0  0  0  0  0  0  0
    7.4510   11.2350   25.4300 C   0  0  0  0  0  0  0  0  0  0  0  0
    8.1400   10.1340   24.9550 C   0  0  0  0  0  0  0  0  0  0  0  0
    9.1700   10.2810   24.0310 C   0  0  0  0  0  0  0  0  0  0  0  0
   10.1040    9.1380   23.7190 C   0  0  0  0  0  0  0  0  0  0  0  0
    9.4350   11.5450   23.5380 C   0  0  0  0  0  0  0  0  0  0  0  0
    8.7770   12.6460   24.0280 C   0  0  0  0  0  0  0  0  0  0  0  0
    7.7750   12.5320   25.0080 C   0  0  0  0  0  0  0  0  0  0  0  0
    7.1920   13.6940   25.6070 N   0  0  0  0  0  0  0  0  0  0  0  0
    7.8830   14.6840   26.1760 C   0  0  0  0  0  0  0  0  0  0  0  0
    9.0500   14.5990   26.5330 O   0  0  0  0  0  0  0  0  0  0  0  0
    7.1020   15.9630   26.3640 C   0  0  0  0  0  0  0  0  0  0  0  0
    6.9270   16.3040   27.7170 O   0  0  0  0  0  0  0  0  0  0  0  0
    5.6930   15.8400   28.2760 C   0  0  0  0  0  0  0  0  0  0  0  0
    9.0830   13.9220   23.6430 O   0  0  0  0  0  0  0  0  0  0  0  0
    8.9280   14.2480   22.2480 C   0  0  0  0  0  0  0  0  0  0  0  0
    7.4630   14.6360   22.1880 C   0  0  0  0  0  0  0  0  0  0  0  0
    6.5960   13.7590   21.6060 N   0  0  0  0  0  0  0  0  0  0  0  0
    5.2980   14.0550   21.7190 C   0  0  0  0  0  0  0  0  0  0  0  0
    4.8260   15.1620   22.3840 C   0  0  0  0  0  0  0  0  0  0  0  0
    5.7750   15.9950   22.9210 C   0  0  0  0  0  0  0  0  0  0  0  0
    7.0900   15.7800   22.8230 N   0  0  0  0  0  0  0  0  0  0  0  0
 14 13  1  0
 13 12  1  0
 12 10  1  0
 11 10  2  0
 10  9  1  0
  9  8  1  0
  8  2  2  0
  2  1  1  0
  3  2  1  0
  4  3  2  0
  5  4  1  0
  6  4  1  0
  7  6  2  0
  8  7  1  0
 15  7  1  0
 16 15  1  0
 17 16  1  0
 17 22  2  0
 22 21  1  0
 21 20  2  0
 20 19  1  0
 19 18  2  0
 18 17  1  0
M  END
$$$$
A71EV2A-x3522_A_201_1_A71EV2A-x0911+A+147+1_BLIG
     RDKit          3D

 22 23  0  0  0  0  0  0  0  0999 V2000
    6.1230   10.9680   26.5460 Cl  0  0  0  0  0  0  0  0  0  0  0  0
    7.3880   11.2260   25.3640 C   0  0  0  0  0  0  0  0  0  0  0  0
    8.0470   10.1230   24.8530 C   0  0  0  0  0  0  0  0  0  0  0  0
    9.1020   10.2740   23.9550 C   0  0  0  0  0  0  0  0  0  0  0  0
   10.0500    9.1370   23.6730 C   0  0  0  0  0  0  0  0  0  0  0  0
    9.3930   11.5430   23.4930 C   0  0  0  0  0  0  0  0  0  0  0  0
    8.7530   12.6440   24.0020 C   0  0  0  0  0  0  0  0  0  0  0  0
    7.7450   12.5260   24.9750 C   0  0  0  0  0  0  0  0  0  0  0  0
    7.1950   13.6850   25.6080 N   0  0  0  0  0  0  0  0  0  0  0  0
    7.9270   14.6580   26.1570 C   0  0  0  0  0  0  0  0  0  0  0  0
    9.1300   14.5770   26.3800 O   0  0  0  0  0  0  0  0  0  0  0  0
    7.1440   15.9050   26.4900 C   0  0  0  0  0  0  0  0  0  0  0  0
    7.8780   16.7780   27.3060 O   0  0  0  0  0  0  0  0  0  0  0  0
    8.2010   16.1700   28.5320 C   0  0  0  0  0  0  0  0  0  0  0  0
    9.0760   13.9210   23.6360 O   0  0  0  0  0  0  0  0  0  0  0  0
    8.9310   14.2660   22.2440 C   0  0  0  0  0  0  0  0  0  0  0  0
    7.4650   14.6480   22.1830 C   0  0  0  0  0  0  0  0  0  0  0  0
    6.5970   13.7550   21.6240 N   0  0  0  0  0  0  0  0  0  0  0  0
    5.2990   14.0440   21.7470 C   0  0  0  0  0  0  0  0  0  0  0  0
    4.8280   15.1640   22.3940 C   0  0  0  0  0  0  0  0  0  0  0  0
    5.7770   16.0140   22.9040 C   0  0  0  0  0  0  0  0  0  0  0  0
    7.0930   15.8040   22.7990 N   0  0  0  0  0  0  0  0  0  0  0  0
 14 13  1  0
 13 12  1  0
 12 10  1  0
 11 10  2  0
 10  9  1  0
  9  8  1  0
  8  2  2  0
  2  1  1  0
  3  2  1  0
  4  3  2  0
  5  4  1  0
  6  4  1  0
  7  6  2  0
  8  7  1  0
 15  7  1  0
 16 15  1  0
 17 16  1  0
 17 22  2  0
 22 21  1  0
 21 20  2  0
 20 19  1  0
 19 18  2  0
 18 17  1  0
M  END
$$$$
