A71EV2A-x4748_A_201_1_A71EV2A-x0911+A+147+1__LIG
     RDKit          3D

 20 21  0  0  0  0  0  0  0  0999 V2000
   10.3240   16.6110   19.0340 O   0  0  0  0  0  0  0  0  0  0  0  0
   10.7550   15.4770   19.2800 C   0  0  0  0  0  0  0  0  0  0  0  0
   11.2170   14.6560   18.3510 N   0  0  0  0  0  0  0  0  0  0  0  0
   10.7750   14.9770   20.7260 C   0  0  1  0  0  0  0  0  0  0  0  0
   11.7230   15.7180   21.5150 O   0  0  0  0  0  0  0  0  0  0  0  0
   11.8400   15.1740   22.8460 C   0  0  0  0  0  0  0  0  0  0  0  0
   10.5170   15.2480   23.5780 C   0  0  0  0  0  0  0  0  0  0  0  0
    9.4000   15.0360   21.3780 C   0  0  0  0  0  0  0  0  0  0  0  0
    9.4600   14.6060   22.7800 N   0  0  0  0  0  0  0  0  0  0  0  0
    8.5640   13.7190   23.2700 C   0  0  0  0  0  0  0  0  0  0  0  0
    7.6660   13.2580   22.5790 O   0  0  0  0  0  0  0  0  0  0  0  0
    8.7030   13.3330   24.7330 C   0  0  0  0  0  0  0  0  0  0  0  0
    7.7600   12.2160   25.1280 C   0  0  0  0  0  0  0  0  0  0  0  0
    7.9810   10.8780   24.7690 C   0  0  0  0  0  0  0  0  0  0  0  0
    9.2610   10.5850   23.5870 S   0  0  0  0  0  0  0  0  0  0  0  0
    9.3280    8.7880   23.4540 C   0  0  0  0  0  0  0  0  0  0  0  0
    6.6600   12.5060   25.9340 C   0  0  0  0  0  0  0  0  0  0  0  0
    5.8340   11.5030   26.4070 C   0  0  0  0  0  0  0  0  0  0  0  0
    6.0930   10.1880   26.0890 C   0  0  0  0  0  0  0  0  0  0  0  0
    7.1590    9.8670   25.2680 C   0  0  0  0  0  0  0  0  0  0  0  0
 16 15  1  0
 15 14  1  0
 14 20  2  0
 20 19  1  0
 19 18  2  0
 18 17  1  0
 17 13  2  0
 14 13  1  0
 13 12  1  0
 12 10  1  0
 11 10  2  0
 10  9  1  0
  9  7  1  0
  7  6  1  0
  6  5  1  0
  5  4  1  0
  4  2  1  6
  3  2  1  0
  2  1  2  0
  8  4  1  0
  9  8  1  0
M  END
$$$$
