A71EV2A-x3222_E_201_1_A71EV2A-x0911+A+147+1__LIG
     RDKit          3D

 17 18  0  0  0  0  0  0  0  0999 V2000
    9.2430   10.1260   23.6500 Br  0  0  0  0  0  0  0  0  0  0  0  0
    7.9800   11.2440   24.4980 C   0  0  0  0  0  0  0  0  0  0  0  0
    7.3890   10.9970   25.7690 C   0  0  0  0  0  0  0  0  0  0  0  0
    6.4920   11.9300   26.0680 N   0  0  0  0  0  0  0  0  0  0  0  0
    6.4900   12.8040   25.0090 N   0  0  0  0  0  0  0  0  0  0  0  0
    7.3650   12.4500   24.0400 C   0  0  0  0  0  0  0  0  0  0  0  0
    7.5150   13.2700   22.7850 C   0  0  0  0  0  0  0  0  0  0  0  0
    6.6440   13.1700   21.9300 O   0  0  0  0  0  0  0  0  0  0  0  0
    8.5400   14.1240   22.6700 N   0  0  0  0  0  0  0  0  0  0  0  0
    9.5370   14.3660   23.7270 C   0  0  0  0  0  0  0  0  0  0  0  0
   10.9630   14.1940   23.2240 C   0  0  0  0  0  0  0  0  0  0  0  0
   11.1950   14.9960   21.9410 C   0  0  0  0  0  0  0  0  0  0  0  0
    8.7710   14.9570   21.4860 C   0  0  0  0  0  0  0  0  0  0  0  0
   10.1380   14.6210   20.8900 C   0  0  1  0  0  0  0  0  0  0  0  0
   10.4270   15.2540   19.5390 C   0  0  0  0  0  0  0  0  0  0  0  0
    9.9950   16.3750   19.2570 O   0  0  0  0  0  0  0  0  0  0  0  0
   11.1450   14.5220   18.6890 N   0  0  0  0  0  0  0  0  0  0  0  0
 17 15  1  0
 16 15  2  0
 14 15  1  6
 14 12  1  0
 12 11  1  0
 11 10  1  0
 10  9  1  0
  9  7  1  0
  8  7  2  0
  7  6  1  0
  6  5  1  0
  5  4  1  0
  4  3  2  0
  3  2  1  0
  6  2  2  0
  2  1  1  0
 13  9  1  0
 14 13  1  0
M  END
$$$$
