XX01ZVNS2B-x4178_B_203_6_XX01ZVNS2B-x4590+B+203+1__LIG
     RDKit          3D

 28 32  0  0  0  0  0  0  0  0999 V2000
   -6.5630    5.6690  -12.8520 O   0  0  0  0  0  0  0  0  0  0  0  0
   -7.4210    4.9620  -13.3750 C   0  0  0  0  0  0  0  0  0  0  0  0
   -7.5050    4.8260  -14.8590 C   0  0  0  0  0  0  0  0  0  0  0  0
   -8.6030    4.2240  -15.4740 C   0  0  0  0  0  0  0  0  0  0  0  0
   -8.6570    4.0770  -16.8470 C   0  0  0  0  0  0  0  0  0  0  0  0
   -6.4430    5.2940  -15.6290 C   0  0  0  0  0  0  0  0  0  0  0  0
   -6.4700    5.1490  -17.0110 C   0  0  0  0  0  0  0  0  0  0  0  0
   -7.5890    4.5400  -17.6050 C   0  0  0  0  0  0  0  0  0  0  0  0
   -7.3520    4.5240  -18.9410 N   0  0  0  0  0  0  0  0  0  0  0  0
   -6.1450    5.0880  -19.2510 N   0  0  0  0  0  0  0  0  0  0  0  0
   -5.5970    5.4690  -18.1150 C   0  0  0  0  0  0  0  0  0  0  0  0
   -4.2600    6.1620  -18.0820 C   0  0  0  0  0  0  0  0  0  0  0  0
   -4.2390    7.4640  -17.2700 C   0  0  0  0  0  0  0  0  0  0  0  0
   -2.9110    8.2160  -17.5050 C   0  0  0  0  0  0  0  0  0  0  0  0
   -3.1050    5.2640  -17.6250 C   0  0  0  0  0  0  0  0  0  0  0  0
   -2.1210    6.0520  -16.7320 C   0  0  0  0  0  0  0  0  0  0  0  0
   -1.7440    7.3350  -17.3440 N   0  0  0  0  0  0  0  0  0  0  0  0
   -1.0400    7.1360  -18.6300 C   0  0  0  0  0  0  0  0  0  0  0  0
   -8.3200    4.2360  -12.6740 N   0  0  0  0  0  0  0  0  0  0  0  0
   -8.4250    4.1430  -11.2710 C   0  0  0  0  0  0  0  0  0  0  0  0
   -8.7420    2.9210  -10.6850 C   0  0  0  0  0  0  0  0  0  0  0  0
   -8.9010    2.8310   -9.3060 C   0  0  0  0  0  0  0  0  0  0  0  0
   -9.3040    1.6540   -8.4690 C   0  0  0  0  0  0  0  0  0  0  0  0
   -8.9750    2.1520   -7.1310 N   0  0  0  0  0  0  0  0  0  0  0  0
   -8.8990    3.6080   -7.0620 C   0  0  0  0  0  0  0  0  0  0  0  0
   -8.7170    3.9530   -8.5090 C   0  0  0  0  0  0  0  0  0  0  0  0
   -8.3930    5.1690   -9.0970 C   0  0  0  0  0  0  0  0  0  0  0  0
   -8.2500    5.2670  -10.4690 C   0  0  0  0  0  0  0  0  0  0  0  0
 18 17  1  0
 17 14  1  0
 14 13  1  0
 13 12  1  0
 12 11  1  0
 11 10  2  0
 10  9  1  0
  9  8  1  0
  8  5  1  0
  5  4  2  0
  4  3  1  0
  3  2  1  0
  2  1  2  0
 19  2  1  0
 20 19  1  0
 20 28  2  0
 28 27  1  0
 27 26  2  0
 26 22  1  0
 22 21  2  0
 21 20  1  0
 23 22  1  0
 24 23  1  0
 25 24  1  0
 26 25  1  0
  6  3  2  0
  7  6  1  0
 11  7  1  0
  8  7  2  0
 15 12  1  0
 16 15  1  0
 17 16  1  0
M  END
$$$$
