XX01ZVNS2B-x1719_B_301_1_XX01ZVNS2B-x4590+B+203+1__LIG
     RDKit          3D

 17 19  0  0  0  0  0  0  0  0999 V2000
   -4.1050    5.7380  -15.8800 N   0  0  0  0  0  0  0  0  0  0  0  0
   -5.3800    5.3290  -15.7990 C   0  0  0  0  0  0  0  0  0  0  0  0
   -5.9080    5.1770  -14.5880 N   0  0  0  0  0  0  0  0  0  0  0  0
   -7.1810    4.7800  -14.4520 C   0  0  0  0  0  0  0  0  0  0  0  0
   -7.9820    4.4880  -15.4870 N   0  0  0  0  0  0  0  0  0  0  0  0
   -7.4930    4.6240  -16.7550 C   0  0  0  0  0  0  0  0  0  0  0  0
   -8.3170    4.3330  -17.8610 C   0  0  0  0  0  0  0  0  0  0  0  0
   -7.8330    4.4710  -19.1280 C   0  0  0  0  0  0  0  0  0  0  0  0
   -6.5120    4.8950  -19.3570 C   0  0  0  0  0  0  0  0  0  0  0  0
   -5.6890    5.1810  -18.3130 C   0  0  0  0  0  0  0  0  0  0  0  0
   -6.1590    5.0570  -16.9820 C   0  0  0  0  0  0  0  0  0  0  0  0
   -7.7210    4.6020  -13.0750 C   0  0  0  0  0  0  0  0  0  0  0  0
   -8.2900    3.3910  -12.7170 C   0  0  0  0  0  0  0  0  0  0  0  0
   -8.7670    3.2370  -11.4290 C   0  0  0  0  0  0  0  0  0  0  0  0
   -8.6530    4.2830  -10.5430 C   0  0  0  0  0  0  0  0  0  0  0  0
   -8.0650    5.4530  -10.9760 C   0  0  0  0  0  0  0  0  0  0  0  0
   -7.5940    5.6340  -12.2190 N   0  0  0  0  0  0  0  0  0  0  0  0
  1  2  1  0
  2  3  2  0
  3  4  1  0
  4  5  2  0
  5  6  1  0
  6  7  2  0
  7  8  1  0
  8  9  2  0
  9 10  1  0
 10 11  2  0
  4 12  1  0
 12 13  2  0
 13 14  1  0
 14 15  2  0
 15 16  1  0
 16 17  2  0
  2 11  1  0
 12 17  1  0
  6 11  1  0
M  END
$$$$
