A71EV2A-x4447_A_201_1_A71EV2A-x0911+A+147+1__LIG
     RDKit          3D

 22 24  0  0  0  0  0  0  0  0999 V2000
   10.2630   16.6530   19.1000 O   0  0  0  0  0  0  0  0  0  0  0  0
   10.6260   15.5050   19.3630 C   0  0  0  0  0  0  0  0  0  0  0  0
   10.9550   14.6190   18.4360 N   0  0  0  0  0  0  0  0  0  0  0  0
   10.6710   15.0070   20.7970 C   0  0  1  0  0  0  0  0  0  0  0  0
   11.8440   15.6220   21.5680 C   0  0  0  0  0  0  0  0  0  0  0  0
   11.8410   15.1510   23.0200 C   0  0  0  0  0  0  0  0  0  0  0  0
   10.5040   15.4670   23.6760 C   0  0  0  0  0  0  0  0  0  0  0  0
    9.3590   15.3990   21.4750 C   0  0  0  0  0  0  0  0  0  0  0  0
    9.3720   14.9610   22.8720 N   0  0  0  0  0  0  0  0  0  0  0  0
    8.7140   13.7990   23.1350 C   0  0  0  0  0  0  0  0  0  0  0  0
    7.7260   13.4450   22.5000 O   0  0  0  0  0  0  0  0  0  0  0  0
    9.2580   13.0200   24.0850 N   0  0  0  0  0  0  0  0  0  0  0  0
    8.6640   11.8020   24.4190 C   0  0  0  0  0  0  0  0  0  0  0  0
    9.0740   10.5610   23.9260 C   0  0  0  0  0  0  0  0  0  0  0  0
    8.4010    9.3950   24.2770 C   0  0  0  0  0  0  0  0  0  0  0  0
    7.3170    9.4300   25.1440 C   0  0  0  0  0  0  0  0  0  0  0  0
    6.9350   10.6630   25.6480 C   0  0  0  0  0  0  0  0  0  0  0  0
    5.9590   11.0270   26.5460 N   0  0  0  0  0  0  0  0  0  0  0  0
    5.1840   10.1200   27.3810 C   0  0  0  0  0  0  0  0  0  0  0  0
    7.5600   11.8440   25.2840 C   0  0  0  0  0  0  0  0  0  0  0  0
    6.9520   12.9290   25.8980 N   0  0  0  0  0  0  0  0  0  0  0  0
    6.0080   12.3830   26.6260 C   0  0  0  0  0  0  0  0  0  0  0  0
 19 18  1  0
 18 22  1  0
 22 21  2  0
 21 20  1  0
 20 13  1  0
 13 12  1  0
 12 10  1  0
 11 10  2  0
 10  9  1  0
  9  7  1  0
  7  6  1  0
  6  5  1  0
  5  4  1  0
  4  2  1  6
  3  2  1  0
  2  1  2  0
  8  4  1  0
  9  8  1  0
 14 13  2  0
 15 14  1  0
 16 15  2  0
 17 16  1  0
 20 17  2  0
 18 17  1  0
M  END
$$$$
