XX01ZVNS2B-x1743_B_301_1_XX01ZVNS2B-x4590+B+203+1__LIG
     RDKit          3D

 22 24  0  0  0  0  0  0  0  0999 V2000
   -3.0300    5.5160  -15.4220 C   0  0  0  0  0  0  0  0  0  0  0  0
   -4.3390    5.3070  -16.1230 C   0  0  0  0  0  0  0  0  0  0  0  0
   -4.4250    5.4170  -17.5320 C   0  0  0  0  0  0  0  0  0  0  0  0
   -5.6230    5.2260  -18.1700 C   0  0  0  0  0  0  0  0  0  0  0  0
   -6.7690    4.9220  -17.3740 C   0  0  0  0  0  0  0  0  0  0  0  0
   -8.0580    4.7020  -17.9210 C   0  0  0  0  0  0  0  0  0  0  0  0
   -9.1170    4.4070  -17.1160 C   0  0  0  0  0  0  0  0  0  0  0  0
   -8.9570    4.3180  -15.7250 C   0  0  0  0  0  0  0  0  0  0  0  0
   -7.7300    4.5350  -15.1470 C   0  0  0  0  0  0  0  0  0  0  0  0
   -6.5960    4.8300  -15.9650 C   0  0  0  0  0  0  0  0  0  0  0  0
   -5.3860    5.0250  -15.3680 N   0  0  0  0  0  0  0  0  0  0  0  0
   -7.4960    4.4420  -13.7710 N   0  0  0  0  0  0  0  0  0  0  0  0
   -7.4560    3.2820  -13.0780 C   0  0  0  0  0  0  0  0  0  0  0  0
   -7.5450    2.1810  -13.6120 O   0  0  0  0  0  0  0  0  0  0  0  0
   -7.3100    3.4330  -11.5710 C   0  0  0  0  0  0  0  0  0  0  0  0
   -6.1670    2.5470  -11.0610 C   0  0  0  0  0  0  0  0  0  0  0  0
   -6.1380    2.4670   -9.5500 C   0  0  0  0  0  0  0  0  0  0  0  0
   -7.4370    2.0020   -9.0560 N   0  0  0  0  0  0  0  0  0  0  0  0
   -8.4920    2.9640   -9.3860 C   0  0  0  0  0  0  0  0  0  0  0  0
   -8.6360    3.0820  -10.8880 C   0  0  0  0  0  0  0  0  0  0  0  0
   -5.7570    5.3390  -19.6710 C   0  0  0  0  0  0  0  0  0  0  0  0
   -4.5370    5.1410  -20.3750 O   0  0  0  0  0  0  0  0  0  0  0  0
  1  2  1  0
  2  3  2  0
  3  4  1  0
  4  5  2  0
  5  6  1  0
  6  7  2  0
  7  8  1  0
  8  9  2  0
  9 10  1  0
 10 11  2  0
  9 12  1  0
 12 13  1  0
 13 14  2  0
 13 15  1  0
 15 16  1  0
 16 17  1  0
 17 18  1  0
 18 19  1  0
 19 20  1  0
  4 21  1  0
 21 22  1  0
  2 11  1  0
 15 20  1  0
  5 10  1  0
M  END
$$$$
