A71EV2A-x4583_C_201_1_A71EV2A-x0911+A+147+1__LIG
     RDKit          3D

 21 23  0  0  0  0  0  0  0  0999 V2000
   10.2970   16.7560   19.2870 O   0  0  0  0  0  0  0  0  0  0  0  0
   10.6390   15.5850   19.5090 C   0  0  0  0  0  0  0  0  0  0  0  0
   10.8930   14.7020   18.5490 N   0  0  0  0  0  0  0  0  0  0  0  0
   10.6970   15.0460   20.9270 C   0  0  1  0  0  0  0  0  0  0  0  0
   11.7100   15.8300   21.7810 C   0  0  0  0  0  0  0  0  0  0  0  0
   11.6970   15.3370   23.2360 C   0  0  0  0  0  0  0  0  0  0  0  0
   10.2770   15.3830   23.8070 C   0  0  0  0  0  0  0  0  0  0  0  0
    9.3140   15.2130   21.5630 C   0  0  0  0  0  0  0  0  0  0  0  0
    9.3350   14.6760   22.9240 N   0  0  0  0  0  0  0  0  0  0  0  0
    8.5140   13.6600   23.2760 C   0  0  0  0  0  0  0  0  0  0  0  0
    7.6600   13.2370   22.5070 O   0  0  0  0  0  0  0  0  0  0  0  0
    8.6000   13.1080   24.7040 C   0  0  2  0  0  0  0  0  0  0  0  0
    8.1570   11.7010   24.7320 N   0  0  0  0  0  0  0  0  0  0  0  0
    9.0980   10.6640   24.3220 C   0  0  0  0  0  0  0  0  0  0  0  0
    7.6220   13.8570   25.6310 C   0  0  0  0  0  0  0  0  0  0  0  0
    6.9430   12.7370   26.3670 C   0  0  0  0  0  0  0  0  0  0  0  0
    7.2850   11.5190   25.8040 C   0  0  0  0  0  0  0  0  0  0  0  0
    6.0670   12.7730   27.4470 C   0  0  0  0  0  0  0  0  0  0  0  0
    5.5470   11.5910   27.9490 C   0  0  0  0  0  0  0  0  0  0  0  0
    5.9020   10.3750   27.3860 C   0  0  0  0  0  0  0  0  0  0  0  0
    6.7740   10.3260   26.3080 C   0  0  0  0  0  0  0  0  0  0  0  0
 14 13  1  0
 13 17  1  0
 17 21  2  0
 21 20  1  0
 20 19  2  0
 19 18  1  0
 18 16  2  0
 17 16  1  0
 16 15  1  0
 15 12  1  0
 13 12  1  0
 12 10  1  6
 11 10  2  0
 10  9  1  0
  9  7  1  0
  7  6  1  0
  6  5  1  0
  5  4  1  0
  4  2  1  6
  3  2  1  0
  2  1  2  0
  8  4  1  0
  9  8  1  0
M  END
$$$$
