A71EV2A-x1778_A_201_1_A71EV2A-x0911+A+147+1__LIG
     RDKit          3D

 17 18  0  0  0  0  0  0  0  0999 V2000
    6.6850   10.5040   25.8550 O   0  0  0  0  0  0  0  0  0  0  0  0
    6.9430   11.6980   25.9680 C   0  0  0  0  0  0  0  0  0  0  0  0
    5.9540   12.6420   26.5900 C   0  0  0  0  0  0  0  0  0  0  0  0
    8.1210   12.2450   25.5040 N   0  0  0  0  0  0  0  0  0  0  0  0
    9.1200   11.5780   24.7420 C   0  0  0  0  0  0  0  0  0  0  0  0
    9.1210   10.2680   24.2860 C   0  0  0  0  0  0  0  0  0  0  0  0
   10.1880    9.8610   23.5180 C   0  0  0  0  0  0  0  0  0  0  0  0
    8.4490   13.6790   25.5650 C   0  0  0  0  0  0  0  0  0  0  0  0
    9.8860   13.7990   25.0680 C   0  0  0  0  0  0  0  0  0  0  0  0
   10.1500   12.4620   24.4250 C   0  0  0  0  0  0  0  0  0  0  0  0
   11.2340   12.0360   23.6710 C   0  0  0  0  0  0  0  0  0  0  0  0
   11.2460   10.7270   23.1850 C   0  0  0  0  0  0  0  0  0  0  0  0
   12.3480   10.2250   22.3010 C   0  0  0  0  0  0  0  0  0  0  0  0
   12.1710    9.2050   21.6400 O   0  0  0  0  0  0  0  0  0  0  0  0
   13.7040   10.8560   22.2240 C   0  0  2  0  0  0  0  0  0  0  0  0
   14.2760   10.9760   20.8460 C   0  0  0  0  0  0  0  0  0  0  0  0
   14.7500   10.2170   23.5380 S   0  0  0  0  0  0  0  0  0  0  0  0
 15 16  1  6
 15 13  1  0
 14 13  2  0
 13 12  1  0
 12  7  1  0
  7  6  2  0
  6  5  1  0
  5 10  2  0
 11 10  1  0
 12 11  2  0
 10  9  1  0
  9  8  1  0
  8  4  1  0
  5  4  1  0
  4  2  1  0
  3  2  1  0
  2  1  2  0
 17 15  1  0
M  END
$$$$
