A71EV2A-x4334_C_201_1_A71EV2A-x0911+A+147+1__LIG
     RDKit          3D

 20 21  0  0  0  0  0  0  0  0999 V2000
   10.4160   16.8520   19.0590 O   0  0  0  0  0  0  0  0  0  0  0  0
   10.7550   15.6870   19.3220 C   0  0  0  0  0  0  0  0  0  0  0  0
   10.9920   14.7630   18.3980 N   0  0  0  0  0  0  0  0  0  0  0  0
   10.8720   15.2200   20.7600 C   0  0  1  0  0  0  0  0  0  0  0  0
   12.0560   15.8990   21.4770 C   0  0  0  0  0  0  0  0  0  0  0  0
   12.1300   15.4630   22.9430 C   0  0  0  0  0  0  0  0  0  0  0  0
   10.7890   15.6580   23.6440 C   0  0  0  0  0  0  0  0  0  0  0  0
    9.5760   15.5320   21.5070 C   0  0  0  0  0  0  0  0  0  0  0  0
    9.7020   15.0290   22.8730 N   0  0  0  0  0  0  0  0  0  0  0  0
    8.9530   13.9700   23.2580 C   0  0  0  0  0  0  0  0  0  0  0  0
    8.0230   13.5310   22.5740 O   0  0  0  0  0  0  0  0  0  0  0  0
    9.3310   13.3360   24.5830 C   0  0  0  0  0  0  0  0  0  0  0  0
    8.6910   11.9730   24.6990 C   0  0  0  0  0  0  0  0  0  0  0  0
    9.1920   10.8860   23.9900 C   0  0  0  0  0  0  0  0  0  0  0  0
    8.6290    9.6300   24.1360 C   0  0  0  0  0  0  0  0  0  0  0  0
    7.5510    9.4460   24.9800 C   0  0  0  0  0  0  0  0  0  0  0  0
    7.6040   11.7800   25.5420 C   0  0  0  0  0  0  0  0  0  0  0  0
    7.0400   10.5190   25.6920 C   0  0  0  0  0  0  0  0  0  0  0  0
    5.6970   10.2340   26.7930 S   0  0  0  0  0  0  0  0  0  0  0  0
    5.3260   11.8630   27.4590 C   0  0  0  0  0  0  0  0  0  0  0  0
 20 19  1  0
 19 18  1  0
 18 16  2  0
 16 15  1  0
 15 14  2  0
 14 13  1  0
 13 12  1  0
 12 10  1  0
 11 10  2  0
 10  9  1  0
  9  7  1  0
  7  6  1  0
  6  5  1  0
  5  4  1  0
  4  2  1  6
  3  2  1  0
  2  1  2  0
  8  4  1  0
  9  8  1  0
 17 13  2  0
 18 17  1  0
M  END
$$$$
