A71EV2A-x4943_A_201_1_A71EV2A-x0911+A+147+1__LIG
     RDKit          3D

 21 23  0  0  0  0  0  0  0  0999 V2000
    7.1340   13.5700   22.1050 O   0  0  0  0  0  0  0  0  0  0  0  0
    7.8980   13.9360   22.9780 C   0  0  0  0  0  0  0  0  0  0  0  0
    8.8490   14.8900   22.7510 N   0  0  0  0  0  0  0  0  0  0  0  0
    9.8000   15.4690   23.7180 C   0  0  0  0  0  0  0  0  0  0  0  0
   11.2420   15.2550   23.2700 C   0  0  0  0  0  0  0  0  0  0  0  0
   11.4420   15.7920   21.8350 C   0  0  0  0  0  0  0  0  0  0  0  0
    9.0060   15.4240   21.3920 C   0  0  0  0  0  0  0  0  0  0  0  0
   10.4220   15.1270   20.8860 C   0  0  1  0  0  0  0  0  0  0  0  0
   10.5620   15.6160   19.4530 C   0  0  0  0  0  0  0  0  0  0  0  0
   10.2830   16.7840   19.1420 O   0  0  0  0  0  0  0  0  0  0  0  0
   10.9000   14.6840   18.5560 N   0  0  0  0  0  0  0  0  0  0  0  0
    7.7330   13.3620   24.3840 C   0  0  2  0  0  0  0  0  0  0  0  0
    7.9840   11.8660   24.2990 C   0  0  0  0  0  0  0  0  0  0  0  0
    8.9910   11.3950   23.4560 C   0  0  0  0  0  0  0  0  0  0  0  0
    9.1960   10.0360   23.2560 C   0  0  0  0  0  0  0  0  0  0  0  0
    8.3960    9.1250   23.9070 C   0  0  0  0  0  0  0  0  0  0  0  0
    7.4300    9.5600   24.7940 C   0  0  0  0  0  0  0  0  0  0  0  0
    7.2170   10.9240   24.9980 C   0  0  0  0  0  0  0  0  0  0  0  0
    5.9630   11.3090   26.1990 S   0  0  0  0  0  0  0  0  0  0  0  0
    6.0250   13.1050   26.2790 C   0  0  0  0  0  0  0  0  0  0  0  0
    6.3030   13.6740   24.8920 C   0  0  0  0  0  0  0  0  0  0  0  0
 11  9  1  0
 10  9  2  0
  8  9  1  6
  8  6  1  0
  6  5  1  0
  5  4  1  0
  4  3  1  0
  3  2  1  0
  2  1  2  0
 12  2  1  6
 12 21  1  0
 21 20  1  0
 20 19  1  0
 19 18  1  0
 18 17  1  0
 17 16  2  0
 16 15  1  0
 15 14  2  0
 14 13  1  0
 18 13  2  0
 13 12  1  0
  7  3  1  0
  8  7  1  0
M  END
$$$$
