XX01ZVNS2B-x3397_B_203_1_XX01ZVNS2B-x4590+B+203+1__LIG
     RDKit          3D

 27 30  0  0  0  0  0  0  0  0999 V2000
   -4.2740    4.0370  -11.5570 C   0  0  0  0  0  0  0  0  0  0  0  0
   -4.5860    3.4160  -12.9050 C   0  0  0  0  0  0  0  0  0  0  0  0
   -3.4490    2.5550  -13.4160 C   0  0  0  0  0  0  0  0  0  0  0  0
   -5.7910    2.5950  -12.7990 N   0  0  0  0  0  0  0  0  0  0  0  0
   -6.9140    2.8360  -13.4750 C   0  0  0  0  0  0  0  0  0  0  0  0
   -7.6280    1.9480  -13.9200 O   0  0  0  0  0  0  0  0  0  0  0  0
   -7.3060    4.3180  -13.6130 C   0  0  2  0  0  0  0  0  0  0  0  0
   -8.4090    4.6870  -12.7430 N   0  0  0  0  0  0  0  0  0  0  0  0
   -8.5520    4.1880  -11.4490 C   0  0  0  0  0  0  0  0  0  0  0  0
   -8.9890    2.8650  -11.2720 C   0  0  0  0  0  0  0  0  0  0  0  0
   -9.1070    2.3160  -10.0090 C   0  0  0  0  0  0  0  0  0  0  0  0
   -8.7900    3.0950   -8.9090 C   0  0  0  0  0  0  0  0  0  0  0  0
   -8.3980    4.4190   -9.0650 C   0  0  0  0  0  0  0  0  0  0  0  0
   -8.2460    4.9790  -10.3300 C   0  0  0  0  0  0  0  0  0  0  0  0
   -8.1590    5.0160   -7.7070 C   0  0  0  0  0  0  0  0  0  0  0  0
   -8.0530    3.8110   -6.8640 N   0  0  0  0  0  0  0  0  0  0  0  0
   -8.9030    2.7680   -7.4480 C   0  0  0  0  0  0  0  0  0  0  0  0
   -7.4530    4.6140  -15.1000 C   0  0  0  0  0  0  0  0  0  0  0  0
   -8.6360    4.3620  -15.7950 C   0  0  0  0  0  0  0  0  0  0  0  0
   -8.7050    4.5310  -17.1850 C   0  0  0  0  0  0  0  0  0  0  0  0
  -10.2100    4.2460  -18.0230 Cl  0  0  0  0  0  0  0  0  0  0  0  0
   -7.6110    4.9150  -17.9380 C   0  0  0  0  0  0  0  0  0  0  0  0
   -6.4200    5.1280  -17.2510 C   0  0  0  0  0  0  0  0  0  0  0  0
   -5.1950    5.4830  -17.7040 N   0  0  0  0  0  0  0  0  0  0  0  0
   -4.2980    5.5620  -16.6820 N   0  0  0  0  0  0  0  0  0  0  0  0
   -4.9530    5.2480  -15.5770 C   0  0  0  0  0  0  0  0  0  0  0  0
   -6.3130    4.9710  -15.8590 C   0  0  0  0  0  0  0  0  0  0  0  0
  1  2  1  0
  2  3  1  0
  2  4  1  0
  4  5  1  0
  5  6  2  0
  5  7  1  0
  7  8  1  1
  8  9  1  0
  9 10  2  0
 10 11  1  0
 11 12  2  0
 12 13  1  0
 13 14  2  0
 13 15  1  0
 15 16  1  0
 16 17  1  0
  7 18  1  0
 18 19  2  0
 19 20  1  0
 20 21  1  0
 20 22  2  0
 22 23  1  0
 23 24  1  0
 24 25  1  0
 25 26  2  0
 26 27  1  0
  9 14  1  0
 18 27  1  0
 12 17  1  0
 23 27  2  0
M  END
$$$$
