XX01ZVNS2B-x1731_B_301_1_XX01ZVNS2B-x4590+B+203+1__LIG
     RDKit          3D

 22 24  0  0  0  0  0  0  0  0999 V2000
   -2.9810    5.5080  -15.5130 C   0  0  0  0  0  0  0  0  0  0  0  0
   -4.2910    5.2580  -16.1990 C   0  0  0  0  0  0  0  0  0  0  0  0
   -4.3980    5.3410  -17.6140 C   0  0  0  0  0  0  0  0  0  0  0  0
   -5.6030    5.1020  -18.2280 C   0  0  0  0  0  0  0  0  0  0  0  0
   -6.7240    4.7700  -17.4090 C   0  0  0  0  0  0  0  0  0  0  0  0
   -8.0130    4.5020  -17.9400 C   0  0  0  0  0  0  0  0  0  0  0  0
   -9.0520    4.1870  -17.1170 C   0  0  0  0  0  0  0  0  0  0  0  0
   -8.8740    4.1320  -15.7250 C   0  0  0  0  0  0  0  0  0  0  0  0
   -7.6480    4.3970  -15.1650 C   0  0  0  0  0  0  0  0  0  0  0  0
   -6.5310    4.7080  -16.0010 C   0  0  0  0  0  0  0  0  0  0  0  0
   -5.3230    4.9600  -15.4240 N   0  0  0  0  0  0  0  0  0  0  0  0
   -7.4050    4.3410  -13.7880 N   0  0  0  0  0  0  0  0  0  0  0  0
   -7.3950    3.1980  -13.0760 C   0  0  0  0  0  0  0  0  0  0  0  0
   -7.4840    2.0900  -13.5970 O   0  0  0  0  0  0  0  0  0  0  0  0
   -7.3020    3.3810  -11.5680 C   0  0  0  0  0  0  0  0  0  0  0  0
   -6.3000    2.3830  -10.9740 C   0  0  0  0  0  0  0  0  0  0  0  0
   -6.3360    2.3800   -9.4590 C   0  0  0  0  0  0  0  0  0  0  0  0
   -7.6980    2.1000   -8.9920 N   0  0  0  0  0  0  0  0  0  0  0  0
   -8.6210    3.1570   -9.4200 C   0  0  0  0  0  0  0  0  0  0  0  0
   -8.6870    3.2140  -10.9320 C   0  0  0  0  0  0  0  0  0  0  0  0
   -5.8010    5.1690  -19.7240 C   0  0  0  0  0  0  0  0  0  0  0  0
   -4.6130    5.4220  -20.4600 O   0  0  0  0  0  0  0  0  0  0  0  0
  1  2  1  0
  2  3  2  0
  3  4  1  0
  4  5  2  0
  5  6  1  0
  6  7  2  0
  7  8  1  0
  8  9  2  0
  9 10  1  0
 10 11  2  0
  9 12  1  0
 12 13  1  0
 13 14  2  0
 13 15  1  0
 15 16  1  0
 16 17  1  0
 17 18  1  0
 18 19  1  0
 19 20  1  0
  4 21  1  0
 21 22  1  0
  2 11  1  0
 15 20  1  0
  5 10  1  0
M  END
$$$$
