XX01ZVNS2B-x3706_B_203_5_XX01ZVNS2B-x4590+B+203+1__LIG
     RDKit          3D

 24 27  0  0  0  0  0  0  0  0999 V2000
  -10.4200    3.8960  -17.6980 F   0  0  0  0  0  0  0  0  0  0  0  0
   -9.1740    4.1070  -17.1880 C   0  0  0  0  0  0  0  0  0  0  0  0
   -9.0200    4.1580  -15.8170 C   0  0  0  0  0  0  0  0  0  0  0  0
   -8.1520    4.3130  -18.0760 C   0  0  0  0  0  0  0  0  0  0  0  0
   -6.9040    4.6120  -17.5470 C   0  0  0  0  0  0  0  0  0  0  0  0
   -6.6800    4.7070  -16.1580 C   0  0  0  0  0  0  0  0  0  0  0  0
   -5.3100    5.0470  -16.0500 C   0  0  0  0  0  0  0  0  0  0  0  0
   -4.7380    5.1400  -17.2340 N   0  0  0  0  0  0  0  0  0  0  0  0
   -5.7170    4.8750  -18.1480 N   0  0  0  0  0  0  0  0  0  0  0  0
   -7.7630    4.4670  -15.2900 C   0  0  0  0  0  0  0  0  0  0  0  0
   -7.5710    4.5760  -13.8000 C   0  0  0  0  0  0  0  0  0  0  0  0
   -6.5580    5.0950  -13.3410 O   0  0  0  0  0  0  0  0  0  0  0  0
   -8.5460    4.0580  -13.0100 N   0  0  0  0  0  0  0  0  0  0  0  0
   -8.5660    4.0160  -11.5780 C   0  0  0  0  0  0  0  0  0  0  0  0
   -8.4990    5.2290  -10.8650 C   0  0  0  0  0  0  0  0  0  0  0  0
   -8.5930    6.4840  -11.5610 C   0  0  0  0  0  0  0  0  0  0  0  0
   -8.6730    7.4970  -12.0780 N   0  0  0  0  0  0  0  0  0  0  0  0
   -8.6580    2.8190  -10.8600 C   0  0  0  0  0  0  0  0  0  0  0  0
   -8.6970    2.8270   -9.4650 C   0  0  0  0  0  0  0  0  0  0  0  0
   -8.9790    1.6980   -8.5200 C   0  0  0  0  0  0  0  0  0  0  0  0
   -8.7700    2.3280   -7.2210 N   0  0  0  0  0  0  0  0  0  0  0  0
   -8.6310    3.7840   -7.2930 C   0  0  0  0  0  0  0  0  0  0  0  0
   -8.5830    4.0240   -8.7720 C   0  0  0  0  0  0  0  0  0  0  0  0
   -8.4740    5.2160   -9.4710 C   0  0  0  0  0  0  0  0  0  0  0  0
 17 16  3  0
 16 15  1  0
 15 24  2  0
 24 23  1  0
 23 19  2  0
 19 18  1  0
 18 14  2  0
 15 14  1  0
 14 13  1  0
 13 11  1  0
 12 11  2  0
 11 10  1  0
 10  3  1  0
  3  2  2  0
  2  1  1  0
  4  2  1  0
  5  4  2  0
  5  9  1  0
  9  8  1  0
  8  7  2  0
  7  6  1  0
 10  6  2  0
  6  5  1  0
 20 19  1  0
 21 20  1  0
 22 21  1  0
 23 22  1  0
M  END
$$$$
