A71EV2A-x4322_A_201_1_A71EV2A-x0911+A+147+1__LIG
     RDKit          3D

 22 23  0  0  0  0  0  0  0  0999 V2000
   10.2430   16.5710   18.7840 O   0  0  0  0  0  0  0  0  0  0  0  0
   10.6470   15.4610   19.1510 C   0  0  0  0  0  0  0  0  0  0  0  0
   11.1500   14.5600   18.3170 N   0  0  0  0  0  0  0  0  0  0  0  0
   10.5000   15.0190   20.5950 C   0  0  1  0  0  0  0  0  0  0  0  0
   11.7140   15.4090   21.4670 C   0  0  0  0  0  0  0  0  0  0  0  0
   11.6100   14.7520   22.8470 C   0  0  0  0  0  0  0  0  0  0  0  0
   10.2540   15.0360   23.5010 C   0  0  0  0  0  0  0  0  0  0  0  0
    9.2240   15.4630   21.2940 C   0  0  0  0  0  0  0  0  0  0  0  0
    9.1370   14.7660   22.5800 N   0  0  0  0  0  0  0  0  0  0  0  0
    8.1150   13.9200   22.8240 C   0  0  0  0  0  0  0  0  0  0  0  0
    7.2690   13.6650   21.9820 O   0  0  0  0  0  0  0  0  0  0  0  0
    7.9870   13.4060   24.2450 C   0  0  0  0  0  0  0  0  0  0  0  0
    8.3860   11.9520   24.3450 C   0  0  0  0  0  0  0  0  0  0  0  0
    9.4330   11.4660   23.5650 C   0  0  0  0  0  0  0  0  0  0  0  0
    9.6720   10.1040   23.4660 C   0  0  0  0  0  0  0  0  0  0  0  0
    8.8590    9.2170   24.1190 C   0  0  0  0  0  0  0  0  0  0  0  0
    7.8430    9.6740   24.9440 C   0  0  0  0  0  0  0  0  0  0  0  0
    7.6260   11.0400   25.0880 C   0  0  0  0  0  0  0  0  0  0  0  0
    6.6870   11.5480   26.0210 N   0  0  0  0  0  0  0  0  0  0  0  0
    5.4550   11.0590   26.3390 C   0  0  0  0  0  0  0  0  0  0  0  0
    5.0130   10.0030   25.8760 O   0  0  0  0  0  0  0  0  0  0  0  0
    4.6410   11.9330   27.2540 C   0  0  0  0  0  0  0  0  0  0  0  0
 22 20  1  0
 21 20  2  0
 20 19  1  0
 19 18  1  0
 18 17  1  0
 17 16  2  0
 16 15  1  0
 15 14  2  0
 14 13  1  0
 18 13  2  0
 13 12  1  0
 12 10  1  0
 11 10  2  0
 10  9  1  0
  9  7  1  0
  7  6  1  0
  6  5  1  0
  5  4  1  0
  4  2  1  6
  3  2  1  0
  2  1  2  0
  8  4  1  0
  9  8  1  0
M  END
$$$$
