ver_1.2
     RDKit          3D

 19 21  0  0  0  0  0  0  0  0999 V2000
   -1.2975    0.2325    0.0642 O   0  0  0  0  0  0  0  0  0  0  0  0
   -1.4541   -0.9826    0.4100 C   0  0  0  0  0  0  0  0  0  0  0  0
   -2.8313   -1.4775    0.6703 C   0  0  0  0  0  0  0  0  0  0  0  0
   -3.8073   -0.3923    0.4631 C   0  0  0  0  0  0  0  0  0  0  0  0
   -4.2359    0.4850    1.4225 C   0  0  0  0  0  0  0  0  0  0  0  0
   -5.1036    1.3262    0.9142 O   0  0  0  0  0  0  0  0  0  0  0  0
   -5.2373    1.0042   -0.3476 C   0  0  0  0  0  0  0  0  0  0  0  0
   -4.4615   -0.0416   -0.6631 N   0  0  0  0  0  0  0  0  0  0  0  0
   -0.3190   -1.8025    0.5303 N   0  0  0  0  0  0  0  0  0  0  0  0
    0.9919   -1.3019    0.2744 C   0  0  0  0  0  0  0  0  0  0  0  0
    2.1023   -2.1424    0.4026 C   0  0  0  0  0  0  0  0  0  0  0  0
    3.3687   -1.6514    0.1534 C   0  0  0  0  0  0  0  0  0  0  0  0
    3.5631   -0.3311   -0.2244 C   0  0  0  0  0  0  0  0  0  0  0  0
    2.4757    0.5082   -0.3543 C   0  0  0  0  0  0  0  0  0  0  0  0
    1.1994    0.0229   -0.1058 C   0  0  0  0  0  0  0  0  0  0  0  0
    2.9087    1.8698   -0.7651 C   0  0  0  0  0  0  0  0  0  0  0  0
    3.0473    2.6252    0.3836 F   0  0  0  0  0  0  0  0  0  0  0  0
    4.2751    1.6102   -1.3502 C   0  0  0  0  0  0  0  0  0  0  0  0
    4.8153    0.4392   -0.5485 C   0  0  0  0  0  0  0  0  0  0  0  0
  1  2  2  0
  2  3  1  0
  3  4  1  0
  4  5  2  0
  5  6  1  0
  6  7  1  0
  7  8  2  0
  2  9  1  0
  9 10  1  0
 10 11  2  0
 11 12  1  0
 12 13  2  0
 13 14  1  0
 14 15  2  0
 14 16  1  0
 16 17  1  0
 16 18  1  0
 18 19  1  0
  8  4  1  0
 15 10  1  0
 19 13  1  0
M  END
>  <ref_url>  (1) 
https://github.com/mwinokan/BulkDock

>  <submitter_name>  (1) 
Max Winokan

>  <submitter_email>  (1) 
max.winokan@diamond.ac.uk

>  <submitter_institution>  (1) 
DLS

>  <generation_date>  (1) 
2025-08-28

>  <method>  (1) 
openbind_a71ev2a_c1_fragmenstein

>  <HIPPO Pose ID>  (1) 
HIPPO Pose ID

>  <HIPPO Compound ID>  (1) 
HIPPO Compound ID

>  <smiles>  (1) 
smiles

>  <ref_pdb>  (1) 
protein reference

>  <ref_mols>  (1) 
fragment inspirations

>  <alias>  (1) 
alias

>  <distance_score>  (1) 
distance_score

>  <energy_score>  (1) 
energy_score

$$$$
O=C(Cc1cocn1)Nc1ccc2c(c1)[C@@H](F)CC2
     RDKit          3D

 19 21  0  0  0  0  0  0  0  0999 V2000
    4.9686   13.6363   27.7935 O   0  0  0  0  0  0  0  0  0  0  0  0
    4.5991   12.5429   27.5896 C   0  0  0  0  0  0  0  0  0  0  0  0
    3.3084   12.0020   28.2067 C   0  0  0  0  0  0  0  0  0  0  0  0
    3.4896   10.6664   28.8259 C   0  0  0  0  0  0  0  0  0  0  0  0
    3.7945   10.3155   30.1204 C   0  0  0  0  0  0  0  0  0  0  0  0
    3.9044    8.9575   30.1749 O   0  0  0  0  0  0  0  0  0  0  0  0
    3.6473    8.5531   28.9006 C   0  0  0  0  0  0  0  0  0  0  0  0
    3.3981    9.5273   28.0532 N   0  0  0  0  0  0  0  0  0  0  0  0
    5.1863   11.4329   26.6589 N   0  0  0  0  0  0  0  0  0  0  0  0
    6.3510   11.4155   25.8980 C   0  0  0  0  0  0  0  0  0  0  0  0
    7.0670   12.5904   25.6415 C   0  0  0  0  0  0  0  0  0  0  0  0
    8.2565   12.5479   24.9136 C   0  0  0  0  0  0  0  0  0  0  0  0
    8.7277   11.3155   24.4964 C   0  0  0  0  0  0  0  0  0  0  0  0
    8.0264   10.1384   24.7545 C   0  0  0  0  0  0  0  0  0  0  0  0
    6.8149   10.1827   25.4206 C   0  0  0  0  0  0  0  0  0  0  0  0
    8.7629    8.9503   24.2229 C   0  0  1  0  0  0  0  0  0  0  0  0
    8.2843    8.4835   23.0513 F   0  0  0  0  0  0  0  0  0  0  0  0
   10.1588    9.5295   23.9841 C   0  0  0  0  0  0  0  0  0  0  0  0
    9.9643   11.0294   23.7172 C   0  0  0  0  0  0  0  0  0  0  0  0
  1  2  2  0
  2  3  1  0
  3  4  1  0
  4  5  2  0
  5  6  1  0
  6  7  1  0
  7  8  2  0
  2  9  1  0
  9 10  1  0
 10 11  2  0
 11 12  1  0
 12 13  2  0
 13 14  1  0
 14 15  2  0
 14 16  1  0
 16 17  1  6
 16 18  1  0
 18 19  1  0
  8  4  1  0
 15 10  1  0
 19 13  1  0
M  END
>  <ref_pdb>  (1) 
A5666a

>  <tags>  (1) 
{'fragmenstein_placed', 'openbind_a71ev2a_c1_fragmenstein'}

>  <distance_score>  (1) 
0.866845

>  <energy_score>  (1) 
-36.137662

>  <inchikey>  (1) 
DJFOQNYEAKBIRI-UHFFFAOYSA-N

>  <alias>  (1) 
O=C(Cc1cocn1)Nc1ccc2c(c1)[C@@H](F)CC2

>  <smiles>  (1) 
C139485-P4

>  <HIPPO Pose ID>  (1) 
33051

>  <ref_mols>  (1) 
A5512a,A5151a

>  <HIPPO Compound ID>  (1) 
139485

$$$$
COc1cc(NCc2cc(C)no2)c(O)cc1-c1nnco1
     RDKit          3D

 22 24  0  0  0  0  0  0  0  0999 V2000
    5.6992   13.1317   26.5091 C   0  0  0  0  0  0  0  0  0  0  0  0
    7.1204   13.0670   26.4617 O   0  0  0  0  0  0  0  0  0  0  0  0
    7.6540   12.0739   25.6880 C   0  0  0  0  0  0  0  0  0  0  0  0
    8.7801   12.4746   24.9465 C   0  0  0  0  0  0  0  0  0  0  0  0
    9.5172   11.5677   24.1856 C   0  0  0  0  0  0  0  0  0  0  0  0
   10.7602   11.8290   23.6052 N   0  0  0  0  0  0  0  0  0  0  0  0
   11.4593   13.0934   23.8218 C   0  0  0  0  0  0  0  0  0  0  0  0
   11.4423   13.9190   22.6113 C   0  0  0  0  0  0  0  0  0  0  0  0
   12.3776   14.1755   21.6518 C   0  0  0  0  0  0  0  0  0  0  0  0
   11.5899   14.5023   20.5417 C   0  0  0  0  0  0  0  0  0  0  0  0
   11.9787   14.4570   19.1378 C   0  0  0  0  0  0  0  0  0  0  0  0
   10.3277   14.7625   20.8778 N   0  0  0  0  0  0  0  0  0  0  0  0
   10.2288   14.3569   22.1941 O   0  0  0  0  0  0  0  0  0  0  0  0
    9.0268   10.2613   24.1159 C   0  0  0  0  0  0  0  0  0  0  0  0
    9.6916    9.3038   23.3992 O   0  0  0  0  0  0  0  0  0  0  0  0
    7.9231    9.8494   24.8527 C   0  0  0  0  0  0  0  0  0  0  0  0
    7.2450   10.7382   25.6896 C   0  0  0  0  0  0  0  0  0  0  0  0
    6.2454   10.2361   26.6142 C   0  0  0  0  0  0  0  0  0  0  0  0
    6.1294   10.4253   27.9151 N   0  0  0  0  0  0  0  0  0  0  0  0
    5.0033    9.7372   28.3125 N   0  0  0  0  0  0  0  0  0  0  0  0
    4.5328    9.1639   27.2302 C   0  0  0  0  0  0  0  0  0  0  0  0
    5.2399    9.4631   26.1006 O   0  0  0  0  0  0  0  0  0  0  0  0
  1  2  1  0
  2  3  1  0
  3  4  2  0
  4  5  1  0
  5  6  1  0
  6  7  1  0
  7  8  1  0
  8  9  2  0
  9 10  1  0
 10 11  1  0
 10 12  2  0
 12 13  1  0
  5 14  2  0
 14 15  1  0
 14 16  1  0
 16 17  2  0
 17 18  1  0
 18 19  2  0
 19 20  1  0
 20 21  2  0
 21 22  1  0
 17  3  1  0
 22 18  1  0
 13  8  1  0
M  END
>  <ref_pdb>  (2) 
A5666a

>  <tags>  (2) 
{'fragmenstein_placed', 'openbind_a71ev2a_c1_fragmenstein'}

>  <distance_score>  (2) 
0.937519

>  <energy_score>  (2) 
-131.474102

>  <inchikey>  (2) 
FRGSBTNMALVKIX-UHFFFAOYSA-N

>  <alias>  (2) 
COc1cc(NCc2cc(C)no2)c(O)cc1-c1nnco1

>  <smiles>  (2) 
C140687-P10

>  <HIPPO Pose ID>  (2) 
33919

>  <ref_mols>  (2) 
A0487a,A4940a

>  <HIPPO Compound ID>  (2) 
143369

$$$$
COc1ccc(C(C)=O)cc1-c1n[nH]cc1CN
     RDKit          3D

 18 19  0  0  0  0  0  0  0  0999 V2000
    9.5183    8.8884   23.0536 C   0  0  0  0  0  0  0  0  0  0  0  0
    9.6244   10.2657   23.4074 O   0  0  0  0  0  0  0  0  0  0  0  0
    8.6618   10.7819   24.2286 C   0  0  0  0  0  0  0  0  0  0  0  0
    7.8116    9.9883   25.0009 C   0  0  0  0  0  0  0  0  0  0  0  0
    6.8297   10.5678   25.7990 C   0  0  0  0  0  0  0  0  0  0  0  0
    6.6803   11.9563   25.8269 C   0  0  0  0  0  0  0  0  0  0  0  0
    5.5344   12.5091   26.5948 C   0  0  0  0  0  0  0  0  0  0  0  0
    5.1228   13.9396   26.3613 C   0  0  0  0  0  0  0  0  0  0  0  0
    4.9498   11.8011   27.4144 O   0  0  0  0  0  0  0  0  0  0  0  0
    7.5486   12.7656   25.0851 C   0  0  0  0  0  0  0  0  0  0  0  0
    8.5417   12.1831   24.2832 C   0  0  0  0  0  0  0  0  0  0  0  0
    9.3620   13.0526   23.4424 C   0  0  0  0  0  0  0  0  0  0  0  0
    8.8561   13.5796   22.3181 N   0  0  0  0  0  0  0  0  0  0  0  0
    9.8972   14.2280   21.7603 N   0  0  0  0  0  0  0  0  0  0  0  0
   11.0122   14.2333   22.5299 C   0  0  0  0  0  0  0  0  0  0  0  0
   10.6910   13.5147   23.6566 C   0  0  0  0  0  0  0  0  0  0  0  0
   11.5695   13.2731   24.7959 C   0  0  0  0  0  0  0  0  0  0  0  0
   11.2978   14.3025   25.8035 N   0  0  0  0  0  0  0  0  0  0  0  0
  1  2  1  0
  2  3  1  0
  3  4  2  0
  4  5  1  0
  5  6  2  0
  6  7  1  0
  7  8  1  0
  7  9  2  0
  6 10  1  0
 10 11  2  0
 11 12  1  0
 12 13  2  0
 13 14  1  0
 14 15  1  0
 15 16  2  0
 16 17  1  0
 17 18  1  0
 11  3  1  0
 16 12  1  0
M  END
>  <ref_pdb>  (3) 
A5666a

>  <tags>  (3) 
{'fragmenstein_placed', 'openbind_a71ev2a_c1_fragmenstein'}

>  <distance_score>  (3) 
0.985829

>  <energy_score>  (3) 
-24.041136

>  <inchikey>  (3) 
GTEDGOGNLVTJAH-UHFFFAOYSA-N

>  <alias>  (3) 
COc1ccc(C(C)=O)cc1-c1n[nH]cc1CN

>  <smiles>  (3) 
C140978-P13

>  <HIPPO Pose ID>  (3) 
34113

>  <ref_mols>  (3) 
A4456a,A0501a

>  <HIPPO Compound ID>  (3) 
140978

$$$$
CNNc1ccccc1-c1n[nH]c(C)c1CO
     RDKit          3D

 17 18  0  0  0  0  0  0  0  0999 V2000
   10.0321    8.2206   23.2635 C   0  0  0  0  0  0  0  0  0  0  0  0
    8.7789    8.8250   23.6499 N   0  0  0  0  0  0  0  0  0  0  0  0
    8.9472   10.2076   23.6358 N   0  0  0  0  0  0  0  0  0  0  0  0
    8.2865   10.9636   24.6338 C   0  0  0  0  0  0  0  0  0  0  0  0
    7.2305   10.4264   25.3874 C   0  0  0  0  0  0  0  0  0  0  0  0
    6.5145   11.2111   26.2884 C   0  0  0  0  0  0  0  0  0  0  0  0
    6.8323   12.5564   26.4339 C   0  0  0  0  0  0  0  0  0  0  0  0
    7.8721   13.1129   25.6867 C   0  0  0  0  0  0  0  0  0  0  0  0
    8.5996   12.3276   24.7821 C   0  0  0  0  0  0  0  0  0  0  0  0
    9.6549   12.9324   23.9689 C   0  0  0  0  0  0  0  0  0  0  0  0
   10.9403   12.5719   24.1291 N   0  0  0  0  0  0  0  0  0  0  0  0
   11.5939   13.2487   23.1728 N   0  0  0  0  0  0  0  0  0  0  0  0
   10.7965   14.0557   22.4284 C   0  0  0  0  0  0  0  0  0  0  0  0
   11.3425   14.8921   21.3387 C   0  0  0  0  0  0  0  0  0  0  0  0
    9.5072   13.8302   22.8730 C   0  0  0  0  0  0  0  0  0  0  0  0
    8.2569   14.3516   22.2705 C   0  0  0  0  0  0  0  0  0  0  0  0
    7.2168   14.5252   23.2162 O   0  0  0  0  0  0  0  0  0  0  0  0
  1  2  1  0
  2  3  1  0
  3  4  1  0
  4  5  2  0
  5  6  1  0
  6  7  2  0
  7  8  1  0
  8  9  2  0
  9 10  1  0
 10 11  2  0
 11 12  1  0
 12 13  1  0
 13 14  1  0
 13 15  2  0
 15 16  1  0
 16 17  1  0
  9  4  1  0
 15 10  1  0
M  END
>  <ref_pdb>  (4) 
A5666a

>  <tags>  (4) 
{'fragmenstein_placed', 'openbind_a71ev2a_c1_fragmenstein'}

>  <distance_score>  (4) 
0.987491

>  <energy_score>  (4) 
-40.378102

>  <inchikey>  (4) 
SMJQGBYWPCXPDR-UHFFFAOYSA-N

>  <alias>  (4) 
CNNc1ccccc1-c1n[nH]c(C)c1CO

>  <smiles>  (4) 
C140988-P13

>  <HIPPO Pose ID>  (4) 
34116

>  <ref_mols>  (4) 
A0501a,A4524a

>  <HIPPO Compound ID>  (4) 
140988

$$$$
COc1ccc2sc(N)nc2c1
     RDKit          3D

 12 13  0  0  0  0  0  0  0  0999 V2000
   10.1770    9.2235   22.7526 C   0  0  0  0  0  0  0  0  0  0  0  0
   10.2998   10.6087   23.0538 O   0  0  0  0  0  0  0  0  0  0  0  0
    9.3286   11.1205   23.8602 C   0  0  0  0  0  0  0  0  0  0  0  0
    9.1255   12.4911   23.7587 C   0  0  0  0  0  0  0  0  0  0  0  0
    8.1272   13.1253   24.5039 C   0  0  0  0  0  0  0  0  0  0  0  0
    7.3663   12.3474   25.3907 C   0  0  0  0  0  0  0  0  0  0  0  0
    6.0601   12.7869   26.4216 S   0  0  0  0  0  0  0  0  0  0  0  0
    5.9634   11.1911   27.0069 C   0  0  0  0  0  0  0  0  0  0  0  0
    5.0756   10.8234   27.9473 N   0  0  0  0  0  0  0  0  0  0  0  0
    6.8077   10.3488   26.4799 N   0  0  0  0  0  0  0  0  0  0  0  0
    7.5895   10.9818   25.5372 C   0  0  0  0  0  0  0  0  0  0  0  0
    8.5693   10.3628   24.7475 C   0  0  0  0  0  0  0  0  0  0  0  0
  1  2  1  0
  2  3  1  0
  3  4  2  0
  4  5  1  0
  5  6  2  0
  6  7  1  0
  7  8  1  0
  8  9  1  0
  8 10  2  0
 10 11  1  0
 11 12  2  0
 12  3  1  0
 11  6  1  0
M  END
>  <ref_pdb>  (5) 
A5666a

>  <tags>  (5) 
{'fragmenstein_placed', 'openbind_a71ev2a_c1_fragmenstein'}

>  <distance_score>  (5) 
0.609232

>  <energy_score>  (5) 
-73.862635

>  <inchikey>  (5) 
HOYKQAJNZZTFNB-UHFFFAOYSA-N

>  <alias>  (5) 
COc1ccc2sc(N)nc2c1

>  <smiles>  (5) 
C14-P14

>  <HIPPO Pose ID>  (5) 
34239

>  <ref_mols>  (5) 
A4214a,A4214b,A0501b

>  <HIPPO Compound ID>  (5) 
142584

$$$$
CNc1cnc2sc(N)nc2c1C(=O)OC
     RDKit          3D

 16 17  0  0  0  0  0  0  0  0999 V2000
    9.5173    9.2283   23.1367 C   0  0  0  0  0  0  0  0  0  0  0  0
    9.2318   10.6336   23.4061 N   0  0  0  0  0  0  0  0  0  0  0  0
    8.3293   11.0228   24.3968 C   0  0  0  0  0  0  0  0  0  0  0  0
    7.3731   10.1655   24.9430 C   0  0  0  0  0  0  0  0  0  0  0  0
    6.3775   10.4753   25.8146 N   0  0  0  0  0  0  0  0  0  0  0  0
    6.3416   11.7832   26.1302 C   0  0  0  0  0  0  0  0  0  0  0  0
    5.1808   12.4436   27.1859 S   0  0  0  0  0  0  0  0  0  0  0  0
    5.9073   13.9872   26.9935 C   0  0  0  0  0  0  0  0  0  0  0  0
    5.4142   15.0805   27.6004 N   0  0  0  0  0  0  0  0  0  0  0  0
    6.9607   14.0296   26.2182 N   0  0  0  0  0  0  0  0  0  0  0  0
    7.2056   12.7731   25.6869 C   0  0  0  0  0  0  0  0  0  0  0  0
    8.2086   12.3685   24.7885 C   0  0  0  0  0  0  0  0  0  0  0  0
    9.2079   13.3566   24.3786 C   0  0  0  0  0  0  0  0  0  0  0  0
   10.3666   13.2004   24.7528 O   0  0  0  0  0  0  0  0  0  0  0  0
    8.8308   14.4034   23.6132 O   0  0  0  0  0  0  0  0  0  0  0  0
    7.5209   14.5568   23.0392 C   0  0  0  0  0  0  0  0  0  0  0  0
  1  2  1  0
  2  3  1  0
  3  4  2  0
  4  5  1  0
  5  6  2  0
  6  7  1  0
  7  8  1  0
  8  9  1  0
  8 10  2  0
 10 11  1  0
 11 12  2  0
 12 13  1  0
 13 14  2  0
 13 15  1  0
 15 16  1  0
 12  3  1  0
 11  6  1  0
M  END
>  <ref_pdb>  (6) 
A5666a

>  <tags>  (6) 
{'fragmenstein_placed', 'openbind_a71ev2a_c1_fragmenstein'}

>  <distance_score>  (6) 
0.581101

>  <energy_score>  (6) 
-86.975985

>  <inchikey>  (6) 
ZEPXNXKIOCFIQN-UHFFFAOYSA-N

>  <alias>  (6) 
CNc1cnc2sc(N)nc2c1C(=O)OC

>  <smiles>  (6) 
C141586-P15

>  <HIPPO Pose ID>  (6) 
34455

>  <ref_mols>  (6) 
A4310a,A0514a

>  <HIPPO Compound ID>  (6) 
143244

$$$$
COC(=O)c1cc(C)ncc1N(C)N
     RDKit          3D

 14 14  0  0  0  0  0  0  0  0999 V2000
    8.3582   14.9053   21.8617 C   0  0  0  0  0  0  0  0  0  0  0  0
    7.9745   13.7867   22.6589 O   0  0  0  0  0  0  0  0  0  0  0  0
    8.3242   13.8724   23.9672 C   0  0  0  0  0  0  0  0  0  0  0  0
    8.9310   14.7620   24.5384 O   0  0  0  0  0  0  0  0  0  0  0  0
    7.8967   12.6342   24.6191 C   0  0  0  0  0  0  0  0  0  0  0  0
    8.4555   11.4683   24.1035 C   0  0  0  0  0  0  0  0  0  0  0  0
    8.0042   10.2605   24.5784 C   0  0  0  0  0  0  0  0  0  0  0  0
    8.6023    9.0220   23.9949 C   0  0  0  0  0  0  0  0  0  0  0  0
    7.0359   10.1670   25.5186 N   0  0  0  0  0  0  0  0  0  0  0  0
    6.5404   11.3351   26.0181 C   0  0  0  0  0  0  0  0  0  0  0  0
    6.9483   12.6201   25.6504 C   0  0  0  0  0  0  0  0  0  0  0  0
    6.4493   13.8052   26.2372 N   0  0  0  0  0  0  0  0  0  0  0  0
    5.1541   13.7152   26.9129 C   0  0  0  0  0  0  0  0  0  0  0  0
    7.4124   14.6511   26.8625 N   0  0  0  0  0  0  0  0  0  0  0  0
  1  2  1  0
  2  3  1  0
  3  4  2  0
  3  5  1  0
  5  6  2  0
  6  7  1  0
  7  8  1  0
  7  9  2  0
  9 10  1  0
 10 11  2  0
 11 12  1  0
 12 13  1  0
 12 14  1  0
 11  5  1  0
M  END
>  <ref_pdb>  (7) 
A5666a

>  <tags>  (7) 
{'fragmenstein_placed', 'openbind_a71ev2a_c1_fragmenstein'}

>  <distance_score>  (7) 
0.983263

>  <energy_score>  (7) 
-30.548267

>  <inchikey>  (7) 
VTHWZLJENYHQED-UHFFFAOYSA-N

>  <alias>  (7) 
COC(=O)c1cc(C)ncc1N(C)N

>  <smiles>  (7) 
C141599-P15

>  <HIPPO Pose ID>  (7) 
34458

>  <ref_mols>  (7) 
A4331a,A0514a

>  <HIPPO Compound ID>  (7) 
141599

$$$$
CCNCc1ccc(OC=O)cn1
     RDKit          3D

 13 13  0  0  0  0  0  0  0  0999 V2000
    5.5263   15.8868   28.8202 C   0  0  0  0  0  0  0  0  0  0  0  0
    4.9395   14.8135   27.9164 C   0  0  0  0  0  0  0  0  0  0  0  0
    5.9778   13.8669   27.5360 N   0  0  0  0  0  0  0  0  0  0  0  0
    5.4518   12.7852   26.6912 C   0  0  0  0  0  0  0  0  0  0  0  0
    6.5517   12.1529   25.8592 C   0  0  0  0  0  0  0  0  0  0  0  0
    7.4182   12.9819   25.1427 C   0  0  0  0  0  0  0  0  0  0  0  0
    8.3863   12.4141   24.3279 C   0  0  0  0  0  0  0  0  0  0  0  0
    8.4498   11.0325   24.2234 C   0  0  0  0  0  0  0  0  0  0  0  0
    9.4073   10.5582   23.3103 O   0  0  0  0  0  0  0  0  0  0  0  0
    9.6140    9.2123   23.0592 C   0  0  0  0  0  0  0  0  0  0  0  0
    9.1098    8.2660   23.6285 O   0  0  0  0  0  0  0  0  0  0  0  0
    7.5559   10.2702   24.9621 C   0  0  0  0  0  0  0  0  0  0  0  0
    6.6179   10.7988   25.7921 N   0  0  0  0  0  0  0  0  0  0  0  0
  1  2  1  0
  2  3  1  0
  3  4  1  0
  4  5  1  0
  5  6  2  0
  6  7  1  0
  7  8  2  0
  8  9  1  0
  9 10  1  0
 10 11  2  0
  8 12  1  0
 12 13  2  0
 13  5  1  0
M  END
>  <ref_pdb>  (8) 
A5666a

>  <tags>  (8) 
{'fragmenstein_placed', 'openbind_a71ev2a_c1_fragmenstein'}

>  <distance_score>  (8) 
0.722141

>  <energy_score>  (8) 
-18.470308

>  <inchikey>  (8) 
BVTGRELWAPFAGZ-UHFFFAOYSA-N

>  <alias>  (8) 
CCNCc1ccc(OC=O)cn1

>  <smiles>  (8) 
C141610-P15

>  <HIPPO Pose ID>  (8) 
34468

>  <ref_mols>  (8) 
A4346a,A0514a

>  <HIPPO Compound ID>  (8) 
141610

$$$$
COC(=O)c1ccncc1N
     RDKit          3D

 11 11  0  0  0  0  0  0  0  0999 V2000
    9.5432    8.8618   23.1045 C   0  0  0  0  0  0  0  0  0  0  0  0
    8.5467    9.4505   23.9400 O   0  0  0  0  0  0  0  0  0  0  0  0
    8.6767   10.7838   24.1295 C   0  0  0  0  0  0  0  0  0  0  0  0
    9.5695   11.4894   23.6864 O   0  0  0  0  0  0  0  0  0  0  0  0
    7.5893   11.2869   25.0100 C   0  0  0  0  0  0  0  0  0  0  0  0
    6.7553   10.3817   25.6776 C   0  0  0  0  0  0  0  0  0  0  0  0
    5.7986   10.8714   26.5415 C   0  0  0  0  0  0  0  0  0  0  0  0
    5.5990   12.1825   26.7521 N   0  0  0  0  0  0  0  0  0  0  0  0
    6.3840   13.0397   26.0508 C   0  0  0  0  0  0  0  0  0  0  0  0
    7.4337   12.6666   25.2111 C   0  0  0  0  0  0  0  0  0  0  0  0
    8.1223   13.6278   24.4636 N   0  0  0  0  0  0  0  0  0  0  0  0
  1  2  1  0
  2  3  1  0
  3  4  2  0
  3  5  1  0
  5  6  2  0
  6  7  1  0
  7  8  2  0
  8  9  1  0
  9 10  2  0
 10 11  1  0
 10  5  1  0
M  END
>  <ref_pdb>  (9) 
A5666a

>  <tags>  (9) 
{'fragmenstein_placed', 'openbind_a71ev2a_c1_fragmenstein'}

>  <distance_score>  (9) 
0.704835

>  <energy_score>  (9) 
-27.435509

>  <inchikey>  (9) 
XLQIGLBALJNHKR-UHFFFAOYSA-N

>  <alias>  (9) 
COC(=O)c1ccncc1N

>  <smiles>  (9) 
C15-P15

>  <HIPPO Pose ID>  (9) 
34471

>  <ref_mols>  (9) 
A4368a,A0514a

>  <HIPPO Compound ID>  (9) 
15

$$$$
CN1CC[C@H](Oc2ccc(F)c(F)c2)C1=O
     RDKit          3D

 16 17  0  0  0  0  0  0  0  0999 V2000
   13.0393   16.7022   20.7990 C   0  0  0  0  0  0  0  0  0  0  0  0
   12.4061   15.7274   21.6449 N   0  0  0  0  0  0  0  0  0  0  0  0
   13.0961   15.0909   22.7295 C   0  0  0  0  0  0  0  0  0  0  0  0
   12.1397   13.9864   23.1155 C   0  0  0  0  0  0  0  0  0  0  0  0
   10.7709   14.6577   22.9687 C   0  0  2  0  0  0  0  0  0  0  0  0
    9.7599   13.7697   22.5322 O   0  0  0  0  0  0  0  0  0  0  0  0
    9.3378   12.8907   23.4792 C   0  0  0  0  0  0  0  0  0  0  0  0
    8.3691   13.2691   24.4067 C   0  0  0  0  0  0  0  0  0  0  0  0
    7.7648   12.2938   25.1937 C   0  0  0  0  0  0  0  0  0  0  0  0
    8.1291   10.9635   25.0231 C   0  0  0  0  0  0  0  0  0  0  0  0
    7.5039   10.0307   25.7431 F   0  0  0  0  0  0  0  0  0  0  0  0
    9.1054   10.5974   24.1070 C   0  0  0  0  0  0  0  0  0  0  0  0
    9.4243    9.3100   23.9285 F   0  0  0  0  0  0  0  0  0  0  0  0
    9.7251   11.5617   23.3367 C   0  0  0  0  0  0  0  0  0  0  0  0
   11.0310   15.6614   21.8381 C   0  0  0  0  0  0  0  0  0  0  0  0
   10.1992   16.3104   21.2216 O   0  0  0  0  0  0  0  0  0  0  0  0
  1  2  1  0
  2  3  1  0
  3  4  1  0
  4  5  1  0
  5  6  1  6
  6  7  1  0
  7  8  2  0
  8  9  1  0
  9 10  2  0
 10 11  1  0
 10 12  1  0
 12 13  1  0
 12 14  2  0
  5 15  1  0
 15 16  2  0
 15  2  1  0
 14  7  1  0
M  END
>  <ref_pdb>  (10) 
A5666a

>  <tags>  (10) 
{'fragmenstein_placed', 'openbind_a71ev2a_c1_fragmenstein'}

>  <distance_score>  (10) 
0.558012

>  <energy_score>  (10) 
-23.53683

>  <inchikey>  (10) 
RSZCATFBIKXLMR-UHFFFAOYSA-N

>  <alias>  (10) 
CN1CC[C@H](Oc2ccc(F)c(F)c2)C1=O

>  <smiles>  (10) 
C142388-P22

>  <HIPPO Pose ID>  (10) 
34950

>  <ref_mols>  (10) 
A3940a,A0528a

>  <HIPPO Compound ID>  (10) 
143262

$$$$
CCC(=O)c1ccc2c(c1NC(C)=O)[N@@H+]([O-])C=C2
     RDKit          3D

 18 19  0  0  0  0  0  0  0  0999 V2000
   11.5362   15.9958   21.8733 C   0  0  0  0  0  0  0  0  0  0  0  0
   11.1088   14.6247   22.3630 C   0  0  0  0  0  0  0  0  0  0  0  0
   10.2134   14.7202   23.5865 C   0  0  0  0  0  0  0  0  0  0  0  0
   10.0199   15.7834   24.1670 O   0  0  0  0  0  0  0  0  0  0  0  0
    9.5272   13.4985   24.0740 C   0  0  0  0  0  0  0  0  0  0  0  0
    9.8391   12.2680   23.4454 C   0  0  0  0  0  0  0  0  0  0  0  0
    9.2221   11.0986   23.8414 C   0  0  0  0  0  0  0  0  0  0  0  0
    8.2520   11.2138   24.8099 C   0  0  0  0  0  0  0  0  0  0  0  0
    7.8915   12.4039   25.4291 C   0  0  0  0  0  0  0  0  0  0  0  0
    8.6093   13.5523   25.1555 C   0  0  0  0  0  0  0  0  0  0  0  0
    8.5122   14.6462   26.0211 N   0  0  0  0  0  0  0  0  0  0  0  0
    7.9360   14.7451   27.4669 C   0  0  0  0  0  0  0  0  0  0  0  0
    7.9464   16.1955   27.8777 C   0  0  0  0  0  0  0  0  0  0  0  0
    7.5262   13.9091   28.1803 O   0  0  0  0  0  0  0  0  0  0  0  0
    6.8067   12.1650   26.4217 N   0  0  1  0  0  0  0  0  0  0  0  0
    5.6205   12.6752   26.0363 O   0  0  0  0  0  0  0  0  0  0  0  0
    6.6779   10.6932   26.3258 C   0  0  0  0  0  0  0  0  0  0  0  0
    7.4928   10.1676   25.4048 C   0  0  0  0  0  0  0  0  0  0  0  0
  1  2  1  0
  2  3  1  0
  3  4  2  0
  3  5  1  0
  5  6  2  0
  6  7  1  0
  7  8  2  0
  8  9  1  0
  9 10  2  0
 10 11  1  0
 11 12  1  0
 12 13  1  0
 12 14  2  0
  9 15  1  0
 15 16  1  6
 15 17  1  0
 17 18  2  0
 10  5  1  0
 18  8  1  0
M  CHG  2  15   1  16  -1
M  END
>  <ref_pdb>  (11) 
A5666a

>  <tags>  (11) 
{'fragmenstein_placed', 'openbind_a71ev2a_c1_fragmenstein'}

>  <distance_score>  (11) 
0.945284

>  <energy_score>  (11) 
-42.391256

>  <inchikey>  (11) 
DNEDAFNARQGQSP-UHFFFAOYSA-N

>  <alias>  (11) 
CCC(=O)c1ccc2c(c1NC(C)=O)[N@@H+]([O-])C=C2

>  <smiles>  (11) 
C142646-P22

>  <HIPPO Pose ID>  (11) 
35200

>  <ref_mols>  (11) 
A5104a,A0528a

>  <HIPPO Compound ID>  (11) 
142646

$$$$
CN(C)OC1CCN(S(C)(=O)=O)CC1
     RDKit          3D

 14 14  0  0  0  0  0  0  0  0999 V2000
    6.7248   22.7509   28.7310 C   0  0  0  0  0  0  0  0  0  0  0  0
    7.9560   21.9616   28.7135 N   0  0  0  0  0  0  0  0  0  0  0  0
    7.6781   20.5877   29.1362 C   0  0  0  0  0  0  0  0  0  0  0  0
    8.2885   21.8274   27.2965 O   0  0  0  0  0  0  0  0  0  0  0  0
    9.5447   22.4694   27.0325 C   0  0  0  0  0  0  0  0  0  0  0  0
   10.7210   21.5877   27.4538 C   0  0  0  0  0  0  0  0  0  0  0  0
   12.0499   22.1459   26.9648 C   0  0  0  0  0  0  0  0  0  0  0  0
   11.9856   22.3623   25.4998 N   0  0  0  0  0  0  0  0  0  0  0  0
   13.4488   22.4176   24.6517 S   0  0  0  0  0  0  0  0  0  0  0  0
   14.1506   23.9527   25.2148 C   0  0  0  0  0  0  0  0  0  0  0  0
   13.1415   22.5775   23.2466 O   0  0  0  0  0  0  0  0  0  0  0  0
   14.3016   21.3517   25.1251 O   0  0  0  0  0  0  0  0  0  0  0  0
   10.9240   23.3064   25.1046 C   0  0  0  0  0  0  0  0  0  0  0  0
    9.5804   22.7438   25.5323 C   0  0  0  0  0  0  0  0  0  0  0  0
  1  2  1  0
  2  3  1  0
  2  4  1  0
  4  5  1  0
  5  6  1  0
  6  7  1  0
  7  8  1  0
  8  9  1  0
  9 10  1  0
  9 11  2  0
  9 12  2  0
  8 13  1  0
 13 14  1  0
 14  5  1  0
M  END
>  <ref_pdb>  (12) 
A0207a

>  <tags>  (12) 
{'fragmenstein_placed', 'openbind_a71ev2a_c1_fragmenstein'}

>  <distance_score>  (12) 
0.832396

>  <energy_score>  (12) 
-50.463128

>  <inchikey>  (12) 
MHXVSXRGCZAGOU-UHFFFAOYSA-N

>  <alias>  (12) 
CN(C)OC1CCN(S(C)(=O)=O)CC1

>  <smiles>  (12) 
C223813-P47

>  <HIPPO Pose ID>  (12) 
36471

>  <ref_mols>  (12) 
A0540a,A0228a

>  <HIPPO Compound ID>  (12) 
223813

$$$$
NCc1ccc2c3c(cccc13)CN2
     RDKit          3D

 14 16  0  0  0  0  0  0  0  0999 V2000
    8.7075   10.3731   -1.1391 N   0  0  0  0  0  0  0  0  0  0  0  0
    9.5897   10.9406   -0.1237 C   0  0  0  0  0  0  0  0  0  0  0  0
    8.8170   11.4245    1.0785 C   0  0  0  0  0  0  0  0  0  0  0  0
    8.1220   10.4633    1.8645 C   0  0  0  0  0  0  0  0  0  0  0  0
    7.4145   10.8181    3.0248 C   0  0  0  0  0  0  0  0  0  0  0  0
    7.3889   12.1432    3.4006 C   0  0  0  0  0  0  0  0  0  0  0  0
    8.0418   13.0612    2.6300 C   0  0  0  0  0  0  0  0  0  0  0  0
    7.8374   14.2880    3.1910 C   0  0  0  0  0  0  0  0  0  0  0  0
    8.4053   15.4023    2.6017 C   0  0  0  0  0  0  0  0  0  0  0  0
    9.1768   15.2224    1.4421 C   0  0  0  0  0  0  0  0  0  0  0  0
    9.3638   13.9405    0.8769 C   0  0  0  0  0  0  0  0  0  0  0  0
    8.7759   12.7942    1.4692 C   0  0  0  0  0  0  0  0  0  0  0  0
    6.9526   14.1422    4.3941 C   0  0  0  0  0  0  0  0  0  0  0  0
    6.7813   12.6840    4.5730 N   0  0  0  0  0  0  0  0  0  0  0  0
  1  2  1  0
  2  3  1  0
  3  4  2  0
  4  5  1  0
  5  6  2  0
  6  7  1  0
  7  8  2  0
  8  9  1  0
  9 10  2  0
 10 11  1  0
 11 12  2  0
  8 13  1  0
 13 14  1  0
 12  3  1  0
 14  6  1  0
 12  7  1  0
M  END
>  <ref_pdb>  (13) 
A0207a

>  <tags>  (13) 
{'fragmenstein_placed', 'openbind_a71ev2a_c1_fragmenstein'}

>  <distance_score>  (13) 
0.654145

>  <energy_score>  (13) 
-22.122876

>  <inchikey>  (13) 
VZZNLCQRSIUYQV-UHFFFAOYSA-N

>  <alias>  (13) 
NCc1ccc2c3c(cccc13)CN2

>  <smiles>  (13) 
C223849-P49

>  <HIPPO Pose ID>  (13) 
36501

>  <ref_mols>  (13) 
A0229b,A0188a,A0586a

>  <HIPPO Compound ID>  (13) 
223849

$$$$
CNCS(=O)(=O)C(=O)c1ccc(CN)cc1
     RDKit          3D

 16 16  0  0  0  0  0  0  0  0999 V2000
    4.1146   16.9281    3.4141 C   0  0  0  0  0  0  0  0  0  0  0  0
    5.4184   16.6518    3.9990 N   0  0  0  0  0  0  0  0  0  0  0  0
    5.6750   15.1928    4.0644 C   0  0  0  0  0  0  0  0  0  0  0  0
    7.1318   14.6686    5.0078 S   0  0  0  0  0  0  0  0  0  0  0  0
    8.3202   15.3438    4.5185 O   0  0  0  0  0  0  0  0  0  0  0  0
    6.8010   14.7364    6.4252 O   0  0  0  0  0  0  0  0  0  0  0  0
    7.2620   12.9353    4.6079 C   0  0  0  0  0  0  0  0  0  0  0  0
    6.9218   12.1510    5.4914 O   0  0  0  0  0  0  0  0  0  0  0  0
    7.7357   12.4202    3.2956 C   0  0  0  0  0  0  0  0  0  0  0  0
    8.2563   13.2378    2.2868 C   0  0  0  0  0  0  0  0  0  0  0  0
    8.7787   12.6698    1.1193 C   0  0  0  0  0  0  0  0  0  0  0  0
    8.7942   11.2812    0.9431 C   0  0  0  0  0  0  0  0  0  0  0  0
    9.4249   10.6672   -0.2792 C   0  0  0  0  0  0  0  0  0  0  0  0
    8.4447   10.4667   -1.3348 N   0  0  0  0  0  0  0  0  0  0  0  0
    8.2110   10.4705    1.9228 C   0  0  0  0  0  0  0  0  0  0  0  0
    7.6865   11.0350    3.0868 C   0  0  0  0  0  0  0  0  0  0  0  0
  1  2  1  0
  2  3  1  0
  3  4  1  0
  4  5  2  0
  4  6  2  0
  4  7  1  0
  7  8  2  0
  7  9  1  0
  9 10  2  0
 10 11  1  0
 11 12  2  0
 12 13  1  0
 13 14  1  0
 12 15  1  0
 15 16  2  0
 16  9  1  0
M  END
>  <ref_pdb>  (14) 
A0207a

>  <tags>  (14) 
{'fragmenstein_placed', 'openbind_a71ev2a_c1_fragmenstein'}

>  <distance_score>  (14) 
0.565161

>  <energy_score>  (14) 
-23.780436

>  <inchikey>  (14) 
LUMZHBRJYVSBCU-UHFFFAOYSA-N

>  <alias>  (14) 
CNCS(=O)(=O)C(=O)c1ccc(CN)cc1

>  <smiles>  (14) 
C223851-P49

>  <HIPPO Pose ID>  (14) 
36503

>  <ref_mols>  (14) 
A0229b,A0305a

>  <HIPPO Compound ID>  (14) 
223851

$$$$
Cc1ncc(CNC(=O)C2CCC2)cc1O[C@@H]1CCN(C)C1=O
     RDKit          3D

 23 25  0  0  0  0  0  0  0  0999 V2000
    9.6699    9.0949   23.4316 C   0  0  0  0  0  0  0  0  0  0  0  0
    8.7184    9.9937   24.1715 C   0  0  0  0  0  0  0  0  0  0  0  0
    7.7776    9.3970   24.9532 N   0  0  0  0  0  0  0  0  0  0  0  0
    6.9149   10.1888   25.6281 C   0  0  0  0  0  0  0  0  0  0  0  0
    6.9061   11.5661   25.5498 C   0  0  0  0  0  0  0  0  0  0  0  0
    5.9142   12.4297   26.2727 C   0  0  0  0  0  0  0  0  0  0  0  0
    5.6139   11.9765   27.6081 N   0  0  0  0  0  0  0  0  0  0  0  0
    6.4201   12.1089   28.9162 C   0  0  0  0  0  0  0  0  0  0  0  0
    7.4197   12.6731   29.1360 O   0  0  0  0  0  0  0  0  0  0  0  0
    5.6645   11.3472   30.0456 C   0  0  0  0  0  0  0  0  0  0  0  0
    5.0992    9.9199   29.7934 C   0  0  0  0  0  0  0  0  0  0  0  0
    5.4462    9.6046   31.2623 C   0  0  0  0  0  0  0  0  0  0  0  0
    6.5456   10.6741   31.1433 C   0  0  0  0  0  0  0  0  0  0  0  0
    7.8378   12.1431   24.6810 C   0  0  0  0  0  0  0  0  0  0  0  0
    8.8203   11.3777   24.0535 C   0  0  0  0  0  0  0  0  0  0  0  0
    9.8775   11.8649   23.3401 O   0  0  0  0  0  0  0  0  0  0  0  0
   10.1622   13.2466   23.4203 C   0  0  2  0  0  0  0  0  0  0  0  0
   11.5886   13.4710   22.8995 C   0  0  0  0  0  0  0  0  0  0  0  0
   12.4426   13.2811   24.1393 C   0  0  0  0  0  0  0  0  0  0  0  0
   11.6249   13.8111   25.1983 N   0  0  0  0  0  0  0  0  0  0  0  0
   12.1114   14.6059   26.2922 C   0  0  0  0  0  0  0  0  0  0  0  0
   10.3010   13.8686   24.8164 C   0  0  0  0  0  0  0  0  0  0  0  0
    9.4242   14.4187   25.4691 O   0  0  0  0  0  0  0  0  0  0  0  0
  1  2  1  0
  2  3  2  0
  3  4  1  0
  4  5  2  0
  5  6  1  0
  6  7  1  0
  7  8  1  0
  8  9  2  0
  8 10  1  0
 10 11  1  0
 11 12  1  0
 12 13  1  0
  5 14  1  0
 14 15  2  0
 15 16  1  0
 17 16  1  1
 17 18  1  0
 18 19  1  0
 19 20  1  0
 20 21  1  0
 20 22  1  0
 22 23  2  0
 15  2  1  0
 22 17  1  0
 13 10  1  0
M  END
>  <ref_pdb>  (15) 
A0207a

>  <tags>  (15) 
{'fragmenstein_placed', 'openbind_a71ev2a_c1_fragmenstein'}

>  <distance_score>  (15) 
0.738714

>  <energy_score>  (15) 
-6.5466

>  <inchikey>  (15) 
GFLLQDRPUXMCNL-UHFFFAOYSA-N

>  <alias>  (15) 
Cc1ncc(CNC(=O)C2CCC2)cc1O[C@@H]1CCN(C)C1=O

>  <smiles>  (15) 
C223863-P50

>  <HIPPO Pose ID>  (15) 
36508

>  <ref_mols>  (15) 
A0237a,A0487a

>  <HIPPO Compound ID>  (15) 
223863

$$$$
Cc1ncc(CNC(=O)C2CCC2)c(C)c1NC(=O)CC#N
     RDKit          3D

 22 23  0  0  0  0  0  0  0  0999 V2000
    9.4076    9.0644   23.5406 C   0  0  0  0  0  0  0  0  0  0  0  0
    8.4599    9.9558   24.2982 C   0  0  0  0  0  0  0  0  0  0  0  0
    7.4741    9.3369   24.9798 N   0  0  0  0  0  0  0  0  0  0  0  0
    6.6730   10.1048   25.7398 C   0  0  0  0  0  0  0  0  0  0  0  0
    6.7846   11.4849   25.8813 C   0  0  0  0  0  0  0  0  0  0  0  0
    5.8186   12.2047   26.7896 C   0  0  0  0  0  0  0  0  0  0  0  0
    5.6471   11.4683   28.0124 N   0  0  0  0  0  0  0  0  0  0  0  0
    6.4207   11.5407   29.3386 C   0  0  0  0  0  0  0  0  0  0  0  0
    7.2713   12.2624   29.6794 O   0  0  0  0  0  0  0  0  0  0  0  0
    5.9351   10.3414   30.2014 C   0  0  0  0  0  0  0  0  0  0  0  0
    4.6150   10.4923   30.9902 C   0  0  0  0  0  0  0  0  0  0  0  0
    5.2636    9.6417   32.0990 C   0  0  0  0  0  0  0  0  0  0  0  0
    6.6286   10.1148   31.5692 C   0  0  0  0  0  0  0  0  0  0  0  0
    7.7634   12.1377   25.1051 C   0  0  0  0  0  0  0  0  0  0  0  0
    7.7868   13.6437   25.0776 C   0  0  0  0  0  0  0  0  0  0  0  0
    8.6389   11.3472   24.3308 C   0  0  0  0  0  0  0  0  0  0  0  0
    9.6458   11.8723   23.5244 N   0  0  0  0  0  0  0  0  0  0  0  0
   10.5175   13.1503   23.6995 C   0  0  0  0  0  0  0  0  0  0  0  0
   10.5750   13.9116   24.5836 O   0  0  0  0  0  0  0  0  0  0  0  0
   11.2446   13.2777   22.3842 C   0  0  0  0  0  0  0  0  0  0  0  0
   12.2150   14.3391   22.4049 C   0  0  0  0  0  0  0  0  0  0  0  0
   12.9870   15.1963   22.3851 N   0  0  0  0  0  0  0  0  0  0  0  0
  1  2  1  0
  2  3  2  0
  3  4  1  0
  4  5  2  0
  5  6  1  0
  6  7  1  0
  7  8  1  0
  8  9  2  0
  8 10  1  0
 10 11  1  0
 11 12  1  0
 12 13  1  0
  5 14  1  0
 14 15  1  0
 14 16  2  0
 16 17  1  0
 17 18  1  0
 18 19  2  0
 18 20  1  0
 20 21  1  0
 21 22  3  0
 16  2  1  0
 13 10  1  0
M  END
>  <ref_pdb>  (16) 
A0207a

>  <tags>  (16) 
{'fragmenstein_placed', 'openbind_a71ev2a_c1_fragmenstein'}

>  <distance_score>  (16) 
0.887235

>  <energy_score>  (16) 
-1.054593

>  <inchikey>  (16) 
QMYIEUIBLQHGOH-UHFFFAOYSA-N

>  <alias>  (16) 
Cc1ncc(CNC(=O)C2CCC2)c(C)c1NC(=O)CC#N

>  <smiles>  (16) 
C223867-P50

>  <HIPPO Pose ID>  (16) 
36509

>  <ref_mols>  (16) 
A0237a,A0528a

>  <HIPPO Compound ID>  (16) 
223867

$$$$
Cc1cc([C@H](C)CS(N)(=O)=O)c(CNC(=O)C2CCC2)cn1
     RDKit          3D

 22 23  0  0  0  0  0  0  0  0999 V2000
    9.5850    9.4711   23.3996 C   0  0  0  0  0  0  0  0  0  0  0  0
    8.5737   10.1843   24.2483 C   0  0  0  0  0  0  0  0  0  0  0  0
    8.4664   11.5765   24.2427 C   0  0  0  0  0  0  0  0  0  0  0  0
    7.4440   12.2044   24.9820 C   0  0  0  0  0  0  0  0  0  0  0  0
    7.0617   13.6714   24.7700 C   0  0  2  0  0  0  0  0  0  0  0  0
    7.5147   14.2576   23.4247 C   0  0  0  0  0  0  0  0  0  0  0  0
    7.4756   14.6025   25.9181 C   0  0  0  0  0  0  0  0  0  0  0  0
    6.0772   15.6405   26.4303 S   0  0  0  0  0  0  0  0  0  0  0  0
    6.8137   17.0877   26.8044 N   0  0  0  0  0  0  0  0  0  0  0  0
    5.5506   15.1723   27.6924 O   0  0  0  0  0  0  0  0  0  0  0  0
    5.1994   15.9154   25.3203 O   0  0  0  0  0  0  0  0  0  0  0  0
    6.6431   11.3964   25.8149 C   0  0  0  0  0  0  0  0  0  0  0  0
    5.5303   11.9135   26.6830 C   0  0  0  0  0  0  0  0  0  0  0  0
    5.4624   11.2219   27.9380 N   0  0  0  0  0  0  0  0  0  0  0  0
    6.2970   11.3913   29.2187 C   0  0  0  0  0  0  0  0  0  0  0  0
    7.1222   12.1719   29.4861 O   0  0  0  0  0  0  0  0  0  0  0  0
    5.9206   10.2126   30.1573 C   0  0  0  0  0  0  0  0  0  0  0  0
    4.6287   10.3407   30.9971 C   0  0  0  0  0  0  0  0  0  0  0  0
    5.3669    9.5851   32.1181 C   0  0  0  0  0  0  0  0  0  0  0  0
    6.6821   10.0944   31.5029 C   0  0  0  0  0  0  0  0  0  0  0  0
    6.8312   10.0246   25.7370 C   0  0  0  0  0  0  0  0  0  0  0  0
    7.7604    9.4076   24.9893 N   0  0  0  0  0  0  0  0  0  0  0  0
  1  2  1  0
  2  3  2  0
  3  4  1  0
  4  5  1  0
  5  6  1  6
  5  7  1  0
  7  8  1  0
  8  9  1  0
  8 10  2  0
  8 11  2  0
  4 12  2  0
 12 13  1  0
 13 14  1  0
 14 15  1  0
 15 16  2  0
 15 17  1  0
 17 18  1  0
 18 19  1  0
 19 20  1  0
 12 21  1  0
 21 22  2  0
 22  2  1  0
 20 17  1  0
M  END
>  <ref_pdb>  (17) 
A0207a

>  <tags>  (17) 
{'fragmenstein_placed', 'openbind_a71ev2a_c1_fragmenstein'}

>  <distance_score>  (17) 
0.846561

>  <energy_score>  (17) 
-24.397366

>  <inchikey>  (17) 
JFQKISFLWIGOGM-UHFFFAOYSA-N

>  <alias>  (17) 
Cc1cc([C@H](C)CS(N)(=O)=O)c(CNC(=O)C2CCC2)cn1

>  <smiles>  (17) 
C223876-P50

>  <HIPPO Pose ID>  (17) 
36514

>  <ref_mols>  (17) 
A0387a,A0237a

>  <HIPPO Compound ID>  (17) 
223876

$$$$
CCC(=NN[C@H](NC(=O)C1CCC1)c1ccc(C)nc1)NO
     RDKit          3D

 22 23  0  0  0  0  0  0  0  0999 V2000
    3.6617   16.2769   29.5665 C   0  0  0  0  0  0  0  0  0  0  0  0
    3.3235   16.0247   28.1087 C   0  0  0  0  0  0  0  0  0  0  0  0
    4.5007   15.3575   27.4033 C   0  0  0  0  0  0  0  0  0  0  0  0
    4.4741   14.1399   27.3149 N   0  0  0  0  0  0  0  0  0  0  0  0
    5.5688   13.5677   26.7500 N   0  0  0  0  0  0  0  0  0  0  0  0
    5.5744   12.1338   26.5524 C   0  0  2  0  0  0  0  0  0  0  0  0
    5.4498   11.4678   27.8168 N   0  0  0  0  0  0  0  0  0  0  0  0
    6.3240   11.5468   29.0773 C   0  0  0  0  0  0  0  0  0  0  0  0
    7.2428   12.2241   29.3193 O   0  0  0  0  0  0  0  0  0  0  0  0
    5.8169   10.4108   30.0319 C   0  0  0  0  0  0  0  0  0  0  0  0
    4.5916   10.7013   30.9231 C   0  0  0  0  0  0  0  0  0  0  0  0
    5.5664   10.9848   32.0783 C   0  0  0  0  0  0  0  0  0  0  0  0
    6.6167   10.1489   31.3321 C   0  0  0  0  0  0  0  0  0  0  0  0
    6.7206   11.5355   25.7713 C   0  0  0  0  0  0  0  0  0  0  0  0
    7.7260   12.2435   25.1129 C   0  0  0  0  0  0  0  0  0  0  0  0
    8.6768   11.5552   24.3484 C   0  0  0  0  0  0  0  0  0  0  0  0
    8.5935   10.1683   24.2432 C   0  0  0  0  0  0  0  0  0  0  0  0
    9.5674    9.3941   23.4042 C   0  0  0  0  0  0  0  0  0  0  0  0
    7.6447    9.4586   24.8915 N   0  0  0  0  0  0  0  0  0  0  0  0
    6.7444   10.1505   25.6171 C   0  0  0  0  0  0  0  0  0  0  0  0
    5.5744   16.4056   26.8868 N   0  0  0  0  0  0  0  0  0  0  0  0
    6.7035   16.2263   26.1298 O   0  0  0  0  0  0  0  0  0  0  0  0
  1  2  1  0
  2  3  1  0
  3  4  2  3
  4  5  1  0
  6  5  1  1
  6  7  1  0
  7  8  1  0
  8  9  2  0
  8 10  1  0
 10 11  1  0
 11 12  1  0
 12 13  1  0
  6 14  1  0
 14 15  2  0
 15 16  1  0
 16 17  2  0
 17 18  1  0
 17 19  1  0
 19 20  2  0
  3 21  1  0
 21 22  1  0
 13 10  1  0
 20 14  1  0
M  END
>  <ref_pdb>  (18) 
A0207a

>  <tags>  (18) 
{'fragmenstein_placed', 'openbind_a71ev2a_c1_fragmenstein'}

>  <distance_score>  (18) 
0.756109

>  <energy_score>  (18) 
-5.845363

>  <inchikey>  (18) 
SSGZMYWLRNLFOE-UHFFFAOYSA-N

>  <alias>  (18) 
CCC(=NN[C@H](NC(=O)C1CCC1)c1ccc(C)nc1)NO

>  <smiles>  (18) 
C223886-P50

>  <HIPPO Pose ID>  (18) 
36519

>  <ref_mols>  (18) 
A0884a,A0237a

>  <HIPPO Compound ID>  (18) 
223886

$$$$
C[C@H](C[C@]1(C(=O)C2CCC2)Cc2ccc(CO)nc2N1)C(F)(F)F
     RDKit          3D

 24 26  0  0  0  0  0  0  0  0999 V2000
    2.2117   12.7816   28.7841 C   0  0  0  0  0  0  0  0  0  0  0  0
    3.0988   12.8101   27.5360 C   0  0  2  0  0  0  0  0  0  0  0  0
    4.4892   13.3906   27.8338 C   0  0  0  0  0  0  0  0  0  0  0  0
    5.7502   12.5624   27.4304 C   0  0  2  0  0  0  0  0  0  0  0  0
    6.4106   12.1375   28.7819 C   0  0  0  0  0  0  0  0  0  0  0  0
    7.5116   12.6049   29.1149 O   0  0  0  0  0  0  0  0  0  0  0  0
    5.6234   11.2486   29.7684 C   0  0  0  0  0  0  0  0  0  0  0  0
    5.0218    9.8827   29.3581 C   0  0  0  0  0  0  0  0  0  0  0  0
    5.2521    9.4465   30.8240 C   0  0  0  0  0  0  0  0  0  0  0  0
    6.4311   10.4401   30.8290 C   0  0  0  0  0  0  0  0  0  0  0  0
    6.6868   13.4812   26.5968 C   0  0  0  0  0  0  0  0  0  0  0  0
    7.4217   12.4813   25.7881 C   0  0  0  0  0  0  0  0  0  0  0  0
    8.5150   12.6842   24.9767 C   0  0  0  0  0  0  0  0  0  0  0  0
    9.0008   11.5897   24.2832 C   0  0  0  0  0  0  0  0  0  0  0  0
    8.3684   10.3459   24.4206 C   0  0  0  0  0  0  0  0  0  0  0  0
    8.8812    9.1621   23.6260 C   0  0  0  0  0  0  0  0  0  0  0  0
    9.8997    9.5295   22.7096 O   0  0  0  0  0  0  0  0  0  0  0  0
    7.2628   10.1601   25.2147 N   0  0  0  0  0  0  0  0  0  0  0  0
    6.8177   11.2361   25.8768 C   0  0  0  0  0  0  0  0  0  0  0  0
    5.5378   11.3324   26.5859 N   0  0  0  0  0  0  0  0  0  0  0  0
    2.4245   13.6540   26.4612 C   0  0  0  0  0  0  0  0  0  0  0  0
    1.2832   13.0715   26.0460 F   0  0  0  0  0  0  0  0  0  0  0  0
    3.2316   13.7838   25.3884 F   0  0  0  0  0  0  0  0  0  0  0  0
    2.1306   14.8924   26.9061 F   0  0  0  0  0  0  0  0  0  0  0  0
  2  1  1  1
  2  3  1  0
  4  3  1  1
  4  5  1  0
  5  6  2  0
  5  7  1  0
  7  8  1  0
  8  9  1  0
  9 10  1  0
  4 11  1  0
 11 12  1  0
 12 13  2  0
 13 14  1  0
 14 15  2  0
 15 16  1  0
 16 17  1  0
 15 18  1  0
 18 19  2  0
 19 20  1  0
  2 21  1  0
 21 22  1  0
 21 23  1  0
 21 24  1  0
 20  4  1  0
 10  7  1  0
 19 12  1  0
M  END
>  <ref_pdb>  (19) 
A0207a

>  <tags>  (19) 
{'fragmenstein_placed', 'openbind_a71ev2a_c1_fragmenstein'}

>  <distance_score>  (19) 
0.945088

>  <energy_score>  (19) 
-49.105259

>  <inchikey>  (19) 
GEFQHGIGKICAEA-UHFFFAOYSA-N

>  <alias>  (19) 
C[C@H](C[C@]1(C(=O)C2CCC2)Cc2ccc(CO)nc2N1)C(F)(F)F

>  <smiles>  (19) 
C223890-P50

>  <HIPPO Pose ID>  (19) 
36522

>  <ref_mols>  (19) 
A1169a,A0237a

>  <HIPPO Compound ID>  (19) 
223890

$$$$
CC1=N[C@](C#Cc2[nH]nc3ccccc23)(c2ccccc2)C(=O)C1
     RDKit          3D

 24 27  0  0  0  0  0  0  0  0999 V2000
   19.2191   18.4427    1.2303 C   0  0  0  0  0  0  0  0  0  0  0  0
   19.1033   17.0103    1.6151 C   0  0  0  0  0  0  0  0  0  0  0  0
   19.8786   16.1055    1.1108 N   0  0  0  0  0  0  0  0  0  0  0  0
   19.5754   14.7903    1.7775 C   0  0  2  0  0  0  0  0  0  0  0  0
   20.8904   14.4270    2.3239 C   0  0  0  0  0  0  0  0  0  0  0  0
   22.0304   14.0767    2.1895 C   0  0  0  0  0  0  0  0  0  0  0  0
   23.0519   13.6095    1.3282 C   0  0  0  0  0  0  0  0  0  0  0  0
   22.8558   13.6423   -0.0281 N   0  0  0  0  0  0  0  0  0  0  0  0
   23.8047   13.0486   -0.7633 N   0  0  0  0  0  0  0  0  0  0  0  0
   24.6956   12.6212    0.1443 C   0  0  0  0  0  0  0  0  0  0  0  0
   25.8849   11.9087   -0.0607 C   0  0  0  0  0  0  0  0  0  0  0  0
   26.5846   11.6269    1.1281 C   0  0  0  0  0  0  0  0  0  0  0  0
   26.1289   12.0193    2.4257 C   0  0  0  0  0  0  0  0  0  0  0  0
   24.9363   12.7355    2.6660 C   0  0  0  0  0  0  0  0  0  0  0  0
   24.2658   13.0012    1.4775 C   0  0  0  0  0  0  0  0  0  0  0  0
   19.0965   13.7283    0.7802 C   0  0  0  0  0  0  0  0  0  0  0  0
   18.4735   12.5417    1.2130 C   0  0  0  0  0  0  0  0  0  0  0  0
   18.0457   11.5708    0.3036 C   0  0  0  0  0  0  0  0  0  0  0  0
   18.2496   11.7575   -1.0593 C   0  0  0  0  0  0  0  0  0  0  0  0
   18.8696   12.9178   -1.5138 C   0  0  0  0  0  0  0  0  0  0  0  0
   19.2833   13.8954   -0.6049 C   0  0  0  0  0  0  0  0  0  0  0  0
   18.4982   15.1341    2.7887 C   0  0  0  0  0  0  0  0  0  0  0  0
   17.9752   14.3752    3.5939 O   0  0  0  0  0  0  0  0  0  0  0  0
   18.0942   16.5600    2.6141 C   0  0  0  0  0  0  0  0  0  0  0  0
  1  2  1  0
  2  3  2  0
  3  4  1  0
  4  5  1  1
  5  6  3  0
  6  7  1  0
  7  8  1  0
  8  9  1  0
  9 10  2  0
 10 11  1  0
 11 12  2  0
 12 13  1  0
 13 14  2  0
 14 15  1  0
  4 16  1  0
 16 17  2  0
 17 18  1  0
 18 19  2  0
 19 20  1  0
 20 21  2  0
  4 22  1  0
 22 23  2  0
 22 24  1  0
 24  2  1  0
 15  7  2  0
 21 16  1  0
 15 10  1  0
M  END
>  <ref_pdb>  (20) 
A0207a

>  <tags>  (20) 
{'fragmenstein_placed', 'openbind_a71ev2a_c1_fragmenstein'}

>  <distance_score>  (20) 
0.989476

>  <energy_score>  (20) 
-17.745192

>  <inchikey>  (20) 
WVCRQGVMFRYXPW-UHFFFAOYSA-N

>  <alias>  (20) 
CC1=N[C@](C#Cc2[nH]nc3ccccc23)(c2ccccc2)C(=O)C1

>  <smiles>  (20) 
C140626-P51

>  <HIPPO Pose ID>  (20) 
36817

>  <ref_mols>  (20) 
A0486a,A0239a

>  <HIPPO Compound ID>  (20) 
140626

$$$$
CCS(=O)(=O)N[C@H](CS(N)(=O)=O)c1ccc2c(c1)OCO2
     RDKit          3D

 21 22  0  0  0  0  0  0  0  0999 V2000
    5.6778   17.3700   27.6790 C   0  0  0  0  0  0  0  0  0  0  0  0
    6.5775   16.4844   28.5124 C   0  0  0  0  0  0  0  0  0  0  0  0
    7.9259   15.7421   27.6012 S   0  0  0  0  0  0  0  0  0  0  0  0
    8.8429   16.7920   27.2276 O   0  0  0  0  0  0  0  0  0  0  0  0
    8.3916   14.5821   28.3134 O   0  0  0  0  0  0  0  0  0  0  0  0
    7.2661   15.2521   26.1660 N   0  0  0  0  0  0  0  0  0  0  0  0
    6.4297   14.0695   25.9272 C   0  0  2  0  0  0  0  0  0  0  0  0
    5.3086   13.8204   26.9464 C   0  0  0  0  0  0  0  0  0  0  0  0
    5.6942   12.8881   28.4445 S   0  0  0  0  0  0  0  0  0  0  0  0
    4.6357   11.5870   28.3341 N   0  0  0  0  0  0  0  0  0  0  0  0
    5.1859   13.5991   29.5962 O   0  0  0  0  0  0  0  0  0  0  0  0
    6.9742   12.2353   28.4545 O   0  0  0  0  0  0  0  0  0  0  0  0
    7.1610   12.8429   25.4160 C   0  0  0  0  0  0  0  0  0  0  0  0
    6.5583   11.5926   25.6321 C   0  0  0  0  0  0  0  0  0  0  0  0
    7.1722   10.4151   25.2959 C   0  0  0  0  0  0  0  0  0  0  0  0
    8.3110   10.4843   24.5627 C   0  0  0  0  0  0  0  0  0  0  0  0
    8.8896   11.6770   24.2297 C   0  0  0  0  0  0  0  0  0  0  0  0
    8.3566   12.8798   24.6685 C   0  0  0  0  0  0  0  0  0  0  0  0
    9.9722   11.4779   23.4314 O   0  0  0  0  0  0  0  0  0  0  0  0
    9.9610   10.0292   23.2915 C   0  0  0  0  0  0  0  0  0  0  0  0
    8.9042    9.4021   24.0213 O   0  0  0  0  0  0  0  0  0  0  0  0
  1  2  1  0
  2  3  1  0
  3  4  2  0
  3  5  2  0
  3  6  1  0
  6  7  1  0
  7  8  1  1
  8  9  1  0
  9 10  1  0
  9 11  2  0
  9 12  2  0
  7 13  1  0
 13 14  2  0
 14 15  1  0
 15 16  2  0
 16 17  1  0
 17 18  2  0
 17 19  1  0
 19 20  1  0
 20 21  1  0
 18 13  1  0
 21 16  1  0
M  END
>  <ref_pdb>  (21) 
A0207a

>  <tags>  (21) 
{'fragmenstein_placed', 'openbind_a71ev2a_c1_fragmenstein'}

>  <distance_score>  (21) 
0.996858

>  <energy_score>  (21) 
-44.034687

>  <inchikey>  (21) 
ISCVVQNSXGDQLC-UHFFFAOYSA-N

>  <alias>  (21) 
CCS(=O)(=O)N[C@H](CS(N)(=O)=O)c1ccc2c(c1)OCO2

>  <smiles>  (21) 
C224261-P56

>  <HIPPO Pose ID>  (21) 
36843

>  <ref_mols>  (21) 
A0351a,A0450a

>  <HIPPO Compound ID>  (21) 
224261

$$$$
CCS(=O)(=O)NCc1cc2c(cc1NC(=O)C[C@@H](C)C(F)(F)F)O[C@H](C)O2
     RDKit          3D

 27 28  0  0  0  0  0  0  0  0999 V2000
    4.9901   16.8905   27.5797 C   0  0  0  0  0  0  0  0  0  0  0  0
    5.9289   15.9102   28.2440 C   0  0  0  0  0  0  0  0  0  0  0  0
    7.5415   15.8167   27.4715 S   0  0  0  0  0  0  0  0  0  0  0  0
    8.1269   17.1335   27.5362 O   0  0  0  0  0  0  0  0  0  0  0  0
    8.2353   14.6594   27.9820 O   0  0  0  0  0  0  0  0  0  0  0  0
    7.2358   15.5546   25.8516 N   0  0  0  0  0  0  0  0  0  0  0  0
    6.4309   14.4177   25.4125 C   0  0  0  0  0  0  0  0  0  0  0  0
    7.1051   13.0716   25.3638 C   0  0  0  0  0  0  0  0  0  0  0  0
    8.1442   12.8628   24.4189 C   0  0  0  0  0  0  0  0  0  0  0  0
    8.6042   11.5783   24.2213 C   0  0  0  0  0  0  0  0  0  0  0  0
    8.0292   10.5267   24.8823 C   0  0  0  0  0  0  0  0  0  0  0  0
    7.0381   10.6897   25.8125 C   0  0  0  0  0  0  0  0  0  0  0  0
    6.6358   11.9768   26.1345 C   0  0  0  0  0  0  0  0  0  0  0  0
    5.9381   12.1401   27.3355 N   0  0  0  0  0  0  0  0  0  0  0  0
    5.3852   11.0785   28.3387 C   0  0  0  0  0  0  0  0  0  0  0  0
    5.3633    9.9100   28.2706 O   0  0  0  0  0  0  0  0  0  0  0  0
    4.9172   11.7993   29.5987 C   0  0  0  0  0  0  0  0  0  0  0  0
    5.9940   11.7933   30.7125 C   0  0  1  0  0  0  0  0  0  0  0  0
    6.4845   10.3899   31.0672 C   0  0  0  0  0  0  0  0  0  0  0  0
    7.1537   12.7000   30.3622 C   0  0  0  0  0  0  0  0  0  0  0  0
    7.7598   12.2899   29.2393 F   0  0  0  0  0  0  0  0  0  0  0  0
    8.0663   12.7361   31.3523 F   0  0  0  0  0  0  0  0  0  0  0  0
    6.6945   13.9556   30.1699 F   0  0  0  0  0  0  0  0  0  0  0  0
    8.5587    9.3275   24.5364 O   0  0  0  0  0  0  0  0  0  0  0  0
    9.3486    9.7260   23.4146 C   0  0  2  0  0  0  0  0  0  0  0  0
   10.5757    8.8808   23.2770 C   0  0  0  0  0  0  0  0  0  0  0  0
    9.5823   11.1514   23.3716 O   0  0  0  0  0  0  0  0  0  0  0  0
  1  2  1  0
  2  3  1  0
  3  4  2  0
  3  5  2  0
  3  6  1  0
  6  7  1  0
  7  8  1  0
  8  9  2  0
  9 10  1  0
 10 11  2  0
 11 12  1  0
 12 13  2  0
 13 14  1  0
 14 15  1  0
 15 16  2  0
 15 17  1  0
 17 18  1  0
 18 19  1  6
 18 20  1  0
 20 21  1  0
 20 22  1  0
 20 23  1  0
 11 24  1  0
 24 25  1  0
 25 26  1  1
 25 27  1  0
 13  8  1  0
 27 10  1  0
M  END
>  <ref_pdb>  (22) 
A0207a

>  <tags>  (22) 
{'fragmenstein_placed', 'openbind_a71ev2a_c1_fragmenstein'}

>  <distance_score>  (22) 
0.938126

>  <energy_score>  (22) 
-40.196724

>  <inchikey>  (22) 
CTSOVUWPVNQORE-UHFFFAOYSA-N

>  <alias>  (22) 
CCS(=O)(=O)NCc1cc2c(cc1NC(=O)C[C@@H](C)C(F)(F)F)O[C@H](C)O2

>  <smiles>  (22) 
C224274-P56

>  <HIPPO Pose ID>  (22) 
36852

>  <ref_mols>  (22) 
A0351a,A0365a

>  <HIPPO Compound ID>  (22) 
224274

$$$$
CCS(=O)(=O)NCc1ccc2c(c1C(=O)N1CC(O)C1)OCO2
     RDKit          3D

 23 25  0  0  0  0  0  0  0  0999 V2000
    4.8776   16.4472   27.6383 C   0  0  0  0  0  0  0  0  0  0  0  0
    5.8789   15.4085   28.0912 C   0  0  0  0  0  0  0  0  0  0  0  0
    7.4939   15.6053   27.3450 S   0  0  0  0  0  0  0  0  0  0  0  0
    7.9383   16.9604   27.5773 O   0  0  0  0  0  0  0  0  0  0  0  0
    8.3071   14.4828   27.7532 O   0  0  0  0  0  0  0  0  0  0  0  0
    7.2538   15.5090   25.6975 N   0  0  0  0  0  0  0  0  0  0  0  0
    6.4783   14.4285   25.0800 C   0  0  0  0  0  0  0  0  0  0  0  0
    7.1497   13.0838   24.9883 C   0  0  0  0  0  0  0  0  0  0  0  0
    6.6429   12.0410   25.7991 C   0  0  0  0  0  0  0  0  0  0  0  0
    7.1106   10.7349   25.6709 C   0  0  0  0  0  0  0  0  0  0  0  0
    8.1282   10.4939   24.7771 C   0  0  0  0  0  0  0  0  0  0  0  0
    8.6819   11.4935   24.0289 C   0  0  0  0  0  0  0  0  0  0  0  0
    8.1933   12.7917   24.0812 C   0  0  0  0  0  0  0  0  0  0  0  0
    8.6596   13.7420   23.0364 C   0  0  0  0  0  0  0  0  0  0  0  0
    7.8972   14.5023   22.5641 O   0  0  0  0  0  0  0  0  0  0  0  0
   10.0985   13.4669   22.6938 N   0  0  0  0  0  0  0  0  0  0  0  0
   11.0505   14.3602   23.5041 C   0  0  0  0  0  0  0  0  0  0  0  0
   11.0659   15.2918   22.3200 C   0  0  0  0  0  0  0  0  0  0  0  0
   12.2382   16.0800   22.1548 O   0  0  0  0  0  0  0  0  0  0  0  0
   10.9689   14.0075   21.5798 C   0  0  0  0  0  0  0  0  0  0  0  0
    9.6343   11.0111   23.1825 O   0  0  0  0  0  0  0  0  0  0  0  0
    9.6275    9.6154   23.4673 C   0  0  0  0  0  0  0  0  0  0  0  0
    8.6315    9.2739   24.4552 O   0  0  0  0  0  0  0  0  0  0  0  0
  1  2  1  0
  2  3  1  0
  3  4  2  0
  3  5  2  0
  3  6  1  0
  6  7  1  0
  7  8  1  0
  8  9  2  0
  9 10  1  0
 10 11  2  0
 11 12  1  0
 12 13  2  0
 13 14  1  0
 14 15  2  0
 14 16  1  0
 16 17  1  0
 17 18  1  0
 18 19  1  0
 18 20  1  0
 12 21  1  0
 21 22  1  0
 22 23  1  0
 13  8  1  0
 20 16  1  0
 23 11  1  0
M  END
>  <ref_pdb>  (23) 
A0207a

>  <tags>  (23) 
{'fragmenstein_placed', 'openbind_a71ev2a_c1_fragmenstein'}

>  <distance_score>  (23) 
0.948025

>  <energy_score>  (23) 
-38.606569

>  <inchikey>  (23) 
FQRZQBJCBUZPFL-UHFFFAOYSA-N

>  <alias>  (23) 
CCS(=O)(=O)NCc1ccc2c(c1C(=O)N1CC(O)C1)OCO2

>  <smiles>  (23) 
C224459-P56

>  <HIPPO Pose ID>  (23) 
37022

>  <ref_mols>  (23) 
A0351a,A4570a

>  <HIPPO Compound ID>  (23) 
224459

$$$$
N[C@H](Nc1ccn(CO)n1)c1ccccc1
     RDKit          3D

 16 17  0  0  0  0  0  0  0  0999 V2000
    7.5993   22.7072   26.3294 N   0  0  0  0  0  0  0  0  0  0  0  0
    8.8099   22.2179   26.9775 C   0  0  2  0  0  0  0  0  0  0  0  0
    9.0264   22.5699   28.3627 N   0  0  0  0  0  0  0  0  0  0  0  0
    8.9333   23.8231   28.8487 C   0  0  0  0  0  0  0  0  0  0  0  0
    9.3352   25.0178   28.2143 C   0  0  0  0  0  0  0  0  0  0  0  0
    9.0439   26.0207   29.1084 C   0  0  0  0  0  0  0  0  0  0  0  0
    8.5092   25.4010   30.1997 N   0  0  0  0  0  0  0  0  0  0  0  0
    8.0712   26.0056   31.4507 C   0  0  0  0  0  0  0  0  0  0  0  0
    7.8964   27.4137   31.3039 O   0  0  0  0  0  0  0  0  0  0  0  0
    8.4466   24.0604   30.0676 N   0  0  0  0  0  0  0  0  0  0  0  0
   10.0793   22.4430   26.1493 C   0  0  0  0  0  0  0  0  0  0  0  0
   11.1910   21.6189   26.3913 C   0  0  0  0  0  0  0  0  0  0  0  0
   12.3781   21.7622   25.6713 C   0  0  0  0  0  0  0  0  0  0  0  0
   12.4844   22.7475   24.6982 C   0  0  0  0  0  0  0  0  0  0  0  0
   11.4060   23.5938   24.4561 C   0  0  0  0  0  0  0  0  0  0  0  0
   10.2108   23.4376   25.1660 C   0  0  0  0  0  0  0  0  0  0  0  0
  2  1  1  6
  2  3  1  0
  3  4  1  0
  4  5  1  0
  5  6  2  0
  6  7  1  0
  7  8  1  0
  8  9  1  0
  7 10  1  0
  2 11  1  0
 11 12  2  0
 12 13  1  0
 13 14  2  0
 14 15  1  0
 15 16  2  0
 10  4  2  0
 16 11  1  0
M  END
>  <ref_pdb>  (24) 
A0207a

>  <tags>  (24) 
{'fragmenstein_placed', 'openbind_a71ev2a_c1_fragmenstein'}

>  <distance_score>  (24) 
0.796466

>  <energy_score>  (24) 
-19.866402

>  <inchikey>  (24) 
QQECAXFDBXEVIN-UHFFFAOYSA-N

>  <alias>  (24) 
N[C@H](Nc1ccn(CO)n1)c1ccccc1

>  <smiles>  (24) 
C224597-P59

>  <HIPPO Pose ID>  (24) 
37149

>  <ref_mols>  (24) 
A0229a,A0359a

>  <HIPPO Compound ID>  (24) 
224597

$$$$
CO[C@@H]1CC[C@@]2(C[C@@H](NCc3ccccc3)NN2C)C2=C1C(=O)C(=O)N2
     RDKit          3D

 26 29  0  0  0  0  0  0  0  0999 V2000
   11.1722   14.9423   20.6551 C   0  0  0  0  0  0  0  0  0  0  0  0
   10.3293   14.0839   21.4125 O   0  0  0  0  0  0  0  0  0  0  0  0
   10.1703   14.5146   22.7588 C   0  0  2  0  0  0  0  0  0  0  0  0
   11.0634   13.6978   23.6833 C   0  0  0  0  0  0  0  0  0  0  0  0
   10.6611   12.2227   23.5925 C   0  0  0  0  0  0  0  0  0  0  0  0
    9.1872   11.8315   23.9899 C   0  0  2  0  0  0  0  0  0  0  0  0
    8.8493   11.6467   25.4562 C   0  0  0  0  0  0  0  0  0  0  0  0
    7.7982   10.5574   25.6202 C   0  0  1  0  0  0  0  0  0  0  0  0
    6.3800   10.8111   25.6942 N   0  0  0  0  0  0  0  0  0  0  0  0
    5.8969   11.6955   26.7503 C   0  0  0  0  0  0  0  0  0  0  0  0
    6.4222   11.4521   28.1405 C   0  0  0  0  0  0  0  0  0  0  0  0
    6.1842   10.2524   28.8230 C   0  0  0  0  0  0  0  0  0  0  0  0
    6.6574   10.0817   30.1263 C   0  0  0  0  0  0  0  0  0  0  0  0
    7.3700   11.1020   30.7563 C   0  0  0  0  0  0  0  0  0  0  0  0
    7.6053   12.3009   30.0896 C   0  0  0  0  0  0  0  0  0  0  0  0
    7.1306   12.4762   28.7913 C   0  0  0  0  0  0  0  0  0  0  0  0
    7.9906    9.7524   24.4466 N   0  0  0  0  0  0  0  0  0  0  0  0
    8.8230   10.4792   23.4916 N   0  0  0  0  0  0  0  0  0  0  0  0
    9.8780    9.5553   23.0474 C   0  0  0  0  0  0  0  0  0  0  0  0
    8.3327   13.0486   23.6578 C   0  0  0  0  0  0  0  0  0  0  0  0
    8.7858   14.2161   23.1664 C   0  0  0  0  0  0  0  0  0  0  0  0
    7.6469   15.1499   23.2154 C   0  0  0  0  0  0  0  0  0  0  0  0
    7.6153   16.2953   22.8450 O   0  0  0  0  0  0  0  0  0  0  0  0
    6.4987   14.3919   23.8786 C   0  0  0  0  0  0  0  0  0  0  0  0
    5.4307   14.8363   24.2294 O   0  0  0  0  0  0  0  0  0  0  0  0
    7.0209   13.1390   24.0120 N   0  0  0  0  0  0  0  0  0  0  0  0
  1  2  1  0
  3  2  1  6
  3  4  1  0
  4  5  1  0
  6  5  1  1
  6  7  1  0
  7  8  1  0
  8  9  1  6
  9 10  1  0
 10 11  1  0
 11 12  2  0
 12 13  1  0
 13 14  2  0
 14 15  1  0
 15 16  2  0
  8 17  1  0
 17 18  1  0
 18 19  1  0
  6 20  1  0
 20 21  2  0
 21 22  1  0
 22 23  2  0
 22 24  1  0
 24 25  2  0
 24 26  1  0
 21  3  1  0
 18  6  1  0
 26 20  1  0
 16 11  1  0
M  END
>  <ref_pdb>  (25) 
A0207a

>  <tags>  (25) 
{'fragmenstein_placed', 'openbind_a71ev2a_c1_fragmenstein'}

>  <distance_score>  (25) 
0.992381

>  <energy_score>  (25) 
-33.584485

>  <inchikey>  (25) 
NRGXOCHABHARIE-UHFFFAOYSA-N

>  <alias>  (25) 
CO[C@@H]1CC[C@@]2(C[C@@H](NCc3ccccc3)NN2C)C2=C1C(=O)C(=O)N2

>  <smiles>  (25) 
C206533-P60

>  <HIPPO Pose ID>  (25) 
37158

>  <ref_mols>  (25) 
A0554a,A0365a

>  <HIPPO Compound ID>  (25) 
206533

$$$$
c1ccc(CNc2n[nH]c3c2SCC3)cc1
     RDKit          3D

 16 18  0  0  0  0  0  0  0  0999 V2000
    7.4044   11.4020   30.7638 C   0  0  0  0  0  0  0  0  0  0  0  0
    6.8844   10.1662   30.3827 C   0  0  0  0  0  0  0  0  0  0  0  0
    6.3157   10.0052   29.1174 C   0  0  0  0  0  0  0  0  0  0  0  0
    6.2592   11.0819   28.2190 C   0  0  0  0  0  0  0  0  0  0  0  0
    5.6447   10.9113   26.8495 C   0  0  0  0  0  0  0  0  0  0  0  0
    6.3820    9.9713   26.0382 N   0  0  0  0  0  0  0  0  0  0  0  0
    7.4796   10.2557   25.3097 C   0  0  0  0  0  0  0  0  0  0  0  0
    8.1978    9.2638   24.7637 N   0  0  0  0  0  0  0  0  0  0  0  0
    9.2190    9.8686   24.1128 N   0  0  0  0  0  0  0  0  0  0  0  0
    9.1712   11.2166   24.2437 C   0  0  0  0  0  0  0  0  0  0  0  0
    8.0543   11.4904   24.9728 C   0  0  0  0  0  0  0  0  0  0  0  0
    7.8209   13.1875   25.1954 S   0  0  0  0  0  0  0  0  0  0  0  0
    9.2610   13.6063   24.0908 C   0  0  0  0  0  0  0  0  0  0  0  0
   10.0682   12.3095   23.8234 C   0  0  0  0  0  0  0  0  0  0  0  0
    6.7688   12.3240   28.6250 C   0  0  0  0  0  0  0  0  0  0  0  0
    7.3456   12.4813   29.8860 C   0  0  0  0  0  0  0  0  0  0  0  0
  1  2  2  0
  2  3  1  0
  3  4  2  0
  4  5  1  0
  5  6  1  0
  6  7  1  0
  7  8  2  0
  8  9  1  0
  9 10  1  0
 10 11  2  0
 11 12  1  0
 12 13  1  0
 13 14  1  0
  4 15  1  0
 15 16  2  0
 16  1  1  0
 11  7  1  0
 14 10  1  0
M  END
>  <ref_pdb>  (26) 
A0207a

>  <tags>  (26) 
{'fragmenstein_placed', 'openbind_a71ev2a_c1_fragmenstein'}

>  <distance_score>  (26) 
0.655363

>  <energy_score>  (26) 
-14.594214

>  <inchikey>  (26) 
RMGPEBAHBGDSEW-UHFFFAOYSA-N

>  <alias>  (26) 
c1ccc(CNc2n[nH]c3c2SCC3)cc1

>  <smiles>  (26) 
C224826-P60

>  <HIPPO Pose ID>  (26) 
37352

>  <ref_mols>  (26) 
A0365a,A4650a

>  <HIPPO Compound ID>  (26) 
224826

$$$$
COc1ccccc1[C@@H](CCS)C(=O)c1nn(C)cc1N
     RDKit          3D

 21 22  0  0  0  0  0  0  0  0999 V2000
    8.2723   14.7438   28.3352 C   0  0  0  0  0  0  0  0  0  0  0  0
    7.7471   13.5273   27.8002 O   0  0  0  0  0  0  0  0  0  0  0  0
    7.4211   12.5401   28.6923 C   0  0  0  0  0  0  0  0  0  0  0  0
    7.9508   12.4851   29.9891 C   0  0  0  0  0  0  0  0  0  0  0  0
    7.6649   11.4141   30.8367 C   0  0  0  0  0  0  0  0  0  0  0  0
    6.8529   10.3794   30.3963 C   0  0  0  0  0  0  0  0  0  0  0  0
    6.3087   10.4309   29.1156 C   0  0  0  0  0  0  0  0  0  0  0  0
    6.5642   11.5179   28.2455 C   0  0  0  0  0  0  0  0  0  0  0  0
    5.8129   11.5054   26.9191 C   0  0  1  0  0  0  0  0  0  0  0  0
    5.4887   12.7997   26.1681 C   0  0  0  0  0  0  0  0  0  0  0  0
    4.8950   13.9289   26.9926 C   0  0  0  0  0  0  0  0  0  0  0  0
    4.9419   15.4631   26.0188 S   0  0  0  0  0  0  0  0  0  0  0  0
    6.2543   10.3785   25.9764 C   0  0  0  0  0  0  0  0  0  0  0  0
    5.4358    9.4605   25.8089 O   0  0  0  0  0  0  0  0  0  0  0  0
    7.5474   10.3625   25.2467 C   0  0  0  0  0  0  0  0  0  0  0  0
    7.9601    9.1995   24.6906 N   0  0  0  0  0  0  0  0  0  0  0  0
    9.0016    9.5220   23.9057 N   0  0  0  0  0  0  0  0  0  0  0  0
    9.5701    8.5542   22.9984 C   0  0  0  0  0  0  0  0  0  0  0  0
    9.3642   10.8262   24.0147 C   0  0  0  0  0  0  0  0  0  0  0  0
    8.4773   11.3850   24.8945 C   0  0  0  0  0  0  0  0  0  0  0  0
    8.5562   12.6831   25.2213 N   0  0  0  0  0  0  0  0  0  0  0  0
  1  2  1  0
  2  3  1  0
  3  4  2  0
  4  5  1  0
  5  6  2  0
  6  7  1  0
  7  8  2  0
  8  9  1  0
  9 10  1  6
 10 11  1  0
 11 12  1  0
  9 13  1  0
 13 14  2  0
 13 15  1  0
 15 16  2  0
 16 17  1  0
 17 18  1  0
 17 19  1  0
 19 20  2  0
 20 21  1  0
  8  3  1  0
 20 15  1  0
M  END
>  <ref_pdb>  (27) 
A0207a

>  <tags>  (27) 
{'fragmenstein_placed', 'openbind_a71ev2a_c1_fragmenstein'}

>  <distance_score>  (27) 
0.758751

>  <energy_score>  (27) 
-53.718426

>  <inchikey>  (27) 
UVHVGUBWEQMBKH-UHFFFAOYSA-N

>  <alias>  (27) 
COc1ccccc1[C@@H](CCS)C(=O)c1nn(C)cc1N

>  <smiles>  (27) 
C224908-P60

>  <HIPPO Pose ID>  (27) 
37435

>  <ref_mols>  (27) 
A0365a,A5249a

>  <HIPPO Compound ID>  (27) 
224908

$$$$
COCC(=O)Nc1c(C)cc(C)cc1CNCCc1cocn1
     RDKit          3D

 23 24  0  0  0  0  0  0  0  0999 V2000
    7.3001   16.9282   28.2669 C   0  0  0  0  0  0  0  0  0  0  0  0
    6.3639   15.9977   27.7348 O   0  0  0  0  0  0  0  0  0  0  0  0
    6.5066   15.8260   26.3320 C   0  0  0  0  0  0  0  0  0  0  0  0
    7.7466   14.9845   25.9806 C   0  0  0  0  0  0  0  0  0  0  0  0
    8.8336   15.3990   26.1048 O   0  0  0  0  0  0  0  0  0  0  0  0
    7.2473   13.5887   25.5034 N   0  0  0  0  0  0  0  0  0  0  0  0
    7.9634   12.4815   25.0049 C   0  0  0  0  0  0  0  0  0  0  0  0
    7.2445   11.2578   25.0874 C   0  0  0  0  0  0  0  0  0  0  0  0
    6.0197   11.1125   25.9612 C   0  0  0  0  0  0  0  0  0  0  0  0
    7.7087   10.1065   24.4365 C   0  0  0  0  0  0  0  0  0  0  0  0
    8.8547   10.1435   23.6635 C   0  0  0  0  0  0  0  0  0  0  0  0
    9.3824    8.9206   22.9797 C   0  0  0  0  0  0  0  0  0  0  0  0
    9.5953   11.3181   23.6533 C   0  0  0  0  0  0  0  0  0  0  0  0
    9.2381   12.4618   24.4070 C   0  0  0  0  0  0  0  0  0  0  0  0
   10.3975   13.3727   24.7327 C   0  0  0  0  0  0  0  0  0  0  0  0
   10.9178   14.2417   23.7157 N   0  0  0  0  0  0  0  0  0  0  0  0
   11.9257   13.6451   22.8496 C   0  0  0  0  0  0  0  0  0  0  0  0
   12.4213   14.6707   21.8501 C   0  0  0  0  0  0  0  0  0  0  0  0
   11.3418   15.1541   20.9774 C   0  0  0  0  0  0  0  0  0  0  0  0
   11.2738   15.1980   19.6113 C   0  0  0  0  0  0  0  0  0  0  0  0
   10.1879   15.9572   19.2757 O   0  0  0  0  0  0  0  0  0  0  0  0
    9.6412   16.2801   20.4863 C   0  0  0  0  0  0  0  0  0  0  0  0
   10.2233   15.7223   21.5106 N   0  0  0  0  0  0  0  0  0  0  0  0
  1  2  1  0
  2  3  1  0
  3  4  1  0
  4  5  2  0
  4  6  1  0
  6  7  1  0
  7  8  2  0
  8  9  1  0
  8 10  1  0
 10 11  2  0
 11 12  1  0
 11 13  1  0
 13 14  2  0
 14 15  1  0
 15 16  1  0
 16 17  1  0
 17 18  1  0
 18 19  1  0
 19 20  2  0
 20 21  1  0
 21 22  1  0
 22 23  2  0
 14  7  1  0
 23 19  1  0
M  END
>  <ref_pdb>  (28) 
A0207a

>  <tags>  (28) 
{'fragmenstein_placed', 'openbind_a71ev2a_c1_fragmenstein'}

>  <distance_score>  (28) 
0.985927

>  <energy_score>  (28) 
-11.630394

>  <inchikey>  (28) 
VBSRSIBHLLKMRD-UHFFFAOYSA-N

>  <alias>  (28) 
COCC(=O)Nc1c(C)cc(C)cc1CNCCc1cocn1

>  <smiles>  (28) 
C225591-P65

>  <HIPPO Pose ID>  (28) 
38313

>  <ref_mols>  (28) 
A0387a,A0528a

>  <HIPPO Compound ID>  (28) 
225591

$$$$
COC[C@@](O)(Nc1c(C)cc(C)cc1C)[C@@H]1CCCO1
     RDKit          3D

 20 21  0  0  0  0  0  0  0  0999 V2000
    7.5888   16.5165   28.0225 C   0  0  0  0  0  0  0  0  0  0  0  0
    6.7973   15.4177   27.5911 O   0  0  0  0  0  0  0  0  0  0  0  0
    6.2856   15.5811   26.2542 C   0  0  0  0  0  0  0  0  0  0  0  0
    7.1049   14.7966   25.1708 C   0  0  1  0  0  0  0  0  0  0  0  0
    8.4433   15.1605   25.4363 O   0  0  0  0  0  0  0  0  0  0  0  0
    7.0527   13.3607   25.4355 N   0  0  0  0  0  0  0  0  0  0  0  0
    7.7400   12.3177   24.7871 C   0  0  0  0  0  0  0  0  0  0  0  0
    7.2590   11.0086   25.1004 C   0  0  0  0  0  0  0  0  0  0  0  0
    6.1210   10.8047   26.0731 C   0  0  0  0  0  0  0  0  0  0  0  0
    7.8184    9.8650   24.5094 C   0  0  0  0  0  0  0  0  0  0  0  0
    8.8825    9.9609   23.6289 C   0  0  0  0  0  0  0  0  0  0  0  0
    9.4784    8.7529   22.9812 C   0  0  0  0  0  0  0  0  0  0  0  0
    9.4258   11.2157   23.3972 C   0  0  0  0  0  0  0  0  0  0  0  0
    8.8947   12.3958   23.9666 C   0  0  0  0  0  0  0  0  0  0  0  0
    9.7013   13.6212   23.6162 C   0  0  0  0  0  0  0  0  0  0  0  0
    6.5368   15.1839   23.7550 C   0  0  2  0  0  0  0  0  0  0  0  0
    5.0185   15.3067   23.6657 C   0  0  0  0  0  0  0  0  0  0  0  0
    4.7864   15.2737   22.1828 C   0  0  0  0  0  0  0  0  0  0  0  0
    5.8480   14.3300   21.7054 C   0  0  0  0  0  0  0  0  0  0  0  0
    6.8367   14.2187   22.7203 O   0  0  0  0  0  0  0  0  0  0  0  0
  1  2  1  0
  2  3  1  0
  3  4  1  0
  4  5  1  6
  4  6  1  0
  6  7  1  0
  7  8  2  0
  8  9  1  0
  8 10  1  0
 10 11  2  0
 11 12  1  0
 11 13  1  0
 13 14  2  0
 14 15  1  0
  4 16  1  0
 16 17  1  1
 17 18  1  0
 18 19  1  0
 19 20  1  0
 14  7  1  0
 20 16  1  0
M  END
>  <ref_pdb>  (29) 
A0207a

>  <tags>  (29) 
{'fragmenstein_placed', 'openbind_a71ev2a_c1_fragmenstein'}

>  <distance_score>  (29) 
0.928159

>  <energy_score>  (29) 
-14.773643

>  <inchikey>  (29) 
RHLCJNOASWSNMI-UHFFFAOYSA-N

>  <alias>  (29) 
COC[C@@](O)(Nc1c(C)cc(C)cc1C)[C@@H]1CCCO1

>  <smiles>  (29) 
C225528-P65

>  <HIPPO Pose ID>  (29) 
38543

>  <ref_mols>  (29) 
A0387a,A5258a

>  <HIPPO Compound ID>  (29) 
225528

$$$$
Cc1ccc2nc(C)c(O)n2c1
     RDKit          3D

 12 13  0  0  0  0  0  0  0  0999 V2000
    5.4701   13.6813   28.0104 C   0  0  0  0  0  0  0  0  0  0  0  0
    6.0775   12.5769   27.2075 C   0  0  0  0  0  0  0  0  0  0  0  0
    5.6205   11.2169   27.4803 C   0  0  0  0  0  0  0  0  0  0  0  0
    6.1232   10.1600   26.8179 C   0  0  0  0  0  0  0  0  0  0  0  0
    7.1352   10.3553   25.8398 C   0  0  0  0  0  0  0  0  0  0  0  0
    7.8177    9.4864   25.1346 N   0  0  0  0  0  0  0  0  0  0  0  0
    8.6514   10.2316   24.3283 C   0  0  0  0  0  0  0  0  0  0  0  0
    9.5484    9.5121   23.3885 C   0  0  0  0  0  0  0  0  0  0  0  0
    8.4760   11.5929   24.5567 C   0  0  0  0  0  0  0  0  0  0  0  0
    9.0133   12.6889   24.0142 O   0  0  0  0  0  0  0  0  0  0  0  0
    7.5225   11.6612   25.5623 N   0  0  0  0  0  0  0  0  0  0  0  0
    7.0035   12.7632   26.2447 C   0  0  0  0  0  0  0  0  0  0  0  0
  1  2  1  0
  2  3  1  0
  3  4  2  0
  4  5  1  0
  5  6  2  0
  6  7  1  0
  7  8  1  0
  7  9  2  0
  9 10  1  0
  9 11  1  0
 11 12  1  0
 12  2  2  0
 11  5  1  0
M  END
>  <ref_pdb>  (30) 
A0207a

>  <tags>  (30) 
{'fragmenstein_placed', 'openbind_a71ev2a_c1_fragmenstein'}

>  <distance_score>  (30) 
0.948752

>  <energy_score>  (30) 
-29.436671

>  <inchikey>  (30) 
NIPJUCNGLLJJFA-UHFFFAOYSA-N

>  <alias>  (30) 
Cc1ccc2nc(C)c(O)n2c1

>  <smiles>  (30) 
C226551-P73

>  <HIPPO Pose ID>  (30) 
39158

>  <ref_mols>  (30) 
A0437a,A4826b

>  <HIPPO Compound ID>  (30) 
226551

$$$$
COC[C@H]1CC[C@H]2N[C@@H](C)C(=O)N2C1
     RDKit          3D

 14 15  0  0  0  0  0  0  0  0999 V2000
    5.9105   13.7731   30.3008 C   0  0  0  0  0  0  0  0  0  0  0  0
    4.9734   13.5868   29.2489 O   0  0  0  0  0  0  0  0  0  0  0  0
    5.5359   13.7958   27.9525 C   0  0  0  0  0  0  0  0  0  0  0  0
    6.2292   12.5371   27.4235 C   0  0  1  0  0  0  0  0  0  0  0  0
    5.2563   11.3402   27.3907 C   0  0  0  0  0  0  0  0  0  0  0  0
    5.7773   10.1302   26.6046 C   0  0  0  0  0  0  0  0  0  0  0  0
    7.2002   10.3328   26.1299 C   0  0  1  0  0  0  0  0  0  0  0  0
    7.7050    9.3438   25.1992 N   0  0  0  0  0  0  0  0  0  0  0  0
    8.8374   10.0352   24.5386 C   0  0  1  0  0  0  0  0  0  0  0  0
    9.3295    9.3759   23.2735 C   0  0  0  0  0  0  0  0  0  0  0  0
    8.4238   11.5074   24.5359 C   0  0  0  0  0  0  0  0  0  0  0  0
    8.9287   12.4387   23.9357 O   0  0  0  0  0  0  0  0  0  0  0  0
    7.4164   11.5795   25.4883 N   0  0  0  0  0  0  0  0  0  0  0  0
    6.8554   12.7951   26.0440 C   0  0  0  0  0  0  0  0  0  0  0  0
  1  2  1  0
  2  3  1  0
  4  3  1  6
  4  5  1  0
  5  6  1  0
  7  6  1  6
  7  8  1  0
  8  9  1  0
  9 10  1  6
  9 11  1  0
 11 12  2  0
 11 13  1  0
 13 14  1  0
 14  4  1  0
 13  7  1  0
M  END
>  <ref_pdb>  (31) 
A0207a

>  <tags>  (31) 
{'fragmenstein_placed', 'openbind_a71ev2a_c1_fragmenstein'}

>  <distance_score>  (31) 
0.847944

>  <energy_score>  (31) 
-32.824833

>  <inchikey>  (31) 
NQUKOMUTPJKZKK-UHFFFAOYSA-N

>  <alias>  (31) 
COC[C@H]1CC[C@H]2N[C@@H](C)C(=O)N2C1

>  <smiles>  (31) 
C226563-P73

>  <HIPPO Pose ID>  (31) 
39163

>  <ref_mols>  (31) 
A0437a,A4873b

>  <HIPPO Compound ID>  (31) 
226563

$$$$
Cc1cccc(C(C)C)c1
     RDKit          3D

 10 10  0  0  0  0  0  0  0  0999 V2000
    9.8797    9.2877   22.9767 C   0  0  0  0  0  0  0  0  0  0  0  0
    9.3661   10.4729   23.7163 C   0  0  0  0  0  0  0  0  0  0  0  0
    8.3181   10.3953   24.6326 C   0  0  0  0  0  0  0  0  0  0  0  0
    7.7973   11.5519   25.2059 C   0  0  0  0  0  0  0  0  0  0  0  0
    8.3825   12.7828   24.9233 C   0  0  0  0  0  0  0  0  0  0  0  0
    9.5012   12.8609   24.0812 C   0  0  0  0  0  0  0  0  0  0  0  0
   10.2562   14.1595   23.9324 C   0  0  0  0  0  0  0  0  0  0  0  0
   11.0179   14.4037   25.2313 C   0  0  0  0  0  0  0  0  0  0  0  0
   11.2287   14.2380   22.7498 C   0  0  0  0  0  0  0  0  0  0  0  0
    9.9473   11.7053   23.4562 C   0  0  0  0  0  0  0  0  0  0  0  0
  1  2  1  0
  2  3  2  0
  3  4  1  0
  4  5  2  0
  5  6  1  0
  6  7  1  0
  7  8  1  0
  7  9  1  0
  6 10  2  0
 10  2  1  0
M  END
>  <ref_pdb>  (32) 
A0207a

>  <tags>  (32) 
{'fragmenstein_placed', 'openbind_a71ev2a_c1_fragmenstein'}

>  <distance_score>  (32) 
0.810617

>  <energy_score>  (32) 
-14.139468

>  <inchikey>  (32) 
XCYJPXQACVEIOS-UHFFFAOYSA-N

>  <alias>  (32) 
Cc1cccc(C(C)C)c1

>  <smiles>  (32) 
C193943-P77

>  <HIPPO Pose ID>  (32) 
39709

>  <ref_mols>  (32) 
A2513a,A2454a,A0719a,A0451a

>  <HIPPO Compound ID>  (32) 
193943

$$$$
Fc1ccc(C[C@@H]2CCCNC2)c2nc[nH]c12
     RDKit          3D

 17 19  0  0  0  0  0  0  0  0999 V2000
    7.4432   11.7188   24.5161 F   0  0  0  0  0  0  0  0  0  0  0  0
    8.7727   11.6069   24.4374 C   0  0  0  0  0  0  0  0  0  0  0  0
    9.4076   10.3841   24.5347 C   0  0  0  0  0  0  0  0  0  0  0  0
   10.8054   10.3179   24.5769 C   0  0  0  0  0  0  0  0  0  0  0  0
   11.6286   11.4824   24.5891 C   0  0  0  0  0  0  0  0  0  0  0  0
   13.0973   11.3285   24.9425 C   0  0  0  0  0  0  0  0  0  0  0  0
   14.0859   12.4386   25.3213 C   0  0  2  0  0  0  0  0  0  0  0  0
   15.5263   12.0062   24.9825 C   0  0  0  0  0  0  0  0  0  0  0  0
   16.1595   11.1967   26.1017 C   0  0  0  0  0  0  0  0  0  0  0  0
   16.2742   12.0351   27.3738 C   0  0  0  0  0  0  0  0  0  0  0  0
   15.3019   13.1326   27.4413 N   0  0  0  0  0  0  0  0  0  0  0  0
   14.0242   12.7463   26.8441 C   0  0  0  0  0  0  0  0  0  0  0  0
   10.9626   12.6840   24.3314 C   0  0  0  0  0  0  0  0  0  0  0  0
   11.4746   13.9323   24.1423 N   0  0  0  0  0  0  0  0  0  0  0  0
   10.4488   14.6636   23.7820 C   0  0  0  0  0  0  0  0  0  0  0  0
    9.2696   14.0038   23.9394 N   0  0  0  0  0  0  0  0  0  0  0  0
    9.5742   12.7131   24.2479 C   0  0  0  0  0  0  0  0  0  0  0  0
  1  2  1  0
  2  3  2  0
  3  4  1  0
  4  5  2  0
  5  6  1  0
  7  6  1  1
  7  8  1  0
  8  9  1  0
  9 10  1  0
 10 11  1  0
 11 12  1  0
  5 13  1  0
 13 14  1  0
 14 15  2  0
 15 16  1  0
 16 17  1  0
 17  2  1  0
 12  7  1  0
 17 13  2  0
M  END
>  <ref_pdb>  (33) 
A0922a

>  <tags>  (33) 
{'fragmenstein_placed', 'openbind_a71ev2a_c1_fragmenstein'}

>  <distance_score>  (33) 
0.972158

>  <energy_score>  (33) 
-2.959909

>  <inchikey>  (33) 
KVOJUNAPEGTLGD-UHFFFAOYSA-N

>  <alias>  (33) 
Fc1ccc(C[C@@H]2CCCNC2)c2nc[nH]c12

>  <smiles>  (33) 
C270367-P106

>  <HIPPO Pose ID>  (33) 
42916

>  <ref_mols>  (33) 
A4786a,A1140a

>  <HIPPO Compound ID>  (33) 
270367

$$$$
Cc1nn(C)c(C)c1CC(=O)N[C@H](CNC(=O)[C@]1(Cl)NCCC[C@H]1S(N)(=O)=O)c1ccc2ccccc2c1
     RDKit          3D

 38 41  0  0  0  0  0  0  0  0999 V2000
    5.5678   10.5130   27.0828 C   0  0  0  0  0  0  0  0  0  0  0  0
    6.7056   10.6290   26.1438 C   0  0  0  0  0  0  0  0  0  0  0  0
    7.1077    9.5553   25.4507 N   0  0  0  0  0  0  0  0  0  0  0  0
    8.1901    9.9721   24.7717 N   0  0  0  0  0  0  0  0  0  0  0  0
    8.9778    9.0321   24.0017 C   0  0  0  0  0  0  0  0  0  0  0  0
    8.4374   11.2983   24.9707 C   0  0  0  0  0  0  0  0  0  0  0  0
    9.4938   12.0352   24.2808 C   0  0  0  0  0  0  0  0  0  0  0  0
    7.5369   11.7544   25.9142 C   0  0  0  0  0  0  0  0  0  0  0  0
    7.6029   13.0573   26.6448 C   0  0  0  0  0  0  0  0  0  0  0  0
    6.7922   14.2805   26.3071 C   0  0  0  0  0  0  0  0  0  0  0  0
    6.6965   15.1234   27.1070 O   0  0  0  0  0  0  0  0  0  0  0  0
    6.2961   14.2250   24.8559 N   0  0  0  0  0  0  0  0  0  0  0  0
    5.4896   15.1591   24.1023 C   0  0  2  0  0  0  0  0  0  0  0  0
    6.3152   16.4219   23.7039 C   0  0  0  0  0  0  0  0  0  0  0  0
    7.6619   16.1936   23.2132 N   0  0  0  0  0  0  0  0  0  0  0  0
    8.1919   15.1978   22.1351 C   0  0  0  0  0  0  0  0  0  0  0  0
    7.6119   14.4678   21.4274 O   0  0  0  0  0  0  0  0  0  0  0  0
    9.8206   15.2706   22.2422 C   0  0  2  0  0  0  0  0  0  0  0  0
   10.3858   13.6163   21.9144 Cl  0  0  0  0  0  0  0  0  0  0  0  0
   10.0693   15.5010   23.7002 N   0  0  0  0  0  0  0  0  0  0  0  0
   11.4450   15.5595   24.1428 C   0  0  0  0  0  0  0  0  0  0  0  0
   12.4644   15.5246   23.0261 C   0  0  0  0  0  0  0  0  0  0  0  0
   12.0860   16.4220   21.8583 C   0  0  0  0  0  0  0  0  0  0  0  0
   10.6149   16.2910   21.4197 C   0  0  1  0  0  0  0  0  0  0  0  0
   10.5010   15.9832   19.6583 S   0  0  0  0  0  0  0  0  0  0  0  0
   11.5395   14.7332   19.3055 N   0  0  0  0  0  0  0  0  0  0  0  0
   10.9849   17.0981   18.9034 O   0  0  0  0  0  0  0  0  0  0  0  0
    9.1866   15.5109   19.3927 O   0  0  0  0  0  0  0  0  0  0  0  0
    4.2234   15.4241   24.9330 C   0  0  0  0  0  0  0  0  0  0  0  0
    3.7653   16.6979   25.2708 C   0  0  0  0  0  0  0  0  0  0  0  0
    2.6043   16.8797   26.0340 C   0  0  0  0  0  0  0  0  0  0  0  0
    1.9020   15.7862   26.5523 C   0  0  0  0  0  0  0  0  0  0  0  0
    0.7462   15.9541   27.3322 C   0  0  0  0  0  0  0  0  0  0  0  0
    0.1002   14.8535   27.8951 C   0  0  0  0  0  0  0  0  0  0  0  0
    0.6127   13.5764   27.7016 C   0  0  0  0  0  0  0  0  0  0  0  0
    1.7524   13.3978   26.9184 C   0  0  0  0  0  0  0  0  0  0  0  0
    2.3919   14.4912   26.3110 C   0  0  0  0  0  0  0  0  0  0  0  0
    3.5179   14.3327   25.4814 C   0  0  0  0  0  0  0  0  0  0  0  0
  1  2  1  0
  2  3  2  0
  3  4  1  0
  4  5  1  0
  4  6  1  0
  6  7  1  0
  6  8  2  0
  8  9  1  0
  9 10  1  0
 10 11  2  0
 10 12  1  0
 12 13  1  0
 13 14  1  1
 14 15  1  0
 15 16  1  0
 16 17  2  0
 16 18  1  0
 18 19  1  6
 18 20  1  0
 20 21  1  0
 21 22  1  0
 22 23  1  0
 23 24  1  0
 24 25  1  6
 25 26  1  0
 25 27  2  0
 25 28  2  0
 13 29  1  0
 29 30  2  0
 30 31  1  0
 31 32  2  0
 32 33  1  0
 33 34  2  0
 34 35  1  0
 35 36  2  0
 36 37  1  0
 37 38  2  0
  8  2  1  0
 24 18  1  0
 38 29  1  0
 37 32  1  0
M  END
>  <ref_pdb>  (34) 
A0922a

>  <tags>  (34) 
{'fragmenstein_placed', 'openbind_a71ev2a_c1_fragmenstein'}

>  <distance_score>  (34) 
0.987619

>  <energy_score>  (34) 
-40.170848

>  <inchikey>  (34) 
JHOVMKNPAZUPKC-UHFFFAOYSA-N

>  <alias>  (34) 
Cc1nn(C)c(C)c1CC(=O)N[C@H](CNC(=O)[C@]1(Cl)NCCC[C@H]1S(N)(=O)=O)c1ccc2ccccc2c1

>  <smiles>  (34) 
C272449-P147

>  <HIPPO Pose ID>  (34) 
44243

>  <ref_mols>  (34) 
A3188a,A1346a

>  <HIPPO Compound ID>  (34) 
272449

$$$$
Cc1nn(CS)c(C)c1CC(=O)N[C@@H](CNC(=O)N1CCC[C@H](C(F)F)[C@@H]1Cl)c1ccc2ccccc2c1
     RDKit          3D

 38 41  0  0  0  0  0  0  0  0999 V2000
    5.6965   10.6228   27.3465 C   0  0  0  0  0  0  0  0  0  0  0  0
    6.8227   10.7310   26.3942 C   0  0  0  0  0  0  0  0  0  0  0  0
    7.0661    9.7315   25.5480 N   0  0  0  0  0  0  0  0  0  0  0  0
    8.1829   10.0947   24.8875 N   0  0  0  0  0  0  0  0  0  0  0  0
    8.7921    9.1063   24.0106 C   0  0  0  0  0  0  0  0  0  0  0  0
    9.6317    9.6084   22.5575 S   0  0  0  0  0  0  0  0  0  0  0  0
    8.6422   11.3191   25.2899 C   0  0  0  0  0  0  0  0  0  0  0  0
    9.8278   11.9463   24.6951 C   0  0  0  0  0  0  0  0  0  0  0  0
    7.7792   11.7665   26.2760 C   0  0  0  0  0  0  0  0  0  0  0  0
    7.9147   12.9894   27.1129 C   0  0  0  0  0  0  0  0  0  0  0  0
    6.8620   14.0769   27.0320 C   0  0  0  0  0  0  0  0  0  0  0  0
    6.5362   14.6400   28.0012 O   0  0  0  0  0  0  0  0  0  0  0  0
    6.4645   14.3092   25.5580 N   0  0  0  0  0  0  0  0  0  0  0  0
    5.6527   15.3488   24.9535 C   0  0  1  0  0  0  0  0  0  0  0  0
    5.7078   15.3413   23.4212 C   0  0  0  0  0  0  0  0  0  0  0  0
    7.0621   15.2815   22.9313 N   0  0  0  0  0  0  0  0  0  0  0  0
    7.8844   14.0977   22.4332 C   0  0  0  0  0  0  0  0  0  0  0  0
    7.5829   12.9920   22.2636 O   0  0  0  0  0  0  0  0  0  0  0  0
    9.1394   14.5746   22.0859 N   0  0  0  0  0  0  0  0  0  0  0  0
   10.3000   14.5896   22.9473 C   0  0  0  0  0  0  0  0  0  0  0  0
   11.4397   13.7600   22.3946 C   0  0  0  0  0  0  0  0  0  0  0  0
   11.8238   14.3573   21.0445 C   0  0  0  0  0  0  0  0  0  0  0  0
   10.5876   14.5211   20.1533 C   0  0  2  0  0  0  0  0  0  0  0  0
   10.8449   15.1528   18.8253 C   0  0  0  0  0  0  0  0  0  0  0  0
    9.6213   15.3331   18.2669 F   0  0  0  0  0  0  0  0  0  0  0  0
   11.5522   14.2481   18.0966 F   0  0  0  0  0  0  0  0  0  0  0  0
    9.3321   15.1020   20.7713 C   0  0  2  0  0  0  0  0  0  0  0  0
    9.3141   16.8731   20.9294 Cl  0  0  0  0  0  0  0  0  0  0  0  0
    4.2275   15.3740   25.4560 C   0  0  0  0  0  0  0  0  0  0  0  0
    3.4954   16.5672   25.3792 C   0  0  0  0  0  0  0  0  0  0  0  0
    2.2108   16.6508   25.9128 C   0  0  0  0  0  0  0  0  0  0  0  0
    1.6511   15.5547   26.5806 C   0  0  0  0  0  0  0  0  0  0  0  0
    0.4005   15.6452   27.2047 C   0  0  0  0  0  0  0  0  0  0  0  0
   -0.1069   14.5664   27.9271 C   0  0  0  0  0  0  0  0  0  0  0  0
    0.6204   13.3825   28.0233 C   0  0  0  0  0  0  0  0  0  0  0  0
    1.8489   13.2647   27.3792 C   0  0  0  0  0  0  0  0  0  0  0  0
    2.3759   14.3442   26.6583 C   0  0  0  0  0  0  0  0  0  0  0  0
    3.6320   14.2553   26.0501 C   0  0  0  0  0  0  0  0  0  0  0  0
  1  2  1  0
  2  3  2  0
  3  4  1  0
  4  5  1  0
  5  6  1  0
  4  7  1  0
  7  8  1  0
  7  9  2  0
  9 10  1  0
 10 11  1  0
 11 12  2  0
 11 13  1  0
 13 14  1  0
 14 15  1  6
 15 16  1  0
 16 17  1  0
 17 18  2  0
 17 19  1  0
 19 20  1  0
 20 21  1  0
 21 22  1  0
 22 23  1  0
 23 24  1  6
 24 25  1  0
 24 26  1  0
 23 27  1  0
 27 28  1  1
 14 29  1  0
 29 30  2  0
 30 31  1  0
 31 32  2  0
 32 33  1  0
 33 34  2  0
 34 35  1  0
 35 36  2  0
 36 37  1  0
 37 38  2  0
  9  2  1  0
 27 19  1  0
 38 29  1  0
 37 32  1  0
M  END
>  <ref_pdb>  (35) 
A0922a

>  <tags>  (35) 
{'fragmenstein_placed', 'openbind_a71ev2a_c1_fragmenstein'}

>  <distance_score>  (35) 
0.935855

>  <energy_score>  (35) 
-12.831233

>  <inchikey>  (35) 
CZQKOPHNVUQSNW-UHFFFAOYSA-N

>  <alias>  (35) 
Cc1nn(CS)c(C)c1CC(=O)N[C@@H](CNC(=O)N1CCC[C@H](C(F)F)[C@@H]1Cl)c1ccc2ccccc2c1

>  <smiles>  (35) 
C272450-P119

>  <HIPPO Pose ID>  (35) 
44244

>  <ref_mols>  (35) 
A3189a,A1346a

>  <HIPPO Compound ID>  (35) 
272450

$$$$
Cc1nn(CS)c(C)c1CC(=O)N[C@@H](CNC(=O)[C@@]1(Cl)NCCC[C@@H]1CF)c1ccc2ccccc2c1
     RDKit          3D

 37 40  0  0  0  0  0  0  0  0999 V2000
    5.6263   10.5858   27.3249 C   0  0  0  0  0  0  0  0  0  0  0  0
    6.7614   10.7456   26.3898 C   0  0  0  0  0  0  0  0  0  0  0  0
    7.0662    9.7554   25.5581 N   0  0  0  0  0  0  0  0  0  0  0  0
    8.1823   10.1598   24.9250 N   0  0  0  0  0  0  0  0  0  0  0  0
    8.8239    9.1888   24.0554 C   0  0  0  0  0  0  0  0  0  0  0  0
    9.6756    9.7536   22.6395 S   0  0  0  0  0  0  0  0  0  0  0  0
    8.5466   11.4320   25.2861 C   0  0  0  0  0  0  0  0  0  0  0  0
    9.6742   12.1712   24.6997 C   0  0  0  0  0  0  0  0  0  0  0  0
    7.6475   11.8412   26.2519 C   0  0  0  0  0  0  0  0  0  0  0  0
    7.6442   13.0930   27.0515 C   0  0  0  0  0  0  0  0  0  0  0  0
    7.5122   14.4293   26.3335 C   0  0  0  0  0  0  0  0  0  0  0  0
    8.2084   15.3290   26.5938 O   0  0  0  0  0  0  0  0  0  0  0  0
    6.3056   14.3432   25.3779 N   0  0  0  0  0  0  0  0  0  0  0  0
    5.6372   15.3759   24.6081 C   0  0  1  0  0  0  0  0  0  0  0  0
    5.7138   15.2680   23.0788 C   0  0  0  0  0  0  0  0  0  0  0  0
    7.0498   15.4359   22.5484 N   0  0  0  0  0  0  0  0  0  0  0  0
    7.8635   14.5480   21.5829 C   0  0  0  0  0  0  0  0  0  0  0  0
    7.5575   13.5875   21.0068 O   0  0  0  0  0  0  0  0  0  0  0  0
    9.3977   15.0873   21.5277 C   0  0  1  0  0  0  0  0  0  0  0  0
    9.3184   16.8456   21.3074 Cl  0  0  0  0  0  0  0  0  0  0  0  0
    9.8229   14.7034   22.8768 N   0  0  0  0  0  0  0  0  0  0  0  0
   11.2098   14.6376   23.2276 C   0  0  0  0  0  0  0  0  0  0  0  0
   11.8687   13.6415   22.3374 C   0  0  0  0  0  0  0  0  0  0  0  0
   11.8030   14.2100   20.9430 C   0  0  0  0  0  0  0  0  0  0  0  0
   10.3413   14.4457   20.4825 C   0  0  2  0  0  0  0  0  0  0  0  0
   10.4304   15.1380   19.1290 C   0  0  0  0  0  0  0  0  0  0  0  0
   11.2433   14.3570   18.3567 F   0  0  0  0  0  0  0  0  0  0  0  0
    4.2074   15.4942   25.1349 C   0  0  0  0  0  0  0  0  0  0  0  0
    3.5900   16.7471   25.1977 C   0  0  0  0  0  0  0  0  0  0  0  0
    2.3451   16.9035   25.8125 C   0  0  0  0  0  0  0  0  0  0  0  0
    1.7162   15.8190   26.4391 C   0  0  0  0  0  0  0  0  0  0  0  0
    0.5176   15.9736   27.1501 C   0  0  0  0  0  0  0  0  0  0  0  0
   -0.0445   14.8969   27.8356 C   0  0  0  0  0  0  0  0  0  0  0  0
    0.5797   13.6539   27.8146 C   0  0  0  0  0  0  0  0  0  0  0  0
    1.7458   13.4731   27.0760 C   0  0  0  0  0  0  0  0  0  0  0  0
    2.3217   14.5479   26.3833 C   0  0  0  0  0  0  0  0  0  0  0  0
    3.5180   14.3910   25.6734 C   0  0  0  0  0  0  0  0  0  0  0  0
  1  2  1  0
  2  3  2  0
  3  4  1  0
  4  5  1  0
  5  6  1  0
  4  7  1  0
  7  8  1  0
  7  9  2  0
  9 10  1  0
 10 11  1  0
 11 12  2  0
 11 13  1  0
 13 14  1  0
 14 15  1  6
 15 16  1  0
 16 17  1  0
 17 18  2  0
 17 19  1  0
 19 20  1  1
 19 21  1  0
 21 22  1  0
 22 23  1  0
 23 24  1  0
 24 25  1  0
 25 26  1  6
 26 27  1  0
 14 28  1  0
 28 29  2  0
 29 30  1  0
 30 31  2  0
 31 32  1  0
 32 33  2  0
 33 34  1  0
 34 35  2  0
 35 36  1  0
 36 37  2  0
  9  2  1  0
 25 19  1  0
 37 28  1  0
 36 31  1  0
M  END
>  <ref_pdb>  (36) 
A0922a

>  <tags>  (36) 
{'fragmenstein_placed', 'openbind_a71ev2a_c1_fragmenstein'}

>  <distance_score>  (36) 
0.898203

>  <energy_score>  (36) 
-53.458963

>  <inchikey>  (36) 
LXSYKFPSDCVOLS-UHFFFAOYSA-N

>  <alias>  (36) 
Cc1nn(CS)c(C)c1CC(=O)N[C@@H](CNC(=O)[C@@]1(Cl)NCCC[C@@H]1CF)c1ccc2ccccc2c1

>  <smiles>  (36) 
C272452-P119

>  <HIPPO Pose ID>  (36) 
44246

>  <ref_mols>  (36) 
A3193a,A1346a

>  <HIPPO Compound ID>  (36) 
272452

$$$$
C=C(N)[C@@]1(F)CCCN[C@H]1C(=O)NC[C@H](NC(=O)Cc1c(C)nn(C)c1C)c1ccc2ccccc2c1
     RDKit          3D

 37 40  0  0  0  0  0  0  0  0999 V2000
   10.0650   16.0073   18.9446 C   0  0  0  0  0  0  0  0  0  0  0  0
    9.8327   15.8945   20.2611 C   0  0  0  0  0  0  0  0  0  0  0  0
    9.1665   16.8679   20.9715 N   0  0  0  0  0  0  0  0  0  0  0  0
   10.3714   14.6800   20.9867 C   0  0  1  0  0  0  0  0  0  0  0  0
   10.4540   13.6978   20.0364 F   0  0  0  0  0  0  0  0  0  0  0  0
   11.8204   14.9693   21.4162 C   0  0  0  0  0  0  0  0  0  0  0  0
   12.3444   14.0817   22.5134 C   0  0  0  0  0  0  0  0  0  0  0  0
   11.5509   14.2759   23.7748 C   0  0  0  0  0  0  0  0  0  0  0  0
   10.1259   14.4380   23.5489 N   0  0  0  0  0  0  0  0  0  0  0  0
    9.6514   14.0413   22.1825 C   0  0  1  0  0  0  0  0  0  0  0  0
    8.1250   13.8054   22.3736 C   0  0  0  0  0  0  0  0  0  0  0  0
    7.7685   12.7028   22.4376 O   0  0  0  0  0  0  0  0  0  0  0  0
    7.3517   15.1031   22.5470 N   0  0  0  0  0  0  0  0  0  0  0  0
    5.9737   15.3347   22.9355 C   0  0  0  0  0  0  0  0  0  0  0  0
    5.8429   15.2637   24.4890 C   0  0  2  0  0  0  0  0  0  0  0  0
    6.6027   14.1770   25.1061 N   0  0  0  0  0  0  0  0  0  0  0  0
    7.0681   13.9810   26.5663 C   0  0  0  0  0  0  0  0  0  0  0  0
    6.8523   14.6180   27.5219 O   0  0  0  0  0  0  0  0  0  0  0  0
    8.0334   12.8129   26.6847 C   0  0  0  0  0  0  0  0  0  0  0  0
    7.8682   11.5721   25.8855 C   0  0  0  0  0  0  0  0  0  0  0  0
    6.9064   10.5417   26.0353 C   0  0  0  0  0  0  0  0  0  0  0  0
    5.7866   10.4827   27.0019 C   0  0  0  0  0  0  0  0  0  0  0  0
    7.1585    9.4969   25.2369 N   0  0  0  0  0  0  0  0  0  0  0  0
    8.2448    9.8583   24.5348 N   0  0  0  0  0  0  0  0  0  0  0  0
    8.8567    9.0121   23.5279 C   0  0  0  0  0  0  0  0  0  0  0  0
    8.7541   11.0416   24.9711 C   0  0  0  0  0  0  0  0  0  0  0  0
   10.0595   11.4592   24.4839 C   0  0  0  0  0  0  0  0  0  0  0  0
    4.4219   15.3371   25.0257 C   0  0  0  0  0  0  0  0  0  0  0  0
    3.7379   16.5580   25.0096 C   0  0  0  0  0  0  0  0  0  0  0  0
    2.4819   16.6938   25.6067 C   0  0  0  0  0  0  0  0  0  0  0  0
    1.8992   15.6198   26.2897 C   0  0  0  0  0  0  0  0  0  0  0  0
    0.6743   15.7570   26.9600 C   0  0  0  0  0  0  0  0  0  0  0  0
    0.1461   14.6963   27.6943 C   0  0  0  0  0  0  0  0  0  0  0  0
    0.8338   13.4887   27.7674 C   0  0  0  0  0  0  0  0  0  0  0  0
    2.0376   13.3298   27.0841 C   0  0  0  0  0  0  0  0  0  0  0  0
    2.5790   14.3840   26.3328 C   0  0  0  0  0  0  0  0  0  0  0  0
    3.8037   14.2471   25.6582 C   0  0  0  0  0  0  0  0  0  0  0  0
  1  2  2  0
  2  3  1  0
  2  4  1  0
  4  5  1  6
  4  6  1  0
  6  7  1  0
  7  8  1  0
  8  9  1  0
  9 10  1  0
 10 11  1  1
 11 12  2  0
 11 13  1  0
 13 14  1  0
 15 14  1  6
 15 16  1  0
 16 17  1  0
 17 18  2  0
 17 19  1  0
 19 20  1  0
 20 21  1  0
 21 22  1  0
 21 23  2  0
 23 24  1  0
 24 25  1  0
 24 26  1  0
 26 27  1  0
 15 28  1  0
 28 29  2  0
 29 30  1  0
 30 31  2  0
 31 32  1  0
 32 33  2  0
 33 34  1  0
 34 35  2  0
 35 36  1  0
 36 37  2  0
 10  4  1  0
 26 20  2  0
 37 28  1  0
 36 31  1  0
M  END
>  <ref_pdb>  (37) 
A0922a

>  <tags>  (37) 
{'fragmenstein_placed', 'openbind_a71ev2a_c1_fragmenstein'}

>  <distance_score>  (37) 
0.808952

>  <energy_score>  (37) 
-25.246367

>  <inchikey>  (37) 
VAFKCTIAOFBPGI-UHFFFAOYSA-N

>  <alias>  (37) 
C=C(N)[C@@]1(F)CCCN[C@H]1C(=O)NC[C@H](NC(=O)Cc1c(C)nn(C)c1C)c1ccc2ccccc2c1

>  <smiles>  (37) 
C272454-P119

>  <HIPPO Pose ID>  (37) 
44248

>  <ref_mols>  (37) 
A3201a,A1346a

>  <HIPPO Compound ID>  (37) 
272454

$$$$
C=C(N)[C@H]1CCCN[C@H]1C(=O)NC[C@H](NC(=O)Cc1c(C)nn(C)c1C)c1ccc2ccccc2c1
     RDKit          3D

 36 39  0  0  0  0  0  0  0  0999 V2000
   11.7238   14.1509   21.0830 C   0  0  0  0  0  0  0  0  0  0  0  0
   11.0779   14.5237   19.9659 C   0  0  0  0  0  0  0  0  0  0  0  0
   11.4469   13.9744   18.7420 N   0  0  0  0  0  0  0  0  0  0  0  0
   10.1197   15.7050   20.0105 C   0  0  1  0  0  0  0  0  0  0  0  0
    9.7528   16.3449   18.6802 C   0  0  0  0  0  0  0  0  0  0  0  0
    9.2546   17.7674   18.8392 C   0  0  0  0  0  0  0  0  0  0  0  0
    8.4591   18.0331   20.1001 C   0  0  0  0  0  0  0  0  0  0  0  0
    8.8247   17.3423   21.3397 N   0  0  0  0  0  0  0  0  0  0  0  0
    9.1308   15.8975   21.1618 C   0  0  1  0  0  0  0  0  0  0  0  0
    7.9187   14.9545   21.3658 C   0  0  0  0  0  0  0  0  0  0  0  0
    7.9086   13.8540   20.9930 O   0  0  0  0  0  0  0  0  0  0  0  0
    6.8867   15.7341   22.1989 N   0  0  0  0  0  0  0  0  0  0  0  0
    5.6633   15.2925   22.8314 C   0  0  0  0  0  0  0  0  0  0  0  0
    5.7578   15.3474   24.3667 C   0  0  2  0  0  0  0  0  0  0  0  0
    6.6615   14.3716   24.9373 N   0  0  0  0  0  0  0  0  0  0  0  0
    7.7259   14.5188   26.0393 C   0  0  0  0  0  0  0  0  0  0  0  0
    8.0987   15.4672   26.6102 O   0  0  0  0  0  0  0  0  0  0  0  0
    8.2864   13.1796   26.4686 C   0  0  0  0  0  0  0  0  0  0  0  0
    8.1598   11.9546   25.6406 C   0  0  0  0  0  0  0  0  0  0  0  0
    7.3414   10.8219   25.8945 C   0  0  0  0  0  0  0  0  0  0  0  0
    6.2901   10.6422   26.9263 C   0  0  0  0  0  0  0  0  0  0  0  0
    7.6581    9.8017   25.0972 N   0  0  0  0  0  0  0  0  0  0  0  0
    8.6185   10.2848   24.2839 N   0  0  0  0  0  0  0  0  0  0  0  0
    9.2549    9.3966   23.3362 C   0  0  0  0  0  0  0  0  0  0  0  0
    8.9148   11.6012   24.5343 C   0  0  0  0  0  0  0  0  0  0  0  0
    9.9121   12.3783   23.7546 C   0  0  0  0  0  0  0  0  0  0  0  0
    4.4084   15.3513   25.0678 C   0  0  0  0  0  0  0  0  0  0  0  0
    3.6715   16.5435   25.1054 C   0  0  0  0  0  0  0  0  0  0  0  0
    2.4396   16.6152   25.7562 C   0  0  0  0  0  0  0  0  0  0  0  0
    1.9327   15.5032   26.4361 C   0  0  0  0  0  0  0  0  0  0  0  0
    0.7153   15.5699   27.1293 C   0  0  0  0  0  0  0  0  0  0  0  0
    0.2485   14.4698   27.8463 C   0  0  0  0  0  0  0  0  0  0  0  0
    0.9930   13.2945   27.8832 C   0  0  0  0  0  0  0  0  0  0  0  0
    2.1970   13.2094   27.1852 C   0  0  0  0  0  0  0  0  0  0  0  0
    2.6752   14.3013   26.4441 C   0  0  0  0  0  0  0  0  0  0  0  0
    3.8851   14.2308   25.7295 C   0  0  0  0  0  0  0  0  0  0  0  0
  1  2  2  0
  2  3  1  0
  4  2  1  6
  4  5  1  0
  5  6  1  0
  6  7  1  0
  7  8  1  0
  8  9  1  0
  9 10  1  6
 10 11  2  0
 10 12  1  0
 12 13  1  0
 14 13  1  6
 14 15  1  0
 15 16  1  0
 16 17  2  0
 16 18  1  0
 18 19  1  0
 19 20  1  0
 20 21  1  0
 20 22  2  0
 22 23  1  0
 23 24  1  0
 23 25  1  0
 25 26  1  0
 14 27  1  0
 27 28  2  0
 28 29  1  0
 29 30  2  0
 30 31  1  0
 31 32  2  0
 32 33  1  0
 33 34  2  0
 34 35  1  0
 35 36  2  0
  9  4  1  0
 25 19  2  0
 36 27  1  0
 35 30  1  0
M  END
>  <ref_pdb>  (38) 
A0922a

>  <tags>  (38) 
{'fragmenstein_placed', 'openbind_a71ev2a_c1_fragmenstein'}

>  <distance_score>  (38) 
0.940814

>  <energy_score>  (38) 
-32.317212

>  <inchikey>  (38) 
BQSDEPIXYSTHIQ-UHFFFAOYSA-N

>  <alias>  (38) 
C=C(N)[C@H]1CCCN[C@H]1C(=O)NC[C@H](NC(=O)Cc1c(C)nn(C)c1C)c1ccc2ccccc2c1

>  <smiles>  (38) 
C272236-P119

>  <HIPPO Pose ID>  (38) 
44258

>  <ref_mols>  (38) 
A2304a,A2846a,A4018a,A0566a,A4306a,A3280a,A3305a,A4313a,A4316a,A4319a,A4320a,A4321a,A3403a,A4321b,A3436a,A3450a,A0365a,A3612a,A4365b,A3616b,A3618a,A0884a,A3568a,A3901a,A1346a,A3968a,A3982a

>  <HIPPO Compound ID>  (38) 
272236

$$$$
C=C(N)[C@H]1C[C@H](C)CN[C@@H]1C(=O)NC[C@@H](NC(=O)Cc1c(C)nn(C)c1C)c1ccc2ccccc2c1
     RDKit          3D

 37 40  0  0  0  0  0  0  0  0999 V2000
   10.3599   16.5661   19.1974 C   0  0  0  0  0  0  0  0  0  0  0  0
   10.5190   15.4178   19.8507 C   0  0  0  0  0  0  0  0  0  0  0  0
   11.0911   14.3595   19.1759 N   0  0  0  0  0  0  0  0  0  0  0  0
   10.2093   15.2608   21.3325 C   0  0  1  0  0  0  0  0  0  0  0  0
   11.4207   15.8258   22.0970 C   0  0  0  0  0  0  0  0  0  0  0  0
   11.2393   15.7208   23.6129 C   0  0  2  0  0  0  0  0  0  0  0  0
   12.1928   14.7078   24.2216 C   0  0  0  0  0  0  0  0  0  0  0  0
    9.8014   15.5013   24.0322 C   0  0  0  0  0  0  0  0  0  0  0  0
    8.9599   16.3886   23.2570 N   0  0  0  0  0  0  0  0  0  0  0  0
    8.8876   15.9303   21.8383 C   0  0  2  0  0  0  0  0  0  0  0  0
    7.6649   14.9615   21.7821 C   0  0  0  0  0  0  0  0  0  0  0  0
    7.7231   13.8241   21.5260 O   0  0  0  0  0  0  0  0  0  0  0  0
    6.4569   15.8319   22.2331 N   0  0  0  0  0  0  0  0  0  0  0  0
    5.0698   15.4995   22.3663 C   0  0  0  0  0  0  0  0  0  0  0  0
    4.7203   14.5499   23.5438 C   0  0  1  0  0  0  0  0  0  0  0  0
    5.8091   13.9869   24.3236 N   0  0  0  0  0  0  0  0  0  0  0  0
    6.7929   14.6609   25.3081 C   0  0  0  0  0  0  0  0  0  0  0  0
    6.9319   15.7878   25.5877 O   0  0  0  0  0  0  0  0  0  0  0  0
    7.6207   13.6097   26.0772 C   0  0  0  0  0  0  0  0  0  0  0  0
    7.7890   12.2261   25.5369 C   0  0  0  0  0  0  0  0  0  0  0  0
    6.9392   11.1107   25.7626 C   0  0  0  0  0  0  0  0  0  0  0  0
    5.7207   11.0664   26.6058 C   0  0  0  0  0  0  0  0  0  0  0  0
    7.3884   10.0061   25.1592 N   0  0  0  0  0  0  0  0  0  0  0  0
    8.5271   10.3913   24.5640 N   0  0  0  0  0  0  0  0  0  0  0  0
    9.2747    9.4823   23.7263 C   0  0  0  0  0  0  0  0  0  0  0  0
    8.8751   11.6680   24.8871 C   0  0  0  0  0  0  0  0  0  0  0  0
   10.2182   12.1769   24.5829 C   0  0  0  0  0  0  0  0  0  0  0  0
    3.6917   15.0638   24.5391 C   0  0  0  0  0  0  0  0  0  0  0  0
    3.5077   16.4059   24.8745 C   0  0  0  0  0  0  0  0  0  0  0  0
    2.5433   16.7703   25.8214 C   0  0  0  0  0  0  0  0  0  0  0  0
    1.7841   15.7977   26.4951 C   0  0  0  0  0  0  0  0  0  0  0  0
    0.8110   16.1356   27.4481 C   0  0  0  0  0  0  0  0  0  0  0  0
    0.0950   15.1437   28.1224 C   0  0  0  0  0  0  0  0  0  0  0  0
    0.3476   13.8018   27.8621 C   0  0  0  0  0  0  0  0  0  0  0  0
    1.3027   13.4502   26.9127 C   0  0  0  0  0  0  0  0  0  0  0  0
    2.0129   14.4381   26.2162 C   0  0  0  0  0  0  0  0  0  0  0  0
    2.9456   14.0985   25.2350 C   0  0  0  0  0  0  0  0  0  0  0  0
  1  2  2  0
  2  3  1  0
  4  2  1  6
  4  5  1  0
  5  6  1  0
  6  7  1  6
  6  8  1  0
  8  9  1  0
  9 10  1  0
 10 11  1  1
 11 12  2  0
 11 13  1  0
 13 14  1  0
 15 14  1  1
 15 16  1  0
 16 17  1  0
 17 18  2  0
 17 19  1  0
 19 20  1  0
 20 21  1  0
 21 22  1  0
 21 23  2  0
 23 24  1  0
 24 25  1  0
 24 26  1  0
 26 27  1  0
 15 28  1  0
 28 29  2  0
 29 30  1  0
 30 31  2  0
 31 32  1  0
 32 33  2  0
 33 34  1  0
 34 35  2  0
 35 36  1  0
 36 37  2  0
 10  4  1  0
 26 20  2  0
 37 28  1  0
 36 31  1  0
M  END
>  <ref_pdb>  (39) 
A0922a

>  <tags>  (39) 
{'fragmenstein_placed', 'openbind_a71ev2a_c1_fragmenstein'}

>  <distance_score>  (39) 
0.924101

>  <energy_score>  (39) 
-37.607817

>  <inchikey>  (39) 
LNZDVQSHYXFPSN-UHFFFAOYSA-N

>  <alias>  (39) 
C=C(N)[C@H]1C[C@H](C)CN[C@@H]1C(=O)NC[C@@H](NC(=O)Cc1c(C)nn(C)c1C)c1ccc2ccccc2c1

>  <smiles>  (39) 
C272482-P256

>  <HIPPO Pose ID>  (39) 
44331

>  <ref_mols>  (39) 
A3986a,A1346a

>  <HIPPO Compound ID>  (39) 
272482

$$$$
C=C(N)[C@@H]1CCCN[C@H]1C(=O)NC[C@H](NC(Cc1c(C)nn(C)c1C)=NCC)c1ccc2ccccc2c1
     RDKit          3D

 38 41  0  0  0  0  0  0  0  0999 V2000
   11.3169   14.5673   19.1049 C   0  0  0  0  0  0  0  0  0  0  0  0
   10.5450   15.3716   19.8559 C   0  0  0  0  0  0  0  0  0  0  0  0
    9.7980   16.3666   19.2666 N   0  0  0  0  0  0  0  0  0  0  0  0
   10.5182   15.2538   21.3999 C   0  0  2  0  0  0  0  0  0  0  0  0
   11.9830   15.4124   21.9324 C   0  0  0  0  0  0  0  0  0  0  0  0
   12.3861   14.7750   23.2284 C   0  0  0  0  0  0  0  0  0  0  0  0
   11.3670   13.8277   23.7205 C   0  0  0  0  0  0  0  0  0  0  0  0
   10.7608   13.0980   22.6369 N   0  0  0  0  0  0  0  0  0  0  0  0
    9.8481   13.9313   21.8160 C   0  0  1  0  0  0  0  0  0  0  0  0
    8.3656   13.6919   22.4070 C   0  0  0  0  0  0  0  0  0  0  0  0
    8.0955   12.5848   22.6521 O   0  0  0  0  0  0  0  0  0  0  0  0
    7.5220   14.9648   22.5101 N   0  0  0  0  0  0  0  0  0  0  0  0
    6.1750   15.1705   23.0337 C   0  0  0  0  0  0  0  0  0  0  0  0
    6.0237   15.2414   24.5735 C   0  0  2  0  0  0  0  0  0  0  0  0
    6.5625   14.1412   25.3397 N   0  0  0  0  0  0  0  0  0  0  0  0
    7.0862   14.0861   26.8213 C   0  0  0  0  0  0  0  0  0  0  0  0
    7.3566   12.6413   27.3391 C   0  0  0  0  0  0  0  0  0  0  0  0
    7.4623   11.5094   26.3850 C   0  0  0  0  0  0  0  0  0  0  0  0
    6.6540   10.3570   26.2984 C   0  0  0  0  0  0  0  0  0  0  0  0
    5.4949   10.0234   27.1505 C   0  0  0  0  0  0  0  0  0  0  0  0
    7.0902    9.4983   25.3703 N   0  0  0  0  0  0  0  0  0  0  0  0
    8.1786   10.0878   24.8469 N   0  0  0  0  0  0  0  0  0  0  0  0
    8.9362    9.4608   23.7826 C   0  0  0  0  0  0  0  0  0  0  0  0
    8.4627   11.2603   25.4805 C   0  0  0  0  0  0  0  0  0  0  0  0
    9.6121   12.0804   25.1589 C   0  0  0  0  0  0  0  0  0  0  0  0
    7.2330   14.9667   27.6324 N   0  0  0  0  0  0  0  0  0  0  0  0
    7.6089   14.9262   29.0277 C   0  0  0  0  0  0  0  0  0  0  0  0
    9.0305   15.4349   29.1670 C   0  0  0  0  0  0  0  0  0  0  0  0
    4.5531   15.3769   25.0256 C   0  0  0  0  0  0  0  0  0  0  0  0
    3.8885   16.6029   24.9558 C   0  0  0  0  0  0  0  0  0  0  0  0
    2.6099   16.7705   25.5054 C   0  0  0  0  0  0  0  0  0  0  0  0
    1.9739   15.7218   26.1845 C   0  0  0  0  0  0  0  0  0  0  0  0
    0.7290   15.8911   26.8120 C   0  0  0  0  0  0  0  0  0  0  0  0
    0.1526   14.8499   27.5396 C   0  0  0  0  0  0  0  0  0  0  0  0
    0.8106   13.6288   27.6488 C   0  0  0  0  0  0  0  0  0  0  0  0
    2.0311   13.4371   27.0063 C   0  0  0  0  0  0  0  0  0  0  0  0
    2.6204   14.4736   26.2655 C   0  0  0  0  0  0  0  0  0  0  0  0
    3.8661   14.3062   25.6399 C   0  0  0  0  0  0  0  0  0  0  0  0
  1  2  2  0
  2  3  1  0
  4  2  1  6
  4  5  1  0
  5  6  1  0
  6  7  1  0
  7  8  1  0
  8  9  1  0
  9 10  1  1
 10 11  2  0
 10 12  1  0
 12 13  1  0
 14 13  1  6
 14 15  1  0
 15 16  1  0
 16 17  1  0
 17 18  1  0
 18 19  1  0
 19 20  1  0
 19 21  2  0
 21 22  1  0
 22 23  1  0
 22 24  1  0
 24 25  1  0
 16 26  2  3
 26 27  1  0
 27 28  1  0
 14 29  1  0
 29 30  2  0
 30 31  1  0
 31 32  2  0
 32 33  1  0
 33 34  2  0
 34 35  1  0
 35 36  2  0
 36 37  1  0
 37 38  2  0
  9  4  1  0
 24 18  2  0
 38 29  1  0
 37 32  1  0
M  END
>  <ref_pdb>  (40) 
A0922a

>  <tags>  (40) 
{'fragmenstein_placed', 'openbind_a71ev2a_c1_fragmenstein'}

>  <distance_score>  (40) 
0.997726

>  <energy_score>  (40) 
-3.252955

>  <inchikey>  (40) 
QXQZOHKAPUDTNY-UHFFFAOYSA-N

>  <alias>  (40) 
C=C(N)[C@@H]1CCCN[C@H]1C(=O)NC[C@H](NC(Cc1c(C)nn(C)c1C)=NCC)c1ccc2ccccc2c1

>  <smiles>  (40) 
C272530-P119

>  <HIPPO Pose ID>  (40) 
44353

>  <ref_mols>  (40) 
A4291a,A1346a

>  <HIPPO Compound ID>  (40) 
272530

$$$$
C#Cc1nn(C)c(C)c1CC(=O)N[C@H](CNC(=O)[C@H]1NCCC[C@@H]1C(=C)N)c1ccc2ccccc2c1
     RDKit          3D

 37 40  0  0  0  0  0  0  0  0999 V2000
    5.1216   10.5283   27.7998 C   0  0  0  0  0  0  0  0  0  0  0  0
    5.9721   10.6010   26.9558 C   0  0  0  0  0  0  0  0  0  0  0  0
    7.0141   10.6688   25.9893 C   0  0  0  0  0  0  0  0  0  0  0  0
    7.2843    9.5678   25.2843 N   0  0  0  0  0  0  0  0  0  0  0  0
    8.3387    9.9163   24.5294 N   0  0  0  0  0  0  0  0  0  0  0  0
    8.9493    9.0007   23.5880 C   0  0  0  0  0  0  0  0  0  0  0  0
    8.7726   11.1768   24.8119 C   0  0  0  0  0  0  0  0  0  0  0  0
   10.0104   11.6573   24.2213 C   0  0  0  0  0  0  0  0  0  0  0  0
    7.8865   11.7447   25.7030 C   0  0  0  0  0  0  0  0  0  0  0  0
    7.9537   13.0967   26.3356 C   0  0  0  0  0  0  0  0  0  0  0  0
    7.3486   14.3318   25.6470 C   0  0  0  0  0  0  0  0  0  0  0  0
    7.6867   15.3923   26.0040 O   0  0  0  0  0  0  0  0  0  0  0  0
    6.2739   13.9173   24.6186 N   0  0  0  0  0  0  0  0  0  0  0  0
    5.3155   14.7217   23.8771 C   0  0  2  0  0  0  0  0  0  0  0  0
    5.8605   15.8413   22.9624 C   0  0  0  0  0  0  0  0  0  0  0  0
    7.2258   15.7703   22.5268 N   0  0  0  0  0  0  0  0  0  0  0  0
    7.9852   14.6484   21.7760 C   0  0  0  0  0  0  0  0  0  0  0  0
    7.5984   13.6427   21.3286 O   0  0  0  0  0  0  0  0  0  0  0  0
    9.5383   15.0765   21.8079 C   0  0  1  0  0  0  0  0  0  0  0  0
    9.9099   14.6057   23.1723 N   0  0  0  0  0  0  0  0  0  0  0  0
   11.3225   14.5472   23.4575 C   0  0  0  0  0  0  0  0  0  0  0  0
   12.0088   13.6350   22.5075 C   0  0  0  0  0  0  0  0  0  0  0  0
   11.9014   14.2336   21.1370 C   0  0  0  0  0  0  0  0  0  0  0  0
   10.4390   14.5110   20.6789 C   0  0  2  0  0  0  0  0  0  0  0  0
   10.5314   15.3828   19.4241 C   0  0  0  0  0  0  0  0  0  0  0  0
   11.4472   15.0981   18.4869 C   0  0  0  0  0  0  0  0  0  0  0  0
    9.7387   16.5032   19.2765 N   0  0  0  0  0  0  0  0  0  0  0  0
    4.1649   15.0974   24.8243 C   0  0  0  0  0  0  0  0  0  0  0  0
    3.6528   16.3886   24.9789 C   0  0  0  0  0  0  0  0  0  0  0  0
    2.5338   16.6367   25.7838 C   0  0  0  0  0  0  0  0  0  0  0  0
    1.9199   15.6040   26.5021 C   0  0  0  0  0  0  0  0  0  0  0  0
    0.7869   15.8310   27.2984 C   0  0  0  0  0  0  0  0  0  0  0  0
    0.2153   14.7920   28.0326 C   0  0  0  0  0  0  0  0  0  0  0  0
    0.7788   13.5209   27.9946 C   0  0  0  0  0  0  0  0  0  0  0  0
    1.8983   13.2802   27.2003 C   0  0  0  0  0  0  0  0  0  0  0  0
    2.4668   14.3089   26.4331 C   0  0  0  0  0  0  0  0  0  0  0  0
    3.5668   14.0773   25.5913 C   0  0  0  0  0  0  0  0  0  0  0  0
  1  2  3  0
  2  3  1  0
  3  4  2  0
  4  5  1  0
  5  6  1  0
  5  7  1  0
  7  8  1  0
  7  9  2  0
  9 10  1  0
 10 11  1  0
 11 12  2  0
 11 13  1  0
 13 14  1  0
 14 15  1  1
 15 16  1  0
 16 17  1  0
 17 18  2  0
 19 17  1  6
 19 20  1  0
 20 21  1  0
 21 22  1  0
 22 23  1  0
 23 24  1  0
 24 25  1  6
 25 26  2  0
 25 27  1  0
 14 28  1  0
 28 29  2  0
 29 30  1  0
 30 31  2  0
 31 32  1  0
 32 33  2  0
 33 34  1  0
 34 35  2  0
 35 36  1  0
 36 37  2  0
  9  3  1  0
 24 19  1  0
 37 28  1  0
 36 31  1  0
M  END
>  <ref_pdb>  (41) 
A0922a

>  <tags>  (41) 
{'fragmenstein_placed', 'openbind_a71ev2a_c1_fragmenstein'}

>  <distance_score>  (41) 
0.717772

>  <energy_score>  (41) 
-7.571392

>  <inchikey>  (41) 
WQAUBMDSLQUNTO-UHFFFAOYSA-N

>  <alias>  (41) 
C#Cc1nn(C)c(C)c1CC(=O)N[C@H](CNC(=O)[C@H]1NCCC[C@@H]1C(=C)N)c1ccc2ccccc2c1

>  <smiles>  (41) 
C272543-P119

>  <HIPPO Pose ID>  (41) 
44370

>  <ref_mols>  (41) 
A4334a,A1346a

>  <HIPPO Compound ID>  (41) 
272543

$$$$
C=C(N)[C@H]1CCCN[C@@H]1C(=O)NC[C@H](NC(=O)Cc1c(C)nn(C)c1C)c1ccc2c(c1)C[C@@]1(CC2)CNCC[C@H]1NC=O
     RDKit          3D

 44 48  0  0  0  0  0  0  0  0999 V2000
   10.9563   15.4824   18.6366 C   0  0  0  0  0  0  0  0  0  0  0  0
   10.1727   15.6264   19.7115 C   0  0  0  0  0  0  0  0  0  0  0  0
    9.4193   16.7779   19.8466 N   0  0  0  0  0  0  0  0  0  0  0  0
   10.1813   14.5482   20.8060 C   0  0  1  0  0  0  0  0  0  0  0  0
   11.6661   14.2688   21.1724 C   0  0  0  0  0  0  0  0  0  0  0  0
   11.8269   13.5210   22.4702 C   0  0  0  0  0  0  0  0  0  0  0  0
   11.1911   14.3378   23.5498 C   0  0  0  0  0  0  0  0  0  0  0  0
    9.7688   14.3442   23.3172 N   0  0  0  0  0  0  0  0  0  0  0  0
    9.3000   14.9021   22.0343 C   0  0  2  0  0  0  0  0  0  0  0  0
    7.7709   14.4516   21.9692 C   0  0  0  0  0  0  0  0  0  0  0  0
    7.4626   13.4730   21.3587 O   0  0  0  0  0  0  0  0  0  0  0  0
    6.9846   15.3249   22.7960 N   0  0  0  0  0  0  0  0  0  0  0  0
    5.6089   15.2404   23.2211 C   0  0  0  0  0  0  0  0  0  0  0  0
    5.4476   15.2364   24.7555 C   0  0  2  0  0  0  0  0  0  0  0  0
    6.1189   14.1262   25.4153 N   0  0  0  0  0  0  0  0  0  0  0  0
    7.4161   14.0308   26.0015 C   0  0  0  0  0  0  0  0  0  0  0  0
    8.3221   14.8162   26.0321 O   0  0  0  0  0  0  0  0  0  0  0  0
    7.5486   12.7226   26.7791 C   0  0  0  0  0  0  0  0  0  0  0  0
    7.6175   11.4628   26.0030 C   0  0  0  0  0  0  0  0  0  0  0  0
    6.7831   10.3277   26.1341 C   0  0  0  0  0  0  0  0  0  0  0  0
    5.6492   10.1410   27.0699 C   0  0  0  0  0  0  0  0  0  0  0  0
    7.1539    9.3377   25.3169 N   0  0  0  0  0  0  0  0  0  0  0  0
    8.2260    9.8145   24.6607 N   0  0  0  0  0  0  0  0  0  0  0  0
    8.9150    9.0434   23.6461 C   0  0  0  0  0  0  0  0  0  0  0  0
    8.5583   11.0639   25.0812 C   0  0  0  0  0  0  0  0  0  0  0  0
    9.7223   11.7398   24.5252 C   0  0  0  0  0  0  0  0  0  0  0  0
    4.0224   15.2682   25.3002 C   0  0  0  0  0  0  0  0  0  0  0  0
    2.8837   15.4188   24.5069 C   0  0  0  0  0  0  0  0  0  0  0  0
    1.6087   15.4248   25.0806 C   0  0  0  0  0  0  0  0  0  0  0  0
    1.4395   15.1744   26.4466 C   0  0  0  0  0  0  0  0  0  0  0  0
    2.5657   14.9801   27.2469 C   0  0  0  0  0  0  0  0  0  0  0  0
    3.8378   15.1035   26.6873 C   0  0  0  0  0  0  0  0  0  0  0  0
    2.4097   14.5469   28.6834 C   0  0  0  0  0  0  0  0  0  0  0  0
    1.2390   13.5344   28.8189 C   0  0  1  0  0  0  0  0  0  0  0  0
   -0.0365   14.3231   28.3756 C   0  0  0  0  0  0  0  0  0  0  0  0
    0.0617   15.0857   27.0402 C   0  0  0  0  0  0  0  0  0  0  0  0
    1.5178   12.2831   27.9218 C   0  0  0  0  0  0  0  0  0  0  0  0
    1.0791   10.9652   28.4301 N   0  0  0  0  0  0  0  0  0  0  0  0
   -0.1793   11.0957   29.1657 C   0  0  0  0  0  0  0  0  0  0  0  0
   -0.0614   11.9954   30.4009 C   0  0  0  0  0  0  0  0  0  0  0  0
    1.0431   13.0651   30.2911 C   0  0  1  0  0  0  0  0  0  0  0  0
    2.2680   12.5655   30.9162 N   0  0  0  0  0  0  0  0  0  0  0  0
    3.3039   13.2465   31.6156 C   0  0  0  0  0  0  0  0  0  0  0  0
    3.4825   14.4095   31.8060 O   0  0  0  0  0  0  0  0  0  0  0  0
  1  2  2  0
  2  3  1  0
  4  2  1  6
  4  5  1  0
  5  6  1  0
  6  7  1  0
  7  8  1  0
  8  9  1  0
  9 10  1  6
 10 11  2  0
 10 12  1  0
 12 13  1  0
 14 13  1  6
 14 15  1  0
 15 16  1  0
 16 17  2  0
 16 18  1  0
 18 19  1  0
 19 20  1  0
 20 21  1  0
 20 22  2  0
 22 23  1  0
 23 24  1  0
 23 25  1  0
 25 26  1  0
 14 27  1  0
 27 28  2  0
 28 29  1  0
 29 30  2  0
 30 31  1  0
 31 32  2  0
 31 33  1  0
 34 33  1  1
 34 35  1  0
 35 36  1  0
 34 37  1  0
 37 38  1  0
 38 39  1  0
 39 40  1  0
 40 41  1  0
 41 42  1  6
 42 43  1  0
 43 44  2  0
  9  4  1  0
 25 19  2  0
 32 27  1  0
 41 34  1  0
 36 30  1  0
M  END
>  <ref_pdb>  (42) 
A0922a

>  <tags>  (42) 
{'fragmenstein_placed', 'openbind_a71ev2a_c1_fragmenstein'}

>  <distance_score>  (42) 
0.981555

>  <energy_score>  (42) 
-64.843188

>  <inchikey>  (42) 
PZXXIRBXKHKWTF-UHFFFAOYSA-N

>  <alias>  (42) 
C=C(N)[C@H]1CCCN[C@@H]1C(=O)NC[C@H](NC(=O)Cc1c(C)nn(C)c1C)c1ccc2c(c1)C[C@@]1(CC2)CNCC[C@H]1NC=O

>  <smiles>  (42) 
C272548-P119

>  <HIPPO Pose ID>  (42) 
44377

>  <ref_mols>  (42) 
A4343a,A4343b,A1346a

>  <HIPPO Compound ID>  (42) 
272548

$$$$
C=C(N)[C@H]1CCC(=O)N2Cc3c(c(C)nn3C)CC(=O)N[C@H](c3ccc4ccccc4c3)CNC(=O)[C@H]12
     RDKit          3D

 37 41  0  0  0  0  0  0  0  0999 V2000
    9.7115   16.3980   19.7630 C   0  0  0  0  0  0  0  0  0  0  0  0
   10.3384   15.2185   19.8635 C   0  0  0  0  0  0  0  0  0  0  0  0
   10.9339   14.6333   18.7599 N   0  0  0  0  0  0  0  0  0  0  0  0
   10.5042   14.4339   21.1616 C   0  0  1  0  0  0  0  0  0  0  0  0
   11.8503   14.8716   21.7741 C   0  0  0  0  0  0  0  0  0  0  0  0
   12.2109   14.1607   23.0531 C   0  0  0  0  0  0  0  0  0  0  0  0
   11.0848   14.0788   24.0508 C   0  0  0  0  0  0  0  0  0  0  0  0
   11.3140   14.0877   25.2595 O   0  0  0  0  0  0  0  0  0  0  0  0
    9.8508   13.7155   23.4976 N   0  0  0  0  0  0  0  0  0  0  0  0
    9.7606   12.2569   23.4099 C   0  0  0  0  0  0  0  0  0  0  0  0
    8.8486   11.5781   24.3812 C   0  0  0  0  0  0  0  0  0  0  0  0
    8.1766   11.9442   25.5415 C   0  0  0  0  0  0  0  0  0  0  0  0
    7.3828   10.8120   25.8781 C   0  0  0  0  0  0  0  0  0  0  0  0
    6.3564   10.6717   26.9418 C   0  0  0  0  0  0  0  0  0  0  0  0
    7.6828    9.7629   25.1168 N   0  0  0  0  0  0  0  0  0  0  0  0
    8.5953   10.2273   24.2464 N   0  0  0  0  0  0  0  0  0  0  0  0
    9.2200    9.2862   23.3415 C   0  0  0  0  0  0  0  0  0  0  0  0
    8.2580   13.2045   26.3250 C   0  0  0  0  0  0  0  0  0  0  0  0
    7.5268   14.4073   25.7991 C   0  0  0  0  0  0  0  0  0  0  0  0
    7.7435   15.5093   26.3055 O   0  0  0  0  0  0  0  0  0  0  0  0
    6.6164   14.2076   24.7979 N   0  0  0  0  0  0  0  0  0  0  0  0
    5.7972   15.2922   24.2785 C   0  0  2  0  0  0  0  0  0  0  0  0
    4.4325   15.3376   24.9515 C   0  0  0  0  0  0  0  0  0  0  0  0
    3.7308   16.5487   24.9902 C   0  0  0  0  0  0  0  0  0  0  0  0
    2.5011   16.6579   25.6433 C   0  0  0  0  0  0  0  0  0  0  0  0
    1.9623   15.5649   26.3301 C   0  0  0  0  0  0  0  0  0  0  0  0
    0.7498   15.6689   27.0286 C   0  0  0  0  0  0  0  0  0  0  0  0
    0.2570   14.5875   27.7567 C   0  0  0  0  0  0  0  0  0  0  0  0
    0.9720   13.3947   27.8018 C   0  0  0  0  0  0  0  0  0  0  0  0
    2.1695   13.2727   27.0984 C   0  0  0  0  0  0  0  0  0  0  0  0
    2.6715   14.3445   26.3432 C   0  0  0  0  0  0  0  0  0  0  0  0
    3.8763   14.2373   25.6237 C   0  0  0  0  0  0  0  0  0  0  0  0
    5.7657   15.2677   22.7267 C   0  0  0  0  0  0  0  0  0  0  0  0
    7.1210   15.4095   22.1727 N   0  0  0  0  0  0  0  0  0  0  0  0
    7.9295   14.3028   21.9948 C   0  0  0  0  0  0  0  0  0  0  0  0
    7.4204   13.1981   21.8124 O   0  0  0  0  0  0  0  0  0  0  0  0
    9.4437   14.5057   22.2721 C   0  0  2  0  0  0  0  0  0  0  0  0
  1  2  2  0
  2  3  1  0
  4  2  1  6
  4  5  1  0
  5  6  1  0
  6  7  1  0
  7  8  2  0
  7  9  1  0
  9 10  1  0
 10 11  1  0
 11 12  2  0
 12 13  1  0
 13 14  1  0
 13 15  2  0
 15 16  1  0
 16 17  1  0
 12 18  1  0
 18 19  1  0
 19 20  2  0
 19 21  1  0
 21 22  1  0
 22 23  1  1
 23 24  2  0
 24 25  1  0
 25 26  2  0
 26 27  1  0
 27 28  2  0
 28 29  1  0
 29 30  2  0
 30 31  1  0
 31 32  2  0
 22 33  1  0
 33 34  1  0
 34 35  1  0
 35 36  2  0
 37 35  1  6
 37  4  1  0
 37  9  1  0
 16 11  1  0
 32 23  1  0
 31 26  1  0
M  END
>  <ref_pdb>  (43) 
A0922a

>  <tags>  (43) 
{'fragmenstein_placed', 'openbind_a71ev2a_c1_fragmenstein'}

>  <distance_score>  (43) 
0.731201

>  <energy_score>  (43) 
-62.85558

>  <inchikey>  (43) 
OVSZTICLVOBVDF-UHFFFAOYSA-N

>  <alias>  (43) 
C=C(N)[C@H]1CCC(=O)N2Cc3c(c(C)nn3C)CC(=O)N[C@H](c3ccc4ccccc4c3)CNC(=O)[C@H]12

>  <smiles>  (43) 
C272559-P119

>  <HIPPO Pose ID>  (43) 
44391

>  <ref_mols>  (43) 
A4381a,A1346a

>  <HIPPO Compound ID>  (43) 
272559

$$$$
COc1cc(NC(=O)C[C@H](C)C(F)(F)F)n(CNCCc2cccc(OC)c2-c2nnco2)n1
     RDKit          3D

 34 36  0  0  0  0  0  0  0  0999 V2000
    9.1600    8.7455   23.0871 C   0  0  0  0  0  0  0  0  0  0  0  0
    8.9672   10.1224   23.3342 O   0  0  0  0  0  0  0  0  0  0  0  0
    7.9123   10.4008   24.1139 C   0  0  0  0  0  0  0  0  0  0  0  0
    7.1410    9.6585   24.9942 C   0  0  0  0  0  0  0  0  0  0  0  0
    6.3238   10.5639   25.6413 C   0  0  0  0  0  0  0  0  0  0  0  0
    5.4135   10.2924   26.6294 N   0  0  0  0  0  0  0  0  0  0  0  0
    4.7931   11.2177   27.7091 C   0  0  0  0  0  0  0  0  0  0  0  0
    4.9038   12.3684   27.8736 O   0  0  0  0  0  0  0  0  0  0  0  0
    3.8983   10.3636   28.6051 C   0  0  0  0  0  0  0  0  0  0  0  0
    2.7974   11.2536   29.2095 C   0  0  2  0  0  0  0  0  0  0  0  0
    3.3113   12.1508   30.3434 C   0  0  0  0  0  0  0  0  0  0  0  0
    1.6180   10.4510   29.7164 C   0  0  0  0  0  0  0  0  0  0  0  0
    1.8841    9.8492   30.8927 F   0  0  0  0  0  0  0  0  0  0  0  0
    1.2412    9.4964   28.8405 F   0  0  0  0  0  0  0  0  0  0  0  0
    0.5551   11.2651   29.8968 F   0  0  0  0  0  0  0  0  0  0  0  0
    6.6411   11.7892   25.0849 N   0  0  0  0  0  0  0  0  0  0  0  0
    6.1665   13.1477   25.3703 C   0  0  0  0  0  0  0  0  0  0  0  0
    7.1148   13.8054   26.2946 N   0  0  0  0  0  0  0  0  0  0  0  0
    8.2007   14.5834   25.6504 C   0  0  0  0  0  0  0  0  0  0  0  0
    8.8414   13.9454   24.4283 C   0  0  0  0  0  0  0  0  0  0  0  0
    9.7809   14.6865   23.5239 C   0  0  0  0  0  0  0  0  0  0  0  0
   11.1322   14.3416   23.5972 C   0  0  0  0  0  0  0  0  0  0  0  0
   11.9651   14.6137   22.5286 C   0  0  0  0  0  0  0  0  0  0  0  0
   11.4626   15.2051   21.3872 C   0  0  0  0  0  0  0  0  0  0  0  0
   10.1312   15.6187   21.3418 C   0  0  0  0  0  0  0  0  0  0  0  0
    9.7648   16.1574   20.1469 O   0  0  0  0  0  0  0  0  0  0  0  0
    9.6141   17.5642   20.2806 C   0  0  0  0  0  0  0  0  0  0  0  0
    9.2642   15.4169   22.4234 C   0  0  0  0  0  0  0  0  0  0  0  0
    7.8507   15.8230   22.4774 C   0  0  0  0  0  0  0  0  0  0  0  0
    7.1733   16.3688   23.4744 N   0  0  0  0  0  0  0  0  0  0  0  0
    5.8340   16.1321   23.2514 N   0  0  0  0  0  0  0  0  0  0  0  0
    5.7889   15.4786   22.1204 C   0  0  0  0  0  0  0  0  0  0  0  0
    7.0094   15.2638   21.5754 O   0  0  0  0  0  0  0  0  0  0  0  0
    7.4953   11.6440   24.0424 N   0  0  0  0  0  0  0  0  0  0  0  0
  1  2  1  0
  2  3  1  0
  3  4  1  0
  4  5  2  0
  5  6  1  0
  6  7  1  0
  7  8  2  0
  7  9  1  0
  9 10  1  0
 10 11  1  1
 10 12  1  0
 12 13  1  0
 12 14  1  0
 12 15  1  0
  5 16  1  0
 16 17  1  0
 17 18  1  0
 18 19  1  0
 19 20  1  0
 20 21  1  0
 21 22  2  0
 22 23  1  0
 23 24  2  0
 24 25  1  0
 25 26  1  0
 26 27  1  0
 25 28  2  0
 28 29  1  0
 29 30  2  0
 30 31  1  0
 31 32  2  0
 32 33  1  0
 16 34  1  0
 34  3  2  0
 28 21  1  0
 33 29  1  0
M  END
>  <ref_pdb>  (44) 
A0922a

>  <tags>  (44) 
{'fragmenstein_placed', 'openbind_a71ev2a_c1_fragmenstein'}

>  <distance_score>  (44) 
0.934283

>  <energy_score>  (44) 
-35.992119

>  <inchikey>  (44) 
IEZGWHODQGSBRD-UHFFFAOYSA-N

>  <alias>  (44) 
COc1cc(NC(=O)C[C@H](C)C(F)(F)F)n(CNCCc2cccc(OC)c2-c2nnco2)n1

>  <smiles>  (44) 
C272859-P120

>  <HIPPO Pose ID>  (44) 
44672

>  <ref_mols>  (44) 
A1445a,A4343a,A4343b

>  <HIPPO Compound ID>  (44) 
272859

$$$$
COc1cc(NC(=O)C[C@H](C)C(F)(F)F)n(C=C(CO)Nc2c(C)cc(C)cc2C)n1
     RDKit          3D

 31 32  0  0  0  0  0  0  0  0999 V2000
    9.1886    9.0400   23.1382 C   0  0  0  0  0  0  0  0  0  0  0  0
    9.0407   10.4215   23.4378 O   0  0  0  0  0  0  0  0  0  0  0  0
    8.0449   10.7079   24.2961 C   0  0  0  0  0  0  0  0  0  0  0  0
    7.0699    9.9102   24.8867 C   0  0  0  0  0  0  0  0  0  0  0  0
    6.4070   10.7338   25.7610 C   0  0  0  0  0  0  0  0  0  0  0  0
    5.4999   10.3496   26.7303 N   0  0  0  0  0  0  0  0  0  0  0  0
    5.2896   10.8727   28.1801 C   0  0  0  0  0  0  0  0  0  0  0  0
    5.7996   11.7587   28.7468 O   0  0  0  0  0  0  0  0  0  0  0  0
    4.1488   10.0963   28.8429 C   0  0  0  0  0  0  0  0  0  0  0  0
    2.8957   10.9829   28.9683 C   0  0  2  0  0  0  0  0  0  0  0  0
    3.1398   12.2886   29.7391 C   0  0  0  0  0  0  0  0  0  0  0  0
    1.7359   10.2586   29.6214 C   0  0  0  0  0  0  0  0  0  0  0  0
    1.9442   10.0362   30.9336 F   0  0  0  0  0  0  0  0  0  0  0  0
    1.4971    9.0706   29.0261 F   0  0  0  0  0  0  0  0  0  0  0  0
    0.6082   10.9957   29.4965 F   0  0  0  0  0  0  0  0  0  0  0  0
    6.8981   12.0377   25.5167 N   0  0  0  0  0  0  0  0  0  0  0  0
    6.4349   13.2601   26.0039 C   0  0  0  0  0  0  0  0  0  0  0  0
    5.1887   13.6564   26.3140 C   0  0  0  0  0  0  0  0  0  0  0  0
    3.9666   12.9053   25.8585 C   0  0  0  0  0  0  0  0  0  0  0  0
    3.2474   13.7495   24.9523 O   0  0  0  0  0  0  0  0  0  0  0  0
    4.8429   14.8383   26.9495 N   0  0  0  0  0  0  0  0  0  0  0  0
    5.6645   15.9434   27.2352 C   0  0  0  0  0  0  0  0  0  0  0  0
    6.7102   15.8913   28.1835 C   0  0  0  0  0  0  0  0  0  0  0  0
    6.9510   14.6781   29.0378 C   0  0  0  0  0  0  0  0  0  0  0  0
    7.4510   17.0499   28.4659 C   0  0  0  0  0  0  0  0  0  0  0  0
    7.0975   18.2712   27.9006 C   0  0  0  0  0  0  0  0  0  0  0  0
    7.7649   19.5417   28.3159 C   0  0  0  0  0  0  0  0  0  0  0  0
    6.0280   18.3169   27.0152 C   0  0  0  0  0  0  0  0  0  0  0  0
    5.3570   17.1646   26.6137 C   0  0  0  0  0  0  0  0  0  0  0  0
    4.2452   17.3034   25.6136 C   0  0  0  0  0  0  0  0  0  0  0  0
    8.0016   11.9638   24.7108 N   0  0  0  0  0  0  0  0  0  0  0  0
  1  2  1  0
  2  3  1  0
  3  4  1  0
  4  5  2  0
  5  6  1  0
  6  7  1  0
  7  8  2  0
  7  9  1  0
  9 10  1  0
 10 11  1  1
 10 12  1  0
 12 13  1  0
 12 14  1  0
 12 15  1  0
  5 16  1  0
 16 17  1  0
 17 18  2  3
 18 19  1  0
 19 20  1  0
 18 21  1  0
 21 22  1  0
 22 23  2  0
 23 24  1  0
 23 25  1  0
 25 26  2  0
 26 27  1  0
 26 28  1  0
 28 29  2  0
 29 30  1  0
 16 31  1  0
 31  3  2  0
 29 22  1  0
M  END
>  <ref_pdb>  (45) 
A0922a

>  <tags>  (45) 
{'fragmenstein_placed', 'openbind_a71ev2a_c1_fragmenstein'}

>  <distance_score>  (45) 
0.993993

>  <energy_score>  (45) 
-47.431063

>  <inchikey>  (45) 
PLZILBKPHDDFAT-UHFFFAOYSA-N

>  <alias>  (45) 
COc1cc(NC(=O)C[C@H](C)C(F)(F)F)n(C=C(CO)Nc2c(C)cc(C)cc2C)n1

>  <smiles>  (45) 
C272877-P120

>  <HIPPO Pose ID>  (45) 
44686

>  <ref_mols>  (45) 
A1445a,A4237a

>  <HIPPO Compound ID>  (45) 
272877

$$$$
CNC(O)(O)c1nn(C)c2ccc(F)cc12
     RDKit          3D

 16 17  0  0  0  0  0  0  0  0999 V2000
   12.2793   14.3864   21.7868 C   0  0  0  0  0  0  0  0  0  0  0  0
   11.0508   13.6168   21.8098 N   0  0  0  0  0  0  0  0  0  0  0  0
   10.3084   13.6766   23.0331 C   0  0  0  0  0  0  0  0  0  0  0  0
   11.0962   14.1425   24.1201 O   0  0  0  0  0  0  0  0  0  0  0  0
    9.3047   14.6121   22.7805 O   0  0  0  0  0  0  0  0  0  0  0  0
    9.6723   12.3501   23.3965 C   0  0  0  0  0  0  0  0  0  0  0  0
   10.1894   11.1739   23.0172 N   0  0  0  0  0  0  0  0  0  0  0  0
    9.3695   10.2592   23.5615 N   0  0  0  0  0  0  0  0  0  0  0  0
    9.5488    8.8785   23.1847 C   0  0  0  0  0  0  0  0  0  0  0  0
    8.4477   10.7920   24.4323 C   0  0  0  0  0  0  0  0  0  0  0  0
    7.5060   10.2177   25.3001 C   0  0  0  0  0  0  0  0  0  0  0  0
    6.6633   11.0843   26.0076 C   0  0  0  0  0  0  0  0  0  0  0  0
    6.7549   12.4616   25.8373 C   0  0  0  0  0  0  0  0  0  0  0  0
    5.9063   13.2657   26.4941 F   0  0  0  0  0  0  0  0  0  0  0  0
    7.7041   13.0276   24.9908 C   0  0  0  0  0  0  0  0  0  0  0  0
    8.5710   12.1715   24.2838 C   0  0  0  0  0  0  0  0  0  0  0  0
  1  2  1  0
  2  3  1  0
  3  4  1  0
  3  5  1  0
  3  6  1  0
  6  7  2  0
  7  8  1  0
  8  9  1  0
  8 10  1  0
 10 11  2  0
 11 12  1  0
 12 13  2  0
 13 14  1  0
 13 15  1  0
 15 16  2  0
 16  6  1  0
 16 10  1  0
M  END
>  <ref_pdb>  (46) 
A2290a

>  <tags>  (46) 
{'fragmenstein_placed', 'openbind_a71ev2a_c1_fragmenstein'}

>  <distance_score>  (46) 
0.579463

>  <energy_score>  (46) 
-21.199322

>  <inchikey>  (46) 
CGZRVGDEPBQRLK-UHFFFAOYSA-N

>  <alias>  (46) 
CNC(O)(O)c1nn(C)c2ccc(F)cc12

>  <smiles>  (46) 
C204752-P126

>  <HIPPO Pose ID>  (46) 
45189

>  <ref_mols>  (46) 
A2351a,A2290a

>  <HIPPO Compound ID>  (46) 
204752

$$$$
CNC(=O)c1nn(C)c2cc(NCc3cc(C)no3)c(O)cc12
     RDKit          3D

 23 25  0  0  0  0  0  0  0  0999 V2000
   12.1912   14.4420   21.9191 C   0  0  0  0  0  0  0  0  0  0  0  0
   11.4376   13.3803   22.5145 N   0  0  0  0  0  0  0  0  0  0  0  0
   10.6497   13.3325   23.8336 C   0  0  0  0  0  0  0  0  0  0  0  0
   10.5509   14.1233   24.6835 O   0  0  0  0  0  0  0  0  0  0  0  0
    9.9270   12.0533   23.9258 C   0  0  0  0  0  0  0  0  0  0  0  0
   10.2638   11.0090   23.1502 N   0  0  0  0  0  0  0  0  0  0  0  0
    9.4764   10.0078   23.5790 N   0  0  0  0  0  0  0  0  0  0  0  0
    9.6119    8.7083   22.9669 C   0  0  0  0  0  0  0  0  0  0  0  0
    8.5996   10.3829   24.5634 C   0  0  0  0  0  0  0  0  0  0  0  0
    7.6120    9.6833   25.2662 C   0  0  0  0  0  0  0  0  0  0  0  0
    6.7984   10.3377   26.2113 C   0  0  0  0  0  0  0  0  0  0  0  0
    5.7567    9.5740   26.7322 N   0  0  0  0  0  0  0  0  0  0  0  0
    4.8645    9.9636   27.8096 C   0  0  0  0  0  0  0  0  0  0  0  0
    5.2206    9.4486   29.1555 C   0  0  0  0  0  0  0  0  0  0  0  0
    4.6601    8.5037   29.9812 C   0  0  0  0  0  0  0  0  0  0  0  0
    5.4626    8.5323   31.1406 C   0  0  0  0  0  0  0  0  0  0  0  0
    5.3160    7.7322   32.3765 C   0  0  0  0  0  0  0  0  0  0  0  0
    6.4660    9.4114   31.0182 N   0  0  0  0  0  0  0  0  0  0  0  0
    6.3073    9.9900   29.7672 O   0  0  0  0  0  0  0  0  0  0  0  0
    7.0239   11.7100   26.4019 C   0  0  0  0  0  0  0  0  0  0  0  0
    6.2536   12.4332   27.2764 O   0  0  0  0  0  0  0  0  0  0  0  0
    8.0449   12.4084   25.7263 C   0  0  0  0  0  0  0  0  0  0  0  0
    8.8424   11.7284   24.7883 C   0  0  0  0  0  0  0  0  0  0  0  0
  1  2  1  0
  2  3  1  0
  3  4  2  0
  3  5  1  0
  5  6  2  0
  6  7  1  0
  7  8  1  0
  7  9  1  0
  9 10  2  0
 10 11  1  0
 11 12  1  0
 12 13  1  0
 13 14  1  0
 14 15  2  0
 15 16  1  0
 16 17  1  0
 16 18  2  0
 18 19  1  0
 11 20  2  0
 20 21  1  0
 20 22  1  0
 22 23  2  0
 23  5  1  0
 23  9  1  0
 19 14  1  0
M  END
>  <ref_pdb>  (47) 
A2290a

>  <tags>  (47) 
{'fragmenstein_placed', 'openbind_a71ev2a_c1_fragmenstein'}

>  <distance_score>  (47) 
0.458814

>  <energy_score>  (47) 
-18.138574

>  <inchikey>  (47) 
QBTJBIZQBLWTHK-UHFFFAOYSA-N

>  <alias>  (47) 
CNC(=O)c1nn(C)c2cc(NCc3cc(C)no3)c(O)cc12

>  <smiles>  (47) 
C204757-P126

>  <HIPPO Pose ID>  (47) 
45193

>  <ref_mols>  (47) 
A3175a,A2290a

>  <HIPPO Compound ID>  (47) 
204757

$$$$
CN([C@H]1CCOC1)C(O)(O)c1nn(C)c2ccccc12
     RDKit          3D

 20 22  0  0  0  0  0  0  0  0999 V2000
   11.5919   12.7002   22.7589 C   0  0  0  0  0  0  0  0  0  0  0  0
   10.3990   13.5203   22.5575 N   0  0  0  0  0  0  0  0  0  0  0  0
   10.5992   14.7658   21.7910 C   0  0  1  0  0  0  0  0  0  0  0  0
   11.8956   15.4717   22.0725 C   0  0  0  0  0  0  0  0  0  0  0  0
   12.8774   14.8460   21.1329 C   0  0  0  0  0  0  0  0  0  0  0  0
   12.1474   14.4910   19.9656 O   0  0  0  0  0  0  0  0  0  0  0  0
   10.7508   14.5957   20.2806 C   0  0  0  0  0  0  0  0  0  0  0  0
    9.5609   13.5764   23.7455 C   0  0  0  0  0  0  0  0  0  0  0  0
    8.5341   14.5335   23.6021 O   0  0  0  0  0  0  0  0  0  0  0  0
   10.3385   13.9950   24.8591 O   0  0  0  0  0  0  0  0  0  0  0  0
    8.9520   12.2117   24.0584 C   0  0  0  0  0  0  0  0  0  0  0  0
    9.2762   11.0982   23.3835 N   0  0  0  0  0  0  0  0  0  0  0  0
    8.6833   10.1142   24.0513 N   0  0  0  0  0  0  0  0  0  0  0  0
    9.0270    8.7650   23.6933 C   0  0  0  0  0  0  0  0  0  0  0  0
    7.8201   10.5511   25.0201 C   0  0  0  0  0  0  0  0  0  0  0  0
    6.9067    9.8926   25.8456 C   0  0  0  0  0  0  0  0  0  0  0  0
    6.1611   10.6592   26.7433 C   0  0  0  0  0  0  0  0  0  0  0  0
    6.3327   12.0379   26.8216 C   0  0  0  0  0  0  0  0  0  0  0  0
    7.2530   12.6884   25.9949 C   0  0  0  0  0  0  0  0  0  0  0  0
    7.9917   11.9304   25.0670 C   0  0  0  0  0  0  0  0  0  0  0  0
  1  2  1  0
  3  2  1  1
  3  4  1  0
  4  5  1  0
  5  6  1  0
  6  7  1  0
  2  8  1  0
  8  9  1  0
  8 10  1  0
  8 11  1  0
 11 12  2  0
 12 13  1  0
 13 14  1  0
 13 15  1  0
 15 16  2  0
 16 17  1  0
 17 18  2  0
 18 19  1  0
 19 20  2  0
  7  3  1  0
 20 11  1  0
 20 15  1  0
M  END
>  <ref_pdb>  (48) 
A2290a

>  <tags>  (48) 
{'fragmenstein_placed', 'openbind_a71ev2a_c1_fragmenstein'}

>  <distance_score>  (48) 
0.878271

>  <energy_score>  (48) 
-32.654867

>  <inchikey>  (48) 
HFYNVCDYDDENBP-UHFFFAOYSA-N

>  <alias>  (48) 
CN([C@H]1CCOC1)C(O)(O)c1nn(C)c2ccccc12

>  <smiles>  (48) 
C204759-P126

>  <HIPPO Pose ID>  (48) 
45194

>  <ref_mols>  (48) 
A2290a,A3178a

>  <HIPPO Compound ID>  (48) 
204759

$$$$
CNC(=O)c1nn(C)c2ccc(Nc3ccn(C)n3)cc12
     RDKit          3D

 21 23  0  0  0  0  0  0  0  0999 V2000
   12.2918   14.3746   21.4970 C   0  0  0  0  0  0  0  0  0  0  0  0
   11.5694   13.3368   22.1650 N   0  0  0  0  0  0  0  0  0  0  0  0
   11.0522   13.2506   23.6085 C   0  0  0  0  0  0  0  0  0  0  0  0
   11.1978   13.9781   24.5087 O   0  0  0  0  0  0  0  0  0  0  0  0
   10.2511   12.0138   23.7659 C   0  0  0  0  0  0  0  0  0  0  0  0
   10.4170   10.9371   22.9830 N   0  0  0  0  0  0  0  0  0  0  0  0
    9.5895   10.0061   23.5008 N   0  0  0  0  0  0  0  0  0  0  0  0
    9.6035    8.6780   22.9397 C   0  0  0  0  0  0  0  0  0  0  0  0
    8.7948   10.4739   24.5149 C   0  0  0  0  0  0  0  0  0  0  0  0
    7.7634    9.9048   25.2769 C   0  0  0  0  0  0  0  0  0  0  0  0
    7.0856   10.7339   26.1840 C   0  0  0  0  0  0  0  0  0  0  0  0
    7.4638   12.0662   26.3608 C   0  0  0  0  0  0  0  0  0  0  0  0
    6.6381   12.9831   27.0573 N   0  0  0  0  0  0  0  0  0  0  0  0
    6.2315   14.1436   26.4769 C   0  0  0  0  0  0  0  0  0  0  0  0
    5.2843   15.0271   27.0349 C   0  0  0  0  0  0  0  0  0  0  0  0
    5.0339   15.9510   26.0437 C   0  0  0  0  0  0  0  0  0  0  0  0
    5.8019   15.5650   24.9877 N   0  0  0  0  0  0  0  0  0  0  0  0
    5.7575   16.0146   23.6249 C   0  0  0  0  0  0  0  0  0  0  0  0
    6.6281   14.5721   25.2792 N   0  0  0  0  0  0  0  0  0  0  0  0
    8.5773   12.5629   25.6657 C   0  0  0  0  0  0  0  0  0  0  0  0
    9.2170   11.7821   24.7052 C   0  0  0  0  0  0  0  0  0  0  0  0
  1  2  1  0
  2  3  1  0
  3  4  2  0
  3  5  1  0
  5  6  2  0
  6  7  1  0
  7  8  1  0
  7  9  1  0
  9 10  2  0
 10 11  1  0
 11 12  2  0
 12 13  1  0
 13 14  1  0
 14 15  1  0
 15 16  2  0
 16 17  1  0
 17 18  1  0
 17 19  1  0
 12 20  1  0
 20 21  2  0
 21  5  1  0
 21  9  1  0
 19 14  2  0
M  END
>  <ref_pdb>  (49) 
A2290a

>  <tags>  (49) 
{'fragmenstein_placed', 'openbind_a71ev2a_c1_fragmenstein'}

>  <distance_score>  (49) 
0.621399

>  <energy_score>  (49) 
-23.260363

>  <inchikey>  (49) 
BULUSAUFSRPROH-UHFFFAOYSA-N

>  <alias>  (49) 
CNC(=O)c1nn(C)c2ccc(Nc3ccn(C)n3)cc12

>  <smiles>  (49) 
C204769-P126

>  <HIPPO Pose ID>  (49) 
45204

>  <ref_mols>  (49) 
A3279a,A2290a

>  <HIPPO Compound ID>  (49) 
204769

$$$$
Cn1nc(C(=O)NCc2cocn2)c2ccccc21
     RDKit          3D

 19 21  0  0  0  0  0  0  0  0999 V2000
    9.4659    8.6688   23.0564 C   0  0  0  0  0  0  0  0  0  0  0  0
    9.4235    9.9783   23.6596 N   0  0  0  0  0  0  0  0  0  0  0  0
   10.2717   10.9081   23.2008 N   0  0  0  0  0  0  0  0  0  0  0  0
   10.0000   12.0046   23.9270 C   0  0  0  0  0  0  0  0  0  0  0  0
   10.7777   13.2341   23.7192 C   0  0  0  0  0  0  0  0  0  0  0  0
   10.8654   14.0552   24.5414 O   0  0  0  0  0  0  0  0  0  0  0  0
   11.3283   13.1962   22.2897 N   0  0  0  0  0  0  0  0  0  0  0  0
   12.0185   14.1899   21.5360 C   0  0  0  0  0  0  0  0  0  0  0  0
   10.9969   14.9235   20.7593 C   0  0  0  0  0  0  0  0  0  0  0  0
   10.7989   14.9913   19.4014 C   0  0  0  0  0  0  0  0  0  0  0  0
    9.8102   15.8999   19.1618 O   0  0  0  0  0  0  0  0  0  0  0  0
    9.4550   16.3293   20.3988 C   0  0  0  0  0  0  0  0  0  0  0  0
   10.0779   15.7293   21.3835 N   0  0  0  0  0  0  0  0  0  0  0  0
    8.9127   11.7812   24.8118 C   0  0  0  0  0  0  0  0  0  0  0  0
    8.1718   12.5627   25.7189 C   0  0  0  0  0  0  0  0  0  0  0  0
    7.1336   11.9676   26.4436 C   0  0  0  0  0  0  0  0  0  0  0  0
    6.8378   10.6169   26.2795 C   0  0  0  0  0  0  0  0  0  0  0  0
    7.5569    9.8290   25.3762 C   0  0  0  0  0  0  0  0  0  0  0  0
    8.5786   10.4393   24.6392 C   0  0  0  0  0  0  0  0  0  0  0  0
  1  2  1  0
  2  3  1  0
  3  4  2  0
  4  5  1  0
  5  6  2  0
  5  7  1  0
  7  8  1  0
  8  9  1  0
  9 10  2  0
 10 11  1  0
 11 12  1  0
 12 13  2  0
  4 14  1  0
 14 15  2  0
 15 16  1  0
 16 17  2  0
 17 18  1  0
 18 19  2  0
 19  2  1  0
 13  9  1  0
 19 14  1  0
M  END
>  <ref_pdb>  (50) 
A2290a

>  <tags>  (50) 
{'fragmenstein_placed', 'openbind_a71ev2a_c1_fragmenstein'}

>  <distance_score>  (50) 
0.6943

>  <energy_score>  (50) 
-32.357413

>  <inchikey>  (50) 
GJSLUQQORYADDA-UHFFFAOYSA-N

>  <alias>  (50) 
Cn1nc(C(=O)NCc2cocn2)c2ccccc21

>  <smiles>  (50) 
C204781-P126

>  <HIPPO Pose ID>  (50) 
45214

>  <ref_mols>  (50) 
A3403a,A2290a

>  <HIPPO Compound ID>  (50) 
204781

$$$$
Cn1nc(C(=O)NCCc2cocn2)c2ccccc21
     RDKit          3D

 20 22  0  0  0  0  0  0  0  0999 V2000
    9.3292    8.7636   23.1772 C   0  0  0  0  0  0  0  0  0  0  0  0
    9.1883   10.0280   23.8580 N   0  0  0  0  0  0  0  0  0  0  0  0
   10.0254   11.0209   23.5199 N   0  0  0  0  0  0  0  0  0  0  0  0
    9.6826   12.0353   24.3356 C   0  0  0  0  0  0  0  0  0  0  0  0
   10.4689   13.2728   24.3591 C   0  0  0  0  0  0  0  0  0  0  0  0
   10.3470   14.0712   25.1975 O   0  0  0  0  0  0  0  0  0  0  0  0
   11.3450   13.2759   23.1073 N   0  0  0  0  0  0  0  0  0  0  0  0
   12.3251   14.2113   22.6647 C   0  0  0  0  0  0  0  0  0  0  0  0
   12.3530   14.3672   21.1618 C   0  0  0  0  0  0  0  0  0  0  0  0
   11.1093   14.9501   20.6120 C   0  0  0  0  0  0  0  0  0  0  0  0
   10.7262   15.0449   19.2997 C   0  0  0  0  0  0  0  0  0  0  0  0
    9.6494   15.8725   19.2276 O   0  0  0  0  0  0  0  0  0  0  0  0
    9.4263   16.2265   20.5194 C   0  0  0  0  0  0  0  0  0  0  0  0
   10.2276   15.6564   21.3873 N   0  0  0  0  0  0  0  0  0  0  0  0
    8.5512   11.7173   25.1195 C   0  0  0  0  0  0  0  0  0  0  0  0
    7.7571   12.4031   26.0570 C   0  0  0  0  0  0  0  0  0  0  0  0
    6.7251   11.7195   26.7009 C   0  0  0  0  0  0  0  0  0  0  0  0
    6.4945   10.3755   26.4278 C   0  0  0  0  0  0  0  0  0  0  0  0
    7.2705    9.6881   25.4899 C   0  0  0  0  0  0  0  0  0  0  0  0
    8.2847   10.3834   24.8302 C   0  0  0  0  0  0  0  0  0  0  0  0
  1  2  1  0
  2  3  1  0
  3  4  2  0
  4  5  1  0
  5  6  2  0
  5  7  1  0
  7  8  1  0
  8  9  1  0
  9 10  1  0
 10 11  2  0
 11 12  1  0
 12 13  1  0
 13 14  2  0
  4 15  1  0
 15 16  2  0
 16 17  1  0
 17 18  2  0
 18 19  1  0
 19 20  2  0
 20  2  1  0
 14 10  1  0
 20 15  1  0
M  END
>  <ref_pdb>  (51) 
A2290a

>  <tags>  (51) 
{'fragmenstein_placed', 'openbind_a71ev2a_c1_fragmenstein'}

>  <distance_score>  (51) 
0.542984

>  <energy_score>  (51) 
-27.234092

>  <inchikey>  (51) 
ONGQCMNCDUWDOR-UHFFFAOYSA-N

>  <alias>  (51) 
Cn1nc(C(=O)NCCc2cocn2)c2ccccc21

>  <smiles>  (51) 
C107-P126

>  <HIPPO Pose ID>  (51) 
45216

>  <ref_mols>  (51) 
A2290a,A3436a

>  <HIPPO Compound ID>  (51) 
107

$$$$
CC(=O)c1ccc2c(c1)c(C(=O)NC[C@@H]1Cc3ccccc3CN1)nn2C
     RDKit          3D

 27 30  0  0  0  0  0  0  0  0999 V2000
    6.5207   13.7449   27.7295 C   0  0  0  0  0  0  0  0  0  0  0  0
    6.0737   12.5980   26.8700 C   0  0  0  0  0  0  0  0  0  0  0  0
    4.9318   12.1474   26.9625 O   0  0  0  0  0  0  0  0  0  0  0  0
    7.0472   11.9460   25.9710 C   0  0  0  0  0  0  0  0  0  0  0  0
    6.9795   10.5575   25.8467 C   0  0  0  0  0  0  0  0  0  0  0  0
    7.8547    9.8774   25.0042 C   0  0  0  0  0  0  0  0  0  0  0  0
    8.7730   10.6285   24.2718 C   0  0  0  0  0  0  0  0  0  0  0  0
    8.8638   12.0108   24.3835 C   0  0  0  0  0  0  0  0  0  0  0  0
    7.9936   12.6899   25.2577 C   0  0  0  0  0  0  0  0  0  0  0  0
    9.9051   12.3869   23.4915 C   0  0  0  0  0  0  0  0  0  0  0  0
   10.4020   13.7536   23.2353 C   0  0  0  0  0  0  0  0  0  0  0  0
    9.9706   14.6541   23.8331 O   0  0  0  0  0  0  0  0  0  0  0  0
   11.5002   13.7044   22.1661 N   0  0  0  0  0  0  0  0  0  0  0  0
   12.3742   14.7441   21.6678 C   0  0  0  0  0  0  0  0  0  0  0  0
   12.4318   14.7872   20.1312 C   0  0  2  0  0  0  0  0  0  0  0  0
   13.2180   15.9948   19.5911 C   0  0  0  0  0  0  0  0  0  0  0  0
   12.4199   17.2748   19.5739 C   0  0  0  0  0  0  0  0  0  0  0  0
   13.0686   18.5102   19.4343 C   0  0  0  0  0  0  0  0  0  0  0  0
   12.3377   19.6965   19.4717 C   0  0  0  0  0  0  0  0  0  0  0  0
   10.9553   19.6509   19.6301 C   0  0  0  0  0  0  0  0  0  0  0  0
   10.2994   18.4217   19.7187 C   0  0  0  0  0  0  0  0  0  0  0  0
   11.0214   17.2238   19.6803 C   0  0  0  0  0  0  0  0  0  0  0  0
   10.2893   15.9105   19.8253 C   0  0  0  0  0  0  0  0  0  0  0  0
   11.0967   14.7326   19.5378 N   0  0  0  0  0  0  0  0  0  0  0  0
   10.4362   11.3098   22.8851 N   0  0  0  0  0  0  0  0  0  0  0  0
    9.7076   10.2727   23.3361 N   0  0  0  0  0  0  0  0  0  0  0  0
    9.9611    8.9491   22.8130 C   0  0  0  0  0  0  0  0  0  0  0  0
  1  2  1  0
  2  3  2  0
  2  4  1  0
  4  5  2  0
  5  6  1  0
  6  7  2  0
  7  8  1  0
  8  9  2  0
  8 10  1  0
 10 11  1  0
 11 12  2  0
 11 13  1  0
 13 14  1  0
 15 14  1  1
 15 16  1  0
 16 17  1  0
 17 18  2  0
 18 19  1  0
 19 20  2  0
 20 21  1  0
 21 22  2  0
 22 23  1  0
 23 24  1  0
 10 25  2  0
 25 26  1  0
 26 27  1  0
  9  4  1  0
 24 15  1  0
 26  7  1  0
 22 17  1  0
M  END
>  <ref_pdb>  (52) 
A2290a

>  <tags>  (52) 
{'fragmenstein_placed', 'openbind_a71ev2a_c1_fragmenstein'}

>  <distance_score>  (52) 
0.547861

>  <energy_score>  (52) 
-58.079144

>  <inchikey>  (52) 
HGBAQJNRTBXKBY-UHFFFAOYSA-N

>  <alias>  (52) 
CC(=O)c1ccc2c(c1)c(C(=O)NC[C@@H]1Cc3ccccc3CN1)nn2C

>  <smiles>  (52) 
C205051-P127

>  <HIPPO Pose ID>  (52) 
45418

>  <ref_mols>  (52) 
A0554a,A2293a

>  <HIPPO Compound ID>  (52) 
205051

$$$$
Cn1nc(C(=O)NC[C@@H]2Cc3ccccc3CN2)c2cc(F)ccc21
     RDKit          3D

 25 28  0  0  0  0  0  0  0  0999 V2000
    9.9021    8.9735   22.8481 C   0  0  0  0  0  0  0  0  0  0  0  0
    9.6364   10.3058   23.3416 N   0  0  0  0  0  0  0  0  0  0  0  0
   10.3518   11.3358   22.8562 N   0  0  0  0  0  0  0  0  0  0  0  0
    9.8365   12.4236   23.4599 C   0  0  0  0  0  0  0  0  0  0  0  0
   10.3574   13.7860   23.2067 C   0  0  0  0  0  0  0  0  0  0  0  0
    9.9618   14.6818   23.8356 O   0  0  0  0  0  0  0  0  0  0  0  0
   11.4669   13.7266   22.1492 N   0  0  0  0  0  0  0  0  0  0  0  0
   12.2659   14.7782   21.5687 C   0  0  0  0  0  0  0  0  0  0  0  0
   12.2341   14.8254   20.0287 C   0  0  2  0  0  0  0  0  0  0  0  0
   13.1170   15.9651   19.4749 C   0  0  0  0  0  0  0  0  0  0  0  0
   12.4422   17.3146   19.5017 C   0  0  0  0  0  0  0  0  0  0  0  0
   13.1935   18.4878   19.3502 C   0  0  0  0  0  0  0  0  0  0  0  0
   12.5713   19.7349   19.4075 C   0  0  0  0  0  0  0  0  0  0  0  0
   11.1954   19.8146   19.6025 C   0  0  0  0  0  0  0  0  0  0  0  0
   10.4379   18.6504   19.7133 C   0  0  0  0  0  0  0  0  0  0  0  0
   11.0506   17.3941   19.6566 C   0  0  0  0  0  0  0  0  0  0  0  0
   10.2068   16.1598   19.8394 C   0  0  0  0  0  0  0  0  0  0  0  0
   10.8695   14.9107   19.4792 N   0  0  0  0  0  0  0  0  0  0  0  0
    8.8130   12.0579   24.3811 C   0  0  0  0  0  0  0  0  0  0  0  0
    7.9735   12.7422   25.2810 C   0  0  0  0  0  0  0  0  0  0  0  0
    7.0602   12.0092   26.0360 C   0  0  0  0  0  0  0  0  0  0  0  0
    6.2337   12.6442   26.8785 F   0  0  0  0  0  0  0  0  0  0  0  0
    6.9835   10.6273   25.9412 C   0  0  0  0  0  0  0  0  0  0  0  0
    7.8193    9.9335   25.0662 C   0  0  0  0  0  0  0  0  0  0  0  0
    8.7180   10.6726   24.2907 C   0  0  0  0  0  0  0  0  0  0  0  0
  1  2  1  0
  2  3  1  0
  3  4  2  0
  4  5  1  0
  5  6  2  0
  5  7  1  0
  7  8  1  0
  9  8  1  1
  9 10  1  0
 10 11  1  0
 11 12  2  0
 12 13  1  0
 13 14  2  0
 14 15  1  0
 15 16  2  0
 16 17  1  0
 17 18  1  0
  4 19  1  0
 19 20  2  0
 20 21  1  0
 21 22  1  0
 21 23  2  0
 23 24  1  0
 24 25  2  0
 25  2  1  0
 18  9  1  0
 25 19  1  0
 16 11  1  0
M  END
>  <ref_pdb>  (53) 
A2290a

>  <tags>  (53) 
{'fragmenstein_placed', 'openbind_a71ev2a_c1_fragmenstein'}

>  <distance_score>  (53) 
0.52956

>  <energy_score>  (53) 
-25.795402

>  <inchikey>  (53) 
IUKJWGRXOODHIO-UHFFFAOYSA-N

>  <alias>  (53) 
Cn1nc(C(=O)NC[C@@H]2Cc3ccccc3CN2)c2cc(F)ccc21

>  <smiles>  (53) 
C205067-P127

>  <HIPPO Pose ID>  (53) 
45427

>  <ref_mols>  (53) 
A0884a,A2293a

>  <HIPPO Compound ID>  (53) 
205067

$$$$
Cn1nc([C@H](N=O)NC[C@@H]2Cc3ccccc3CN2)c2c1CCCCCC2
     RDKit          3D

 27 30  0  0  0  0  0  0  0  0999 V2000
    9.7581    8.9774   22.8196 C   0  0  0  0  0  0  0  0  0  0  0  0
    9.5241   10.3111   23.3346 N   0  0  0  0  0  0  0  0  0  0  0  0
   10.2209   11.3068   22.7999 N   0  0  0  0  0  0  0  0  0  0  0  0
    9.9071   12.3884   23.5227 C   0  0  0  0  0  0  0  0  0  0  0  0
   10.5055   13.7512   23.1497 C   0  0  2  0  0  0  0  0  0  0  0  0
    9.3900   14.6473   22.6832 N   0  0  0  0  0  0  0  0  0  0  0  0
    8.8323   14.2378   21.6574 O   0  0  0  0  0  0  0  0  0  0  0  0
   11.6512   13.5642   22.2391 N   0  0  0  0  0  0  0  0  0  0  0  0
   12.2740   14.7996   21.7465 C   0  0  0  0  0  0  0  0  0  0  0  0
   12.3981   14.8549   20.1998 C   0  0  2  0  0  0  0  0  0  0  0  0
   13.2699   16.0228   19.6877 C   0  0  0  0  0  0  0  0  0  0  0  0
   12.5494   17.3430   19.5938 C   0  0  0  0  0  0  0  0  0  0  0  0
   13.2646   18.5430   19.4802 C   0  0  0  0  0  0  0  0  0  0  0  0
   12.5941   19.7667   19.4794 C   0  0  0  0  0  0  0  0  0  0  0  0
   11.2072   19.7953   19.5883 C   0  0  0  0  0  0  0  0  0  0  0  0
   10.4898   18.6020   19.6399 C   0  0  0  0  0  0  0  0  0  0  0  0
   11.1516   17.3689   19.6130 C   0  0  0  0  0  0  0  0  0  0  0  0
   10.3426   16.1026   19.6936 C   0  0  0  0  0  0  0  0  0  0  0  0
   11.0950   14.8644   19.5443 N   0  0  0  0  0  0  0  0  0  0  0  0
    8.9660   12.0581   24.5676 C   0  0  0  0  0  0  0  0  0  0  0  0
    8.6886   10.7136   24.3551 C   0  0  0  0  0  0  0  0  0  0  0  0
    7.7991    9.7088   24.9832 C   0  0  0  0  0  0  0  0  0  0  0  0
    6.5684   10.1333   25.7525 C   0  0  0  0  0  0  0  0  0  0  0  0
    6.8663   10.7961   27.0782 C   0  0  0  0  0  0  0  0  0  0  0  0
    6.4582   12.2497   27.0783 C   0  0  0  0  0  0  0  0  0  0  0  0
    6.9690   13.0539   25.8848 C   0  0  0  0  0  0  0  0  0  0  0  0
    8.4695   13.0007   25.6277 C   0  0  0  0  0  0  0  0  0  0  0  0
  1  2  1  0
  2  3  1  0
  3  4  2  0
  4  5  1  0
  5  6  1  0
  6  7  2  0
  5  8  1  6
  8  9  1  0
 10  9  1  1
 10 11  1  0
 11 12  1  0
 12 13  2  0
 13 14  1  0
 14 15  2  0
 15 16  1  0
 16 17  2  0
 17 18  1  0
 18 19  1  0
  4 20  1  0
 20 21  2  0
 21 22  1  0
 22 23  1  0
 23 24  1  0
 24 25  1  0
 25 26  1  0
 26 27  1  0
 21  2  1  0
 19 10  1  0
 27 20  1  0
 17 12  1  0
M  END
>  <ref_pdb>  (54) 
A2290a

>  <tags>  (54) 
{'fragmenstein_placed', 'openbind_a71ev2a_c1_fragmenstein'}

>  <distance_score>  (54) 
0.928438

>  <energy_score>  (54) 
-153.633803

>  <inchikey>  (54) 
XULPWVWELPOSEM-UHFFFAOYSA-N

>  <alias>  (54) 
Cn1nc([C@H](N=O)NC[C@@H]2Cc3ccccc3CN2)c2c1CCCCCC2

>  <smiles>  (54) 
C205096-P127

>  <HIPPO Pose ID>  (54) 
45445

>  <ref_mols>  (54) 
A3189a,A2293a

>  <HIPPO Compound ID>  (54) 
209253

$$$$
Cn1nc(C(=O)NC[C@H]2Cc3ccccc3CN2)c2cccc(O)c21
     RDKit          3D

 25 28  0  0  0  0  0  0  0  0999 V2000
    9.4947    8.7858   23.1375 C   0  0  0  0  0  0  0  0  0  0  0  0
    9.4021   10.1879   23.4583 N   0  0  0  0  0  0  0  0  0  0  0  0
   10.1951   11.0493   22.8001 N   0  0  0  0  0  0  0  0  0  0  0  0
   10.0224   12.2181   23.4429 C   0  0  0  0  0  0  0  0  0  0  0  0
   10.8161   13.4134   23.1090 C   0  0  0  0  0  0  0  0  0  0  0  0
   10.8352   14.3235   23.8314 O   0  0  0  0  0  0  0  0  0  0  0  0
   11.5205   13.1960   21.7690 N   0  0  0  0  0  0  0  0  0  0  0  0
   12.4737   14.0112   21.0740 C   0  0  0  0  0  0  0  0  0  0  0  0
   11.9148   15.3575   20.6411 C   0  0  1  0  0  0  0  0  0  0  0  0
   12.9682   16.1624   19.8576 C   0  0  0  0  0  0  0  0  0  0  0  0
   12.4167   17.5410   19.5962 C   0  0  0  0  0  0  0  0  0  0  0  0
   13.2748   18.6317   19.4209 C   0  0  0  0  0  0  0  0  0  0  0  0
   12.7555   19.9230   19.3816 C   0  0  0  0  0  0  0  0  0  0  0  0
   11.3845   20.1223   19.5165 C   0  0  0  0  0  0  0  0  0  0  0  0
   10.5233   19.0331   19.6241 C   0  0  0  0  0  0  0  0  0  0  0  0
   11.0234   17.7311   19.6265 C   0  0  0  0  0  0  0  0  0  0  0  0
   10.0586   16.5739   19.7719 C   0  0  0  0  0  0  0  0  0  0  0  0
   10.6869   15.2508   19.8224 N   0  0  0  0  0  0  0  0  0  0  0  0
    9.0324   12.1051   24.4548 C   0  0  0  0  0  0  0  0  0  0  0  0
    8.4476   12.9799   25.3891 C   0  0  0  0  0  0  0  0  0  0  0  0
    7.4495   12.5056   26.2444 C   0  0  0  0  0  0  0  0  0  0  0  0
    7.0363   11.1795   26.1816 C   0  0  0  0  0  0  0  0  0  0  0  0
    7.6204   10.3027   25.2676 C   0  0  0  0  0  0  0  0  0  0  0  0
    7.2036    9.0098   25.1943 O   0  0  0  0  0  0  0  0  0  0  0  0
    8.6202   10.7768   24.4170 C   0  0  0  0  0  0  0  0  0  0  0  0
  1  2  1  0
  2  3  1  0
  3  4  2  0
  4  5  1  0
  5  6  2  0
  5  7  1  0
  7  8  1  0
  9  8  1  6
  9 10  1  0
 10 11  1  0
 11 12  2  0
 12 13  1  0
 13 14  2  0
 14 15  1  0
 15 16  2  0
 16 17  1  0
 17 18  1  0
  4 19  1  0
 19 20  2  0
 20 21  1  0
 21 22  2  0
 22 23  1  0
 23 24  1  0
 23 25  2  0
 25  2  1  0
 18  9  1  0
 25 19  1  0
 16 11  1  0
M  END
>  <ref_pdb>  (55) 
A2290a

>  <tags>  (55) 
{'fragmenstein_placed', 'openbind_a71ev2a_c1_fragmenstein'}

>  <distance_score>  (55) 
0.916948

>  <energy_score>  (55) 
-18.370019

>  <inchikey>  (55) 
KJVZFMFVRBZFOP-UHFFFAOYSA-N

>  <alias>  (55) 
Cn1nc(C(=O)NC[C@H]2Cc3ccccc3CN2)c2cccc(O)c21

>  <smiles>  (55) 
C205099-P127

>  <HIPPO Pose ID>  (55) 
45448

>  <ref_mols>  (55) 
A3201a,A2293a

>  <HIPPO Compound ID>  (55) 
205099

$$$$
Cn1nc([C@H](N=O)NC[C@@H]2Cc3ccccc3CN2)c2ccccc21
     RDKit          3D

 25 28  0  0  0  0  0  0  0  0999 V2000
    9.7105    8.8201   22.8613 C   0  0  0  0  0  0  0  0  0  0  0  0
    9.6340   10.1676   23.3704 N   0  0  0  0  0  0  0  0  0  0  0  0
   10.4158   11.1015   22.8150 N   0  0  0  0  0  0  0  0  0  0  0  0
   10.1555   12.2260   23.4944 C   0  0  0  0  0  0  0  0  0  0  0  0
   10.8112   13.5534   23.1515 C   0  0  2  0  0  0  0  0  0  0  0  0
    9.7014   14.4569   22.7384 N   0  0  0  0  0  0  0  0  0  0  0  0
    9.6992   15.4965   23.3975 O   0  0  0  0  0  0  0  0  0  0  0  0
   11.8853   13.3926   22.1629 N   0  0  0  0  0  0  0  0  0  0  0  0
   12.4552   14.6666   21.6847 C   0  0  0  0  0  0  0  0  0  0  0  0
   12.5030   14.7748   20.1374 C   0  0  2  0  0  0  0  0  0  0  0  0
   13.2808   16.0081   19.6333 C   0  0  0  0  0  0  0  0  0  0  0  0
   12.4707   17.2775   19.5919 C   0  0  0  0  0  0  0  0  0  0  0  0
   13.1086   18.5219   19.4824 C   0  0  0  0  0  0  0  0  0  0  0  0
   12.3640   19.7004   19.5060 C   0  0  0  0  0  0  0  0  0  0  0  0
   10.9790   19.6386   19.6260 C   0  0  0  0  0  0  0  0  0  0  0  0
   10.3365   18.4007   19.6791 C   0  0  0  0  0  0  0  0  0  0  0  0
   11.0730   17.2107   19.6425 C   0  0  0  0  0  0  0  0  0  0  0  0
   10.3496   15.8902   19.7186 C   0  0  0  0  0  0  0  0  0  0  0  0
   11.1810   14.7132   19.5258 N   0  0  0  0  0  0  0  0  0  0  0  0
    9.1507   11.9963   24.4833 C   0  0  0  0  0  0  0  0  0  0  0  0
    8.4690   12.7839   25.4313 C   0  0  0  0  0  0  0  0  0  0  0  0
    7.4761   12.1960   26.2221 C   0  0  0  0  0  0  0  0  0  0  0  0
    7.1678   10.8461   26.0861 C   0  0  0  0  0  0  0  0  0  0  0  0
    7.8406   10.0483   25.1579 C   0  0  0  0  0  0  0  0  0  0  0  0
    8.8232   10.6487   24.3645 C   0  0  0  0  0  0  0  0  0  0  0  0
  1  2  1  0
  2  3  1  0
  3  4  2  0
  4  5  1  0
  5  6  1  0
  6  7  2  0
  5  8  1  6
  8  9  1  0
 10  9  1  1
 10 11  1  0
 11 12  1  0
 12 13  2  0
 13 14  1  0
 14 15  2  0
 15 16  1  0
 16 17  2  0
 17 18  1  0
 18 19  1  0
  4 20  1  0
 20 21  2  0
 21 22  1  0
 22 23  2  0
 23 24  1  0
 24 25  2  0
 25  2  1  0
 19 10  1  0
 25 20  1  0
 17 12  1  0
M  END
>  <ref_pdb>  (56) 
A2290a

>  <tags>  (56) 
{'fragmenstein_placed', 'openbind_a71ev2a_c1_fragmenstein'}

>  <distance_score>  (56) 
0.747235

>  <energy_score>  (56) 
-37.73187

>  <inchikey>  (56) 
PERMOVIPLPJQEI-UHFFFAOYSA-N

>  <alias>  (56) 
Cn1nc([C@H](N=O)NC[C@@H]2Cc3ccccc3CN2)c2ccccc21

>  <smiles>  (56) 
C205071-P127

>  <HIPPO Pose ID>  (56) 
45449

>  <ref_mols>  (56) 
A3207a,A2293a

>  <HIPPO Compound ID>  (56) 
205071

$$$$
Cn1nc2c3c(cccc31)C(=O)NC[C@@H]1[C@@H]3N[C@H](CN[C@@H]21)Cc1ccccc13
     RDKit          3D

 28 33  0  0  0  0  0  0  0  0999 V2000
    9.8273    8.6961   23.1540 C   0  0  0  0  0  0  0  0  0  0  0  0
    9.6085   10.1086   23.3337 N   0  0  0  0  0  0  0  0  0  0  0  0
   10.1928   10.9553   22.4775 N   0  0  0  0  0  0  0  0  0  0  0  0
    9.9380   12.1967   22.9378 C   0  0  0  0  0  0  0  0  0  0  0  0
    9.1023   12.0780   24.0791 C   0  0  0  0  0  0  0  0  0  0  0  0
    8.4656   12.9883   24.9168 C   0  0  0  0  0  0  0  0  0  0  0  0
    7.5974   12.5925   25.9297 C   0  0  0  0  0  0  0  0  0  0  0  0
    7.3511   11.2312   26.0982 C   0  0  0  0  0  0  0  0  0  0  0  0
    7.9642   10.2742   25.2726 C   0  0  0  0  0  0  0  0  0  0  0  0
    8.8459   10.7284   24.2797 C   0  0  0  0  0  0  0  0  0  0  0  0
    8.6770   14.3389   24.4530 C   0  0  0  0  0  0  0  0  0  0  0  0
    9.6435   14.9572   24.8532 O   0  0  0  0  0  0  0  0  0  0  0  0
    7.9065   14.5879   23.3402 N   0  0  0  0  0  0  0  0  0  0  0  0
    8.5117   15.0702   22.1233 C   0  0  0  0  0  0  0  0  0  0  0  0
   10.0132   14.8516   21.9192 C   0  0  2  0  0  0  0  0  0  0  0  0
   10.3767   15.3498   20.4027 C   0  0  2  0  0  0  0  0  0  0  0  0
   11.3460   14.5133   19.6953 N   0  0  0  0  0  0  0  0  0  0  0  0
   12.6755   14.6537   20.2756 C   0  0  2  0  0  0  0  0  0  0  0  0
   12.7379   14.4761   21.8126 C   0  0  0  0  0  0  0  0  0  0  0  0
   12.0169   13.3195   22.3582 N   0  0  0  0  0  0  0  0  0  0  0  0
   10.5515   13.3856   22.1477 C   0  0  1  0  0  0  0  0  0  0  0  0
   13.2346   16.0118   19.8519 C   0  0  0  0  0  0  0  0  0  0  0  0
   12.1917   17.1069   19.9032 C   0  0  0  0  0  0  0  0  0  0  0  0
   12.6096   18.4128   19.5963 C   0  0  0  0  0  0  0  0  0  0  0  0
   11.6859   19.4417   19.5500 C   0  0  0  0  0  0  0  0  0  0  0  0
   10.3414   19.1539   19.7608 C   0  0  0  0  0  0  0  0  0  0  0  0
    9.9050   17.8517   20.0548 C   0  0  0  0  0  0  0  0  0  0  0  0
   10.8248   16.8055   20.1644 C   0  0  0  0  0  0  0  0  0  0  0  0
  1  2  1  0
  2  3  1  0
  3  4  2  0
  4  5  1  0
  5  6  2  0
  6  7  1  0
  7  8  2  0
  8  9  1  0
  9 10  2  0
  6 11  1  0
 11 12  2  0
 11 13  1  0
 13 14  1  0
 15 14  1  6
 15 16  1  0
 16 17  1  0
 17 18  1  0
 18 19  1  1
 19 20  1  0
 21 20  1  1
 18 22  1  0
 22 23  1  0
 23 24  2  0
 24 25  1  0
 25 26  2  0
 26 27  1  0
 27 28  2  0
 10  2  1  0
 21 15  1  0
 28 23  1  0
 21  4  1  0
 10  5  1  0
 16 28  1  1
M  END
>  <ref_pdb>  (57) 
A2290a

>  <tags>  (57) 
{'fragmenstein_placed', 'openbind_a71ev2a_c1_fragmenstein'}

>  <distance_score>  (57) 
0.946974

>  <energy_score>  (57) 
-31.24244

>  <inchikey>  (57) 
CSWNYLMUJIALAZ-UHFFFAOYSA-N

>  <alias>  (57) 
Cn1nc2c3c(cccc31)C(=O)NC[C@@H]1[C@@H]3N[C@H](CN[C@@H]21)Cc1ccccc13

>  <smiles>  (57) 
C205137-P127

>  <HIPPO Pose ID>  (57) 
45479

>  <ref_mols>  (57) 
A4963b,A4559b,A3616b,A2293a

>  <HIPPO Compound ID>  (57) 
206012

$$$$
Cn1nc([C@H]2NC[C@@H]3Cc4ccccc4[C@@H]3[C@@H]3CCCN2C3)c2ccccc21
     RDKit          3D

 28 33  0  0  0  0  0  0  0  0999 V2000
    9.7428    8.8648   22.8302 C   0  0  0  0  0  0  0  0  0  0  0  0
    9.6372   10.2095   23.3407 N   0  0  0  0  0  0  0  0  0  0  0  0
   10.3778   11.1707   22.7732 N   0  0  0  0  0  0  0  0  0  0  0  0
   10.1654   12.2593   23.5286 C   0  0  0  0  0  0  0  0  0  0  0  0
   10.8227   13.5966   23.2234 C   0  0  1  0  0  0  0  0  0  0  0  0
   12.0578   13.4638   22.4430 N   0  0  0  0  0  0  0  0  0  0  0  0
   12.5542   14.7548   21.9143 C   0  0  0  0  0  0  0  0  0  0  0  0
   12.4253   15.0246   20.3961 C   0  0  2  0  0  0  0  0  0  0  0  0
   13.5761   15.9514   19.9109 C   0  0  0  0  0  0  0  0  0  0  0  0
   12.9460   17.2874   19.7086 C   0  0  0  0  0  0  0  0  0  0  0  0
   13.6008   18.5034   19.5526 C   0  0  0  0  0  0  0  0  0  0  0  0
   12.8406   19.6650   19.4391 C   0  0  0  0  0  0  0  0  0  0  0  0
   11.4486   19.5829   19.4300 C   0  0  0  0  0  0  0  0  0  0  0  0
   10.8145   18.3390   19.4802 C   0  0  0  0  0  0  0  0  0  0  0  0
   11.5632   17.1887   19.6809 C   0  0  0  0  0  0  0  0  0  0  0  0
   11.1425   15.7429   19.8504 C   0  0  2  0  0  0  0  0  0  0  0  0
    9.7181   15.4447   20.3677 C   0  0  2  0  0  0  0  0  0  0  0  0
    9.0425   16.5645   21.1840 C   0  0  0  0  0  0  0  0  0  0  0  0
    8.1261   16.0619   22.2959 C   0  0  0  0  0  0  0  0  0  0  0  0
    8.8738   15.1199   23.2317 C   0  0  0  0  0  0  0  0  0  0  0  0
    9.9232   14.4504   22.5078 N   0  0  0  0  0  0  0  0  0  0  0  0
    9.5951   14.1448   21.1402 C   0  0  0  0  0  0  0  0  0  0  0  0
    9.2098   11.9824   24.5558 C   0  0  0  0  0  0  0  0  0  0  0  0
    8.5934   12.7095   25.5945 C   0  0  0  0  0  0  0  0  0  0  0  0
    7.5956   12.1027   26.3643 C   0  0  0  0  0  0  0  0  0  0  0  0
    7.2347   10.7796   26.1370 C   0  0  0  0  0  0  0  0  0  0  0  0
    7.8683   10.0272   25.1461 C   0  0  0  0  0  0  0  0  0  0  0  0
    8.8462   10.6532   24.3663 C   0  0  0  0  0  0  0  0  0  0  0  0
  1  2  1  0
  2  3  1  0
  3  4  2  0
  5  4  1  6
  5  6  1  0
  6  7  1  0
  8  7  1  1
  8  9  1  0
  9 10  1  0
 10 11  2  0
 11 12  1  0
 12 13  2  0
 13 14  1  0
 14 15  2  0
 16 15  1  1
 16 17  1  0
 17 18  1  1
 18 19  1  0
 19 20  1  0
 20 21  1  0
 21 22  1  0
  4 23  1  0
 23 24  2  0
 24 25  1  0
 25 26  2  0
 26 27  1  0
 27 28  2  0
 28  2  1  0
 21  5  1  0
 28 23  1  0
 16  8  1  0
 22 17  1  0
 15 10  1  0
M  END
>  <ref_pdb>  (58) 
A2290a

>  <tags>  (58) 
{'fragmenstein_placed', 'openbind_a71ev2a_c1_fragmenstein'}

>  <distance_score>  (58) 
0.945663

>  <energy_score>  (58) 
-85.472081

>  <inchikey>  (58) 
WKJLQQPDUXOUMP-UHFFFAOYSA-N

>  <alias>  (58) 
Cn1nc([C@H]2NC[C@@H]3Cc4ccccc4[C@@H]3[C@@H]3CCCN2C3)c2ccccc21

>  <smiles>  (58) 
C205207-P127

>  <HIPPO Pose ID>  (58) 
45536

>  <ref_mols>  (58) 
A4295a,A4303a,A2293a

>  <HIPPO Compound ID>  (58) 
205207

$$$$
Cc1ccc2cc3c([C@H]4NC[C@@H]5Cc6cccc(O)c6[C@@]56CCC[C@]4(CO)C6)nn(C)c3cc2c1
     RDKit          3D

 35 41  0  0  0  0  0  0  0  0999 V2000
    4.4034   10.6142   28.8180 C   0  0  0  0  0  0  0  0  0  0  0  0
    5.4949   11.2094   27.9795 C   0  0  0  0  0  0  0  0  0  0  0  0
    5.9560   12.5031   28.2192 C   0  0  0  0  0  0  0  0  0  0  0  0
    6.9964   13.0295   27.4515 C   0  0  0  0  0  0  0  0  0  0  0  0
    7.6029   12.2728   26.4403 C   0  0  0  0  0  0  0  0  0  0  0  0
    8.6326   12.8213   25.6609 C   0  0  0  0  0  0  0  0  0  0  0  0
    9.1623   12.0977   24.5774 C   0  0  0  0  0  0  0  0  0  0  0  0
   10.0151   12.3787   23.4686 C   0  0  0  0  0  0  0  0  0  0  0  0
   10.6274   13.7216   23.0054 C   0  0  1  0  0  0  0  0  0  0  0  0
   11.7222   13.3738   22.0987 N   0  0  0  0  0  0  0  0  0  0  0  0
   12.5641   14.4312   21.5877 C   0  0  0  0  0  0  0  0  0  0  0  0
   12.1310   15.1398   20.2997 C   0  0  2  0  0  0  0  0  0  0  0  0
   13.2770   16.0579   19.7995 C   0  0  0  0  0  0  0  0  0  0  0  0
   12.6594   17.4067   19.6643 C   0  0  0  0  0  0  0  0  0  0  0  0
   13.3080   18.5801   19.3006 C   0  0  0  0  0  0  0  0  0  0  0  0
   12.5829   19.7724   19.2753 C   0  0  0  0  0  0  0  0  0  0  0  0
   11.2141   19.7736   19.5676 C   0  0  0  0  0  0  0  0  0  0  0  0
   10.5721   18.5818   19.8897 C   0  0  0  0  0  0  0  0  0  0  0  0
    9.2395   18.5835   20.1756 O   0  0  0  0  0  0  0  0  0  0  0  0
   11.3079   17.3984   19.9876 C   0  0  0  0  0  0  0  0  0  0  0  0
   10.8607   16.0168   20.4444 C   0  0  1  0  0  0  0  0  0  0  0  0
    9.7451   15.5868   19.5599 C   0  0  0  0  0  0  0  0  0  0  0  0
    9.1307   14.3216   20.0705 C   0  0  0  0  0  0  0  0  0  0  0  0
    8.6275   14.1579   21.4416 C   0  0  0  0  0  0  0  0  0  0  0  0
    9.5796   14.7398   22.4278 C   0  0  1  0  0  0  0  0  0  0  0  0
    8.6237   15.2094   23.5110 C   0  0  0  0  0  0  0  0  0  0  0  0
    7.7613   16.2393   22.9997 O   0  0  0  0  0  0  0  0  0  0  0  0
   10.2595   15.9963   21.8386 C   0  0  0  0  0  0  0  0  0  0  0  0
   10.1986   11.2687   22.7350 N   0  0  0  0  0  0  0  0  0  0  0  0
    9.5204   10.3069   23.3671 N   0  0  0  0  0  0  0  0  0  0  0  0
    9.6350    8.9495   22.8888 C   0  0  0  0  0  0  0  0  0  0  0  0
    8.7633   10.7747   24.4082 C   0  0  0  0  0  0  0  0  0  0  0  0
    7.7828   10.1777   25.2100 C   0  0  0  0  0  0  0  0  0  0  0  0
    7.1635   10.9578   26.2021 C   0  0  0  0  0  0  0  0  0  0  0  0
    6.1113   10.4466   26.9793 C   0  0  0  0  0  0  0  0  0  0  0  0
  1  2  1  0
  2  3  2  0
  3  4  1  0
  4  5  2  0
  5  6  1  0
  6  7  2  0
  7  8  1  0
  9  8  1  6
  9 10  1  0
 10 11  1  0
 12 11  1  1
 12 13  1  0
 13 14  1  0
 14 15  2  0
 15 16  1  0
 16 17  2  0
 17 18  1  0
 18 19  1  0
 18 20  2  0
 20 21  1  0
 21 22  1  6
 22 23  1  0
 23 24  1  0
 24 25  1  0
 25 26  1  1
 26 27  1  0
 25 28  1  0
  8 29  2  0
 29 30  1  0
 30 31  1  0
 30 32  1  0
 32 33  2  0
 33 34  1  0
 34 35  2  0
 35  2  1  0
 34  5  1  0
 32  7  1  0
 25  9  1  0
 21 12  1  0
 20 14  1  0
 28 21  1  0
M  END
>  <ref_pdb>  (59) 
A2290a

>  <tags>  (59) 
{'fragmenstein_placed', 'openbind_a71ev2a_c1_fragmenstein'}

>  <distance_score>  (59) 
0.871021

>  <energy_score>  (59) 
-49.793226

>  <inchikey>  (59) 
SQVAQLLFWWHIAM-UHFFFAOYSA-N

>  <alias>  (59) 
Cc1ccc2cc3c([C@H]4NC[C@@H]5Cc6cccc(O)c6[C@@]56CCC[C@]4(CO)C6)nn(C)c3cc2c1

>  <smiles>  (59) 
C205248-P127

>  <HIPPO Pose ID>  (59) 
45567

>  <ref_mols>  (59) 
A4214a,A2293a

>  <HIPPO Compound ID>  (59) 
208022

$$$$
CNc1cccc2c1c([C@H]1NC[C@H]3Cc4ccccc4[C@](N)(O)[C@]34CCN1C4)nn2C
     RDKit          3D

 31 36  0  0  0  0  0  0  0  0999 V2000
    9.8563   14.2326   26.7012 C   0  0  0  0  0  0  0  0  0  0  0  0
    8.6570   13.8813   25.9505 N   0  0  0  0  0  0  0  0  0  0  0  0
    8.4125   12.5195   25.7677 C   0  0  0  0  0  0  0  0  0  0  0  0
    7.4264   11.9009   26.5447 C   0  0  0  0  0  0  0  0  0  0  0  0
    7.0549   10.5834   26.3114 C   0  0  0  0  0  0  0  0  0  0  0  0
    7.6812    9.8356   25.3149 C   0  0  0  0  0  0  0  0  0  0  0  0
    8.6878   10.4357   24.5632 C   0  0  0  0  0  0  0  0  0  0  0  0
    9.0476   11.7613   24.7655 C   0  0  0  0  0  0  0  0  0  0  0  0
   10.0238   12.0194   23.7767 C   0  0  0  0  0  0  0  0  0  0  0  0
   10.6461   13.3571   23.4102 C   0  0  1  0  0  0  0  0  0  0  0  0
   11.9156   13.0195   22.8050 N   0  0  0  0  0  0  0  0  0  0  0  0
   12.6675   13.9515   22.0073 C   0  0  0  0  0  0  0  0  0  0  0  0
   12.0966   15.2654   21.5251 C   0  0  1  0  0  0  0  0  0  0  0  0
   13.2182   15.9366   20.6098 C   0  0  0  0  0  0  0  0  0  0  0  0
   12.6614   17.1181   19.8678 C   0  0  0  0  0  0  0  0  0  0  0  0
   13.3127   18.3494   19.7836 C   0  0  0  0  0  0  0  0  0  0  0  0
   12.5646   19.4949   19.5286 C   0  0  0  0  0  0  0  0  0  0  0  0
   11.1891   19.3846   19.3540 C   0  0  0  0  0  0  0  0  0  0  0  0
   10.5970   18.1244   19.2420 C   0  0  0  0  0  0  0  0  0  0  0  0
   11.3509   16.9656   19.4172 C   0  0  0  0  0  0  0  0  0  0  0  0
   10.7518   15.5648   19.4564 C   0  0  2  0  0  0  0  0  0  0  0  0
   11.5980   14.5361   18.8863 N   0  0  0  0  0  0  0  0  0  0  0  0
    9.5099   15.5622   18.8087 O   0  0  0  0  0  0  0  0  0  0  0  0
   10.6452   15.2021   20.9082 C   0  0  2  0  0  0  0  0  0  0  0  0
    9.6268   16.0858   21.6184 C   0  0  0  0  0  0  0  0  0  0  0  0
    9.2746   15.3381   22.8796 C   0  0  0  0  0  0  0  0  0  0  0  0
    9.6087   13.9558   22.5867 N   0  0  0  0  0  0  0  0  0  0  0  0
    9.8991   13.9196   21.1687 C   0  0  0  0  0  0  0  0  0  0  0  0
   10.2911   10.9242   23.0429 N   0  0  0  0  0  0  0  0  0  0  0  0
    9.4877    9.9877   23.5458 N   0  0  0  0  0  0  0  0  0  0  0  0
    9.5403    8.6756   22.9587 C   0  0  0  0  0  0  0  0  0  0  0  0
  1  2  1  0
  2  3  1  0
  3  4  2  0
  4  5  1  0
  5  6  2  0
  6  7  1  0
  7  8  2  0
  8  9  1  0
 10  9  1  6
 10 11  1  0
 11 12  1  0
 13 12  1  6
 13 14  1  0
 14 15  1  0
 15 16  2  0
 16 17  1  0
 17 18  2  0
 18 19  1  0
 19 20  2  0
 20 21  1  0
 21 22  1  6
 21 23  1  0
 21 24  1  0
 24 25  1  1
 25 26  1  0
 26 27  1  0
 27 28  1  0
  9 29  2  0
 29 30  1  0
 30 31  1  0
  8  3  1  0
 27 10  1  0
 30  7  1  0
 24 13  1  0
 20 15  1  0
 28 24  1  0
M  END
>  <ref_pdb>  (60) 
A2290a

>  <tags>  (60) 
{'fragmenstein_placed', 'openbind_a71ev2a_c1_fragmenstein'}

>  <distance_score>  (60) 
0.935717

>  <energy_score>  (60) 
-42.443848

>  <inchikey>  (60) 
HLRUMDYTHLCPPG-UHFFFAOYSA-N

>  <alias>  (60) 
CNc1cccc2c1c([C@H]1NC[C@H]3Cc4ccccc4[C@](N)(O)[C@]34CCN1C4)nn2C

>  <smiles>  (60) 
C205350-P127

>  <HIPPO Pose ID>  (60) 
45653

>  <ref_mols>  (60) 
A4777a,A2293a

>  <HIPPO Compound ID>  (60) 
205350

$$$$
Cc1cccc2c1c(NCN(CO)Cc1cn[nH]c1)nn2C
     RDKit          3D

 22 24  0  0  0  0  0  0  0  0999 V2000
    7.7292   14.5641   23.6352 C   0  0  0  0  0  0  0  0  0  0  0  0
    7.9526   13.3119   24.4198 C   0  0  0  0  0  0  0  0  0  0  0  0
    7.0494   12.8453   25.3914 C   0  0  0  0  0  0  0  0  0  0  0  0
    7.0722   11.5184   25.8290 C   0  0  0  0  0  0  0  0  0  0  0  0
    7.9532   10.6033   25.2581 C   0  0  0  0  0  0  0  0  0  0  0  0
    8.9168   11.1194   24.3866 C   0  0  0  0  0  0  0  0  0  0  0  0
    9.0144   12.4713   24.0726 C   0  0  0  0  0  0  0  0  0  0  0  0
   10.2079   12.6265   23.3169 C   0  0  0  0  0  0  0  0  0  0  0  0
   10.7189   13.8304   22.8940 N   0  0  0  0  0  0  0  0  0  0  0  0
   11.2829   13.8395   21.5533 C   0  0  0  0  0  0  0  0  0  0  0  0
   11.6231   15.0050   20.6922 N   0  0  0  0  0  0  0  0  0  0  0  0
   12.1482   14.3834   19.4723 C   0  0  0  0  0  0  0  0  0  0  0  0
   12.7013   15.2289   18.5006 O   0  0  0  0  0  0  0  0  0  0  0  0
   12.5218   15.9676   21.3305 C   0  0  0  0  0  0  0  0  0  0  0  0
   13.0262   17.1016   20.4495 C   0  0  0  0  0  0  0  0  0  0  0  0
   14.2657   17.7566   20.5512 C   0  0  0  0  0  0  0  0  0  0  0  0
   14.5215   18.7054   19.6477 N   0  0  0  0  0  0  0  0  0  0  0  0
   13.4219   18.6687   18.8971 N   0  0  0  0  0  0  0  0  0  0  0  0
   12.5253   17.7541   19.3492 C   0  0  0  0  0  0  0  0  0  0  0  0
   10.7233   11.4273   23.0568 N   0  0  0  0  0  0  0  0  0  0  0  0
    9.8616   10.5381   23.5880 N   0  0  0  0  0  0  0  0  0  0  0  0
    9.9774    9.1354   23.2530 C   0  0  0  0  0  0  0  0  0  0  0  0
  1  2  1  0
  2  3  2  0
  3  4  1  0
  4  5  2  0
  5  6  1  0
  6  7  2  0
  7  8  1  0
  8  9  1  0
  9 10  1  0
 10 11  1  0
 11 12  1  0
 12 13  1  0
 11 14  1  0
 14 15  1  0
 15 16  1  0
 16 17  2  0
 17 18  1  0
 18 19  1  0
  8 20  2  0
 20 21  1  0
 21 22  1  0
  7  2  1  0
 19 15  2  0
 21  6  1  0
M  END
>  <ref_pdb>  (61) 
A2290a

>  <tags>  (61) 
{'fragmenstein_placed', 'openbind_a71ev2a_c1_fragmenstein'}

>  <distance_score>  (61) 
0.932218

>  <energy_score>  (61) 
-11.724501

>  <inchikey>  (61) 
WZIRMQBHPLNZSO-UHFFFAOYSA-N

>  <alias>  (61) 
Cc1cccc2c1c(NCN(CO)Cc1cn[nH]c1)nn2C

>  <smiles>  (61) 
C205673-P128

>  <HIPPO Pose ID>  (61) 
45819

>  <ref_mols>  (61) 
A2304a,A4451a

>  <HIPPO Compound ID>  (61) 
205673

$$$$
Cc1cc2c(cc1F)c(C(O)(O)NC#N)nn2C
     RDKit          3D

 18 19  0  0  0  0  0  0  0  0999 V2000
    5.8847   10.6911   26.9403 C   0  0  0  0  0  0  0  0  0  0  0  0
    6.9862   11.2141   26.0723 C   0  0  0  0  0  0  0  0  0  0  0  0
    7.7025   10.3616   25.2231 C   0  0  0  0  0  0  0  0  0  0  0  0
    8.7109   10.9263   24.4283 C   0  0  0  0  0  0  0  0  0  0  0  0
    9.0313   12.2854   24.4694 C   0  0  0  0  0  0  0  0  0  0  0  0
    8.3163   13.1274   25.3370 C   0  0  0  0  0  0  0  0  0  0  0  0
    7.3125   12.5681   26.1285 C   0  0  0  0  0  0  0  0  0  0  0  0
    6.6556   13.3531   26.9938 F   0  0  0  0  0  0  0  0  0  0  0  0
   10.1093   12.4443   23.5551 C   0  0  0  0  0  0  0  0  0  0  0  0
   10.9266   13.6878   23.2351 C   0  0  0  0  0  0  0  0  0  0  0  0
   10.1489   14.8486   23.1681 O   0  0  0  0  0  0  0  0  0  0  0  0
   11.9371   13.8900   24.1932 O   0  0  0  0  0  0  0  0  0  0  0  0
   11.6361   13.4842   21.9886 N   0  0  0  0  0  0  0  0  0  0  0  0
   11.8976   14.3713   21.0317 C   0  0  0  0  0  0  0  0  0  0  0  0
   12.1375   15.1306   20.1968 N   0  0  0  0  0  0  0  0  0  0  0  0
   10.3971   11.2766   22.9520 N   0  0  0  0  0  0  0  0  0  0  0  0
    9.5683   10.3804   23.5072 N   0  0  0  0  0  0  0  0  0  0  0  0
    9.6816    8.9957   23.1081 C   0  0  0  0  0  0  0  0  0  0  0  0
  1  2  1  0
  2  3  2  0
  3  4  1  0
  4  5  2  0
  5  6  1  0
  6  7  2  0
  7  8  1  0
  5  9  1  0
  9 10  1  0
 10 11  1  0
 10 12  1  0
 10 13  1  0
 13 14  1  0
 14 15  3  0
  9 16  2  0
 16 17  1  0
 17 18  1  0
  7  2  1  0
 17  4  1  0
M  END
>  <ref_pdb>  (62) 
A2290a

>  <tags>  (62) 
{'fragmenstein_placed', 'openbind_a71ev2a_c1_fragmenstein'}

>  <distance_score>  (62) 
0.794377

>  <energy_score>  (62) 
-24.670481

>  <inchikey>  (62) 
LOKPWBJATUOXAV-UHFFFAOYSA-N

>  <alias>  (62) 
Cc1cc2c(cc1F)c(C(O)(O)NC#N)nn2C

>  <smiles>  (62) 
C205735-P128

>  <HIPPO Pose ID>  (62) 
45862

>  <ref_mols>  (62) 
A2304a,A4798a

>  <HIPPO Compound ID>  (62) 
205735

$$$$
CC[C@@H](C)N1CCOCC1
     RDKit          3D

 10 10  0  0  0  0  0  0  0  0999 V2000
    9.2620   11.1549   24.3097 C   0  0  0  0  0  0  0  0  0  0  0  0
    8.7281   12.4879   24.8123 C   0  0  0  0  0  0  0  0  0  0  0  0
    8.3443   13.5138   23.7159 C   0  0  1  0  0  0  0  0  0  0  0  0
    7.7045   14.7157   24.4252 C   0  0  0  0  0  0  0  0  0  0  0  0
    9.4265   13.8125   22.7580 N   0  0  0  0  0  0  0  0  0  0  0  0
   10.7320   14.1521   23.3379 C   0  0  0  0  0  0  0  0  0  0  0  0
   11.7877   14.3816   22.2484 C   0  0  0  0  0  0  0  0  0  0  0  0
   11.4094   15.4609   21.4006 O   0  0  0  0  0  0  0  0  0  0  0  0
   10.1990   15.1103   20.7176 C   0  0  0  0  0  0  0  0  0  0  0  0
    9.0587   14.7928   21.7072 C   0  0  0  0  0  0  0  0  0  0  0  0
  1  2  1  0
  2  3  1  0
  3  4  1  1
  3  5  1  0
  5  6  1  0
  6  7  1  0
  7  8  1  0
  8  9  1  0
  9 10  1  0
 10  5  1  0
M  END
>  <ref_pdb>  (63) 
A2290a

>  <tags>  (63) 
{'fragmenstein_placed', 'openbind_a71ev2a_c1_fragmenstein'}

>  <distance_score>  (63) 
0.973155

>  <energy_score>  (63) 
-21.765503

>  <inchikey>  (63) 
FDHGUCPWMSEFHX-UHFFFAOYSA-N

>  <alias>  (63) 
CC[C@@H](C)N1CCOCC1

>  <smiles>  (63) 
C206766-P134

>  <HIPPO Pose ID>  (63) 
46636

>  <ref_mols>  (63) 
A2513a,A3194a

>  <HIPPO Compound ID>  (63) 
206766

$$$$
CC[C@H]1N(C)C(=O)Cc2cc(Br)cc3c2c(nn3C)[C@@]1(O)NCCN[C@H](O)NC
     RDKit          3D

 29 31  0  0  0  0  0  0  0  0999 V2000
    7.4428   14.7246   21.2391 C   0  0  0  0  0  0  0  0  0  0  0  0
    8.2373   13.9165   22.2302 C   0  0  0  0  0  0  0  0  0  0  0  0
    8.9066   14.6670   23.3980 C   0  0  1  0  0  0  0  0  0  0  0  0
    7.8507   15.3566   24.2848 N   0  0  0  0  0  0  0  0  0  0  0  0
    7.0104   16.3530   23.6251 C   0  0  0  0  0  0  0  0  0  0  0  0
    7.2572   14.9699   25.4815 C   0  0  0  0  0  0  0  0  0  0  0  0
    6.1422   15.3700   25.8440 O   0  0  0  0  0  0  0  0  0  0  0  0
    7.9744   14.0773   26.4232 C   0  0  0  0  0  0  0  0  0  0  0  0
    7.7151   12.6524   26.0715 C   0  0  0  0  0  0  0  0  0  0  0  0
    6.6809   11.9830   26.7247 C   0  0  0  0  0  0  0  0  0  0  0  0
    6.4483   10.6432   26.4772 C   0  0  0  0  0  0  0  0  0  0  0  0
    5.2261    9.8014   27.6211 Br  0  0  0  0  0  0  0  0  0  0  0  0
    7.1750    9.9304   25.5218 C   0  0  0  0  0  0  0  0  0  0  0  0
    8.1781   10.6225   24.8350 C   0  0  0  0  0  0  0  0  0  0  0  0
    8.4548   11.9595   25.1019 C   0  0  0  0  0  0  0  0  0  0  0  0
    9.5001   12.3142   24.2206 C   0  0  0  0  0  0  0  0  0  0  0  0
    9.8559   11.2683   23.4557 N   0  0  0  0  0  0  0  0  0  0  0  0
    9.0897   10.2567   23.8779 N   0  0  0  0  0  0  0  0  0  0  0  0
    9.3254    8.9584   23.3001 C   0  0  0  0  0  0  0  0  0  0  0  0
   10.0937   13.7167   23.9893 C   0  0  2  0  0  0  0  0  0  0  0  0
   10.6794   14.2302   25.1742 O   0  0  0  0  0  0  0  0  0  0  0  0
   11.2716   13.4699   23.1471 N   0  0  0  0  0  0  0  0  0  0  0  0
   12.1297   14.5817   22.7688 C   0  0  0  0  0  0  0  0  0  0  0  0
   12.2870   14.7144   21.2461 C   0  0  0  0  0  0  0  0  0  0  0  0
   11.0744   15.3498   20.7544 N   0  0  0  0  0  0  0  0  0  0  0  0
   10.9215   15.2538   19.3379 C   0  0  2  0  0  0  0  0  0  0  0  0
   12.0146   15.7562   18.6504 O   0  0  0  0  0  0  0  0  0  0  0  0
    9.7487   15.9926   18.9825 N   0  0  0  0  0  0  0  0  0  0  0  0
    9.6651   17.3597   19.4796 C   0  0  0  0  0  0  0  0  0  0  0  0
  1  2  1  0
  3  2  1  6
  3  4  1  0
  4  5  1  0
  4  6  1  0
  6  7  2  0
  6  8  1  0
  8  9  1  0
  9 10  2  0
 10 11  1  0
 11 12  1  0
 11 13  2  0
 13 14  1  0
 14 15  2  0
 15 16  1  0
 16 17  2  0
 17 18  1  0
 18 19  1  0
 16 20  1  0
 20 21  1  1
 20 22  1  0
 22 23  1  0
 23 24  1  0
 24 25  1  0
 25 26  1  0
 26 27  1  6
 26 28  1  0
 28 29  1  0
 20  3  1  0
 15  9  1  0
 18 14  1  0
M  END
>  <ref_pdb>  (64) 
A2290a

>  <tags>  (64) 
{'fragmenstein_placed', 'openbind_a71ev2a_c1_fragmenstein'}

>  <distance_score>  (64) 
0.850415

>  <energy_score>  (64) 
-77.165484

>  <inchikey>  (64) 
XCSATHHEPNRICZ-UHFFFAOYSA-N

>  <alias>  (64) 
CC[C@H]1N(C)C(=O)Cc2cc(Br)cc3c2c(nn3C)[C@@]1(O)NCCN[C@H](O)NC

>  <smiles>  (64) 
C207670-P136

>  <HIPPO Pose ID>  (64) 
47252

>  <ref_mols>  (64) 
A2846a,A3665a,A3685a

>  <HIPPO Compound ID>  (64) 
207670

$$$$
CNC(=O)c1cn(C)c2cc3sc(N)nc3cc12
     RDKit          3D

 18 20  0  0  0  0  0  0  0  0999 V2000
   12.1073   14.5574   21.6828 C   0  0  0  0  0  0  0  0  0  0  0  0
   11.2446   13.5710   22.2637 N   0  0  0  0  0  0  0  0  0  0  0  0
   10.6939   13.4432   23.6936 C   0  0  0  0  0  0  0  0  0  0  0  0
   10.7908   14.1597   24.6066 O   0  0  0  0  0  0  0  0  0  0  0  0
    9.9260   12.1960   23.8715 C   0  0  0  0  0  0  0  0  0  0  0  0
   10.0669   11.0055   23.1885 C   0  0  0  0  0  0  0  0  0  0  0  0
    9.3253   10.0373   23.8094 N   0  0  0  0  0  0  0  0  0  0  0  0
    9.4531    8.6281   23.5094 C   0  0  0  0  0  0  0  0  0  0  0  0
    8.5202   10.6157   24.7597 C   0  0  0  0  0  0  0  0  0  0  0  0
    7.5164   10.0968   25.5742 C   0  0  0  0  0  0  0  0  0  0  0  0
    6.8576   10.9413   26.4651 C   0  0  0  0  0  0  0  0  0  0  0  0
    5.5717   10.6076   27.5465 S   0  0  0  0  0  0  0  0  0  0  0  0
    5.6229   12.2214   28.1141 C   0  0  0  0  0  0  0  0  0  0  0  0
    4.7900   12.6529   29.0777 N   0  0  0  0  0  0  0  0  0  0  0  0
    6.5100   12.9944   27.5459 N   0  0  0  0  0  0  0  0  0  0  0  0
    7.2124   12.2816   26.5871 C   0  0  0  0  0  0  0  0  0  0  0  0
    8.2309   12.7795   25.7681 C   0  0  0  0  0  0  0  0  0  0  0  0
    8.8870   11.9623   24.8355 C   0  0  0  0  0  0  0  0  0  0  0  0
  1  2  1  0
  2  3  1  0
  3  4  2  0
  3  5  1  0
  5  6  2  0
  6  7  1  0
  7  8  1  0
  7  9  1  0
  9 10  2  0
 10 11  1  0
 11 12  1  0
 12 13  1  0
 13 14  1  0
 13 15  2  0
 15 16  1  0
 16 17  1  0
 17 18  2  0
 18  5  1  0
 18  9  1  0
 16 11  2  0
M  END
>  <ref_pdb>  (65) 
A2290a

>  <tags>  (65) 
{'fragmenstein_placed', 'openbind_a71ev2a_c1_fragmenstein'}

>  <distance_score>  (65) 
0.641765

>  <energy_score>  (65) 
-80.823926

>  <inchikey>  (65) 
MJVUMUCHXJIYSQ-UHFFFAOYSA-N

>  <alias>  (65) 
CNC(=O)c1cn(C)c2cc3sc(N)nc3cc12

>  <smiles>  (65) 
C207965-P137

>  <HIPPO Pose ID>  (65) 
47449

>  <ref_mols>  (65) 
A2972a,A3963a

>  <HIPPO Compound ID>  (65) 
207965

$$$$
CN[C@@](O)(C(=O)O)c1cn2c3c(cc(Br)cc13)OC2
     RDKit          3D

 19 21  0  0  0  0  0  0  0  0999 V2000
   11.8932   14.7375   21.8789 C   0  0  0  0  0  0  0  0  0  0  0  0
   11.3732   13.4740   22.3812 N   0  0  0  0  0  0  0  0  0  0  0  0
   10.2697   13.5972   23.3414 C   0  0  1  0  0  0  0  0  0  0  0  0
   10.8441   14.1694   24.5001 O   0  0  0  0  0  0  0  0  0  0  0  0
    9.0099   14.3612   22.7738 C   0  0  0  0  0  0  0  0  0  0  0  0
    8.1764   14.9693   23.4344 O   0  0  0  0  0  0  0  0  0  0  0  0
    8.8178   14.2740   21.4355 O   0  0  0  0  0  0  0  0  0  0  0  0
    9.7803   12.2117   23.7094 C   0  0  0  0  0  0  0  0  0  0  0  0
   10.1084   10.9902   23.0855 C   0  0  0  0  0  0  0  0  0  0  0  0
    9.4641   10.0215   23.7335 N   0  0  0  0  0  0  0  0  0  0  0  0
    8.6808   10.5711   24.6595 C   0  0  0  0  0  0  0  0  0  0  0  0
    7.8880    9.7014   25.3037 C   0  0  0  0  0  0  0  0  0  0  0  0
    7.0120   10.2460   26.1987 C   0  0  0  0  0  0  0  0  0  0  0  0
    7.0388   11.6488   26.3603 C   0  0  0  0  0  0  0  0  0  0  0  0
    5.7793   12.4090   27.5389 Br  0  0  0  0  0  0  0  0  0  0  0  0
    7.9318   12.5142   25.6544 C   0  0  0  0  0  0  0  0  0  0  0  0
    8.7925   11.9126   24.7233 C   0  0  0  0  0  0  0  0  0  0  0  0
    8.1327    8.4507   24.8467 O   0  0  0  0  0  0  0  0  0  0  0  0
    9.1593    8.6147   23.7337 C   0  0  0  0  0  0  0  0  0  0  0  0
  1  2  1  0
  2  3  1  0
  3  4  1  1
  3  5  1  0
  5  6  2  0
  5  7  1  0
  3  8  1  0
  8  9  2  0
  9 10  1  0
 10 11  1  0
 11 12  2  0
 12 13  1  0
 13 14  2  0
 14 15  1  0
 14 16  1  0
 16 17  2  0
 12 18  1  0
 18 19  1  0
 17  8  1  0
 19 10  1  0
 17 11  1  0
M  END
>  <ref_pdb>  (66) 
A2290a

>  <tags>  (66) 
{'fragmenstein_placed', 'openbind_a71ev2a_c1_fragmenstein'}

>  <distance_score>  (66) 
0.945305

>  <energy_score>  (66) 
-35.634966

>  <inchikey>  (66) 
DMZINGXWJCZRBU-UHFFFAOYSA-N

>  <alias>  (66) 
CN[C@@](O)(C(=O)O)c1cn2c3c(cc(Br)cc13)OC2

>  <smiles>  (66) 
C207977-P137

>  <HIPPO Pose ID>  (66) 
47459

>  <ref_mols>  (66) 
A2972a,A4035b

>  <HIPPO Compound ID>  (66) 
207977

$$$$
Cc1ccc2c(c1)c([C@@]1(N)C[C@@H](CO)CC[C@H]1O)nn2C
     RDKit          3D

 21 23  0  0  0  0  0  0  0  0999 V2000
    5.9291   12.5436   27.3880 C   0  0  0  0  0  0  0  0  0  0  0  0
    6.7826   11.7525   26.4427 C   0  0  0  0  0  0  0  0  0  0  0  0
    6.5723   10.3902   26.2640 C   0  0  0  0  0  0  0  0  0  0  0  0
    7.3439    9.6591   25.3591 C   0  0  0  0  0  0  0  0  0  0  0  0
    8.3195   10.3117   24.6109 C   0  0  0  0  0  0  0  0  0  0  0  0
    8.5371   11.6739   24.7364 C   0  0  0  0  0  0  0  0  0  0  0  0
    7.7660   12.3945   25.6781 C   0  0  0  0  0  0  0  0  0  0  0  0
    9.5629   11.9625   23.7841 C   0  0  0  0  0  0  0  0  0  0  0  0
   10.2034   13.2926   23.4837 C   0  0  1  0  0  0  0  0  0  0  0  0
   10.7711   13.7910   24.7826 N   0  0  0  0  0  0  0  0  0  0  0  0
   11.3950   13.2291   22.5071 C   0  0  0  0  0  0  0  0  0  0  0  0
   11.4581   14.4429   21.5664 C   0  0  1  0  0  0  0  0  0  0  0  0
   12.6706   14.3451   20.6791 C   0  0  0  0  0  0  0  0  0  0  0  0
   13.6664   15.1043   21.3381 O   0  0  0  0  0  0  0  0  0  0  0  0
   10.2061   14.5911   20.6991 C   0  0  0  0  0  0  0  0  0  0  0  0
    8.9090   14.3921   21.4580 C   0  0  0  0  0  0  0  0  0  0  0  0
    9.1652   14.3182   22.9410 C   0  0  1  0  0  0  0  0  0  0  0  0
    7.9515   14.4080   23.6684 O   0  0  0  0  0  0  0  0  0  0  0  0
    9.9429   10.8576   23.1317 N   0  0  0  0  0  0  0  0  0  0  0  0
    9.2199    9.8756   23.6766 N   0  0  0  0  0  0  0  0  0  0  0  0
    9.4590    8.5222   23.2456 C   0  0  0  0  0  0  0  0  0  0  0  0
  1  2  1  0
  2  3  2  0
  3  4  1  0
  4  5  2  0
  5  6  1  0
  6  7  2  0
  6  8  1  0
  8  9  1  0
  9 10  1  1
  9 11  1  0
 11 12  1  0
 12 13  1  6
 13 14  1  0
 12 15  1  0
 15 16  1  0
 16 17  1  0
 17 18  1  1
  8 19  2  0
 19 20  1  0
 20 21  1  0
  7  2  1  0
 17  9  1  0
 20  5  1  0
M  END
>  <ref_pdb>  (67) 
A2290a

>  <tags>  (67) 
{'fragmenstein_placed', 'openbind_a71ev2a_c1_fragmenstein'}

>  <distance_score>  (67) 
0.829411

>  <energy_score>  (67) 
-38.567633

>  <inchikey>  (67) 
XXOQUOORJDYPRS-UHFFFAOYSA-N

>  <alias>  (67) 
Cc1ccc2c(c1)c([C@@]1(N)C[C@@H](CO)CC[C@H]1O)nn2C

>  <smiles>  (67) 
C208797-P139

>  <HIPPO Pose ID>  (67) 
47964

>  <ref_mols>  (67) 
A5424b,A3066a

>  <HIPPO Compound ID>  (67) 
208797

$$$$
Cn1nc([C@@](O)(N[C@H]2CCO[C@@H]2O)N(F)F)c2ccccc21
     RDKit          3D

 22 24  0  0  0  0  0  0  0  0999 V2000
    9.1678    8.7412   23.6560 C   0  0  0  0  0  0  0  0  0  0  0  0
    8.6996    9.9731   24.2350 N   0  0  0  0  0  0  0  0  0  0  0  0
    7.7234    9.9497   25.1617 N   0  0  0  0  0  0  0  0  0  0  0  0
    7.5496   11.2462   25.5032 C   0  0  0  0  0  0  0  0  0  0  0  0
    6.4763   11.7252   26.5077 C   0  0  1  0  0  0  0  0  0  0  0  0
    7.0867   12.1242   27.7248 O   0  0  0  0  0  0  0  0  0  0  0  0
    5.8389   12.8908   25.9103 N   0  0  0  0  0  0  0  0  0  0  0  0
    5.0086   13.7247   26.7717 C   0  0  1  0  0  0  0  0  0  0  0  0
    5.6070   15.1165   26.8693 C   0  0  0  0  0  0  0  0  0  0  0  0
    4.4270   15.9303   27.3528 C   0  0  0  0  0  0  0  0  0  0  0  0
    3.2571   15.3648   26.7461 O   0  0  0  0  0  0  0  0  0  0  0  0
    3.6001   14.0712   26.2443 C   0  0  2  0  0  0  0  0  0  0  0  0
    2.6386   13.1461   26.7156 O   0  0  0  0  0  0  0  0  0  0  0  0
    5.5410   10.6182   26.7858 N   0  0  0  0  0  0  0  0  0  0  0  0
    4.5013   10.9938   27.6117 F   0  0  0  0  0  0  0  0  0  0  0  0
    6.1935    9.5588   27.3848 F   0  0  0  0  0  0  0  0  0  0  0  0
    8.4815   12.0783   24.8029 C   0  0  0  0  0  0  0  0  0  0  0  0
    8.7854   13.4525   24.7627 C   0  0  0  0  0  0  0  0  0  0  0  0
    9.7771   13.9018   23.8845 C   0  0  0  0  0  0  0  0  0  0  0  0
   10.4488   13.0238   23.0487 C   0  0  0  0  0  0  0  0  0  0  0  0
   10.1505   11.6676   23.0731 C   0  0  0  0  0  0  0  0  0  0  0  0
    9.1805   11.2211   23.9668 C   0  0  0  0  0  0  0  0  0  0  0  0
  1  2  1  0
  2  3  1  0
  3  4  2  0
  4  5  1  0
  5  6  1  1
  5  7  1  0
  8  7  1  6
  8  9  1  0
  9 10  1  0
 10 11  1  0
 11 12  1  0
 12 13  1  1
  5 14  1  0
 14 15  1  0
 14 16  1  0
  4 17  1  0
 17 18  2  0
 18 19  1  0
 19 20  2  0
 20 21  1  0
 21 22  2  0
 22  2  1  0
 12  8  1  0
 22 17  1  0
M  END
>  <ref_pdb>  (68) 
A2290a

>  <tags>  (68) 
{'fragmenstein_placed', 'openbind_a71ev2a_c1_fragmenstein'}

>  <distance_score>  (68) 
0.978709

>  <energy_score>  (68) 
-54.311456

>  <inchikey>  (68) 
SHCZOYKQYIWQDJ-UHFFFAOYSA-N

>  <alias>  (68) 
Cn1nc([C@@](O)(N[C@H]2CCO[C@@H]2O)N(F)F)c2ccccc21

>  <smiles>  (68) 
C209071-P140

>  <HIPPO Pose ID>  (68) 
48078

>  <ref_mols>  (68) 
A3175a,A4806b

>  <HIPPO Compound ID>  (68) 
209071

$$$$
Cc1ccc2c(C)n(O)c(C(=O)NCCn3cncn3)c2c1
     RDKit          3D

 22 24  0  0  0  0  0  0  0  0999 V2000
    5.2129   13.2447   27.5387 C   0  0  0  0  0  0  0  0  0  0  0  0
    6.1281   12.4708   26.6250 C   0  0  0  0  0  0  0  0  0  0  0  0
    5.9133   11.0520   26.4804 C   0  0  0  0  0  0  0  0  0  0  0  0
    6.6562   10.2151   25.6215 C   0  0  0  0  0  0  0  0  0  0  0  0
    7.6259   10.9369   24.9432 C   0  0  0  0  0  0  0  0  0  0  0  0
    8.5509   10.4253   24.0720 C   0  0  0  0  0  0  0  0  0  0  0  0
    8.8753    9.0463   23.6299 C   0  0  0  0  0  0  0  0  0  0  0  0
    9.2572   11.5130   23.6404 N   0  0  0  0  0  0  0  0  0  0  0  0
   10.2668   11.4223   22.7223 O   0  0  0  0  0  0  0  0  0  0  0  0
    8.9765   12.6791   24.3185 C   0  0  0  0  0  0  0  0  0  0  0  0
    9.7491   13.9397   24.2563 C   0  0  0  0  0  0  0  0  0  0  0  0
    9.4644   14.8163   24.9713 O   0  0  0  0  0  0  0  0  0  0  0  0
   10.8916   13.8210   23.2259 N   0  0  0  0  0  0  0  0  0  0  0  0
   11.8658   14.7914   22.7914 C   0  0  0  0  0  0  0  0  0  0  0  0
   12.0598   14.8167   21.2721 C   0  0  0  0  0  0  0  0  0  0  0  0
   10.9754   15.3979   20.5174 N   0  0  0  0  0  0  0  0  0  0  0  0
   10.9139   15.5815   19.1716 C   0  0  0  0  0  0  0  0  0  0  0  0
    9.9737   16.4599   18.9032 N   0  0  0  0  0  0  0  0  0  0  0  0
    9.4686   16.7638   20.1275 C   0  0  0  0  0  0  0  0  0  0  0  0
    9.9848   16.0566   21.1302 N   0  0  0  0  0  0  0  0  0  0  0  0
    7.8647   12.3409   25.0764 C   0  0  0  0  0  0  0  0  0  0  0  0
    7.1260   13.1818   25.9073 C   0  0  0  0  0  0  0  0  0  0  0  0
  1  2  1  0
  2  3  1  0
  3  4  2  0
  4  5  1  0
  5  6  2  0
  6  7  1  0
  6  8  1  0
  8  9  1  0
  8 10  1  0
 10 11  1  0
 11 12  2  0
 11 13  1  0
 13 14  1  0
 14 15  1  0
 15 16  1  0
 16 17  1  0
 17 18  2  0
 18 19  1  0
 19 20  2  0
 10 21  2  0
 21 22  1  0
 22  2  2  0
 21  5  1  0
 20 16  1  0
M  END
>  <ref_pdb>  (69) 
A2290a

>  <tags>  (69) 
{'fragmenstein_placed', 'openbind_a71ev2a_c1_fragmenstein'}

>  <distance_score>  (69) 
0.937764

>  <energy_score>  (69) 
-8.995683

>  <inchikey>  (69) 
VVPKDBSEKFTDKW-UHFFFAOYSA-N

>  <alias>  (69) 
Cc1ccc2c(C)n(O)c(C(=O)NCCn3cncn3)c2c1

>  <smiles>  (69) 
C209219-P141

>  <HIPPO Pose ID>  (69) 
48148

>  <ref_mols>  (69) 
A3176a,A3193a

>  <HIPPO Compound ID>  (69) 
206128

$$$$
Cn1nc(C(=O)NCCn2cncn2)c2cc(F)ccc21
     RDKit          3D

 21 23  0  0  0  0  0  0  0  0999 V2000
    9.2024    9.0785   23.1588 C   0  0  0  0  0  0  0  0  0  0  0  0
    8.9180   10.3873   23.7017 N   0  0  0  0  0  0  0  0  0  0  0  0
    9.7010   11.4149   23.3356 N   0  0  0  0  0  0  0  0  0  0  0  0
    9.2411   12.4652   24.0431 C   0  0  0  0  0  0  0  0  0  0  0  0
    9.9469   13.7642   24.0072 C   0  0  0  0  0  0  0  0  0  0  0  0
    9.6665   14.6310   24.7346 O   0  0  0  0  0  0  0  0  0  0  0  0
   11.0527   13.6741   22.9446 N   0  0  0  0  0  0  0  0  0  0  0  0
   11.9886   14.6635   22.4840 C   0  0  0  0  0  0  0  0  0  0  0  0
   12.0590   14.7836   20.9653 C   0  0  0  0  0  0  0  0  0  0  0  0
   10.9218   15.4206   20.3451 N   0  0  0  0  0  0  0  0  0  0  0  0
   10.8092   15.7936   19.0424 C   0  0  0  0  0  0  0  0  0  0  0  0
    9.8610   16.6977   18.9355 N   0  0  0  0  0  0  0  0  0  0  0  0
    9.3800   16.7960   20.2038 C   0  0  0  0  0  0  0  0  0  0  0  0
    9.9414   15.9643   21.0801 N   0  0  0  0  0  0  0  0  0  0  0  0
    8.1081   12.1023   24.8220 C   0  0  0  0  0  0  0  0  0  0  0  0
    7.2361   12.7678   25.7053 C   0  0  0  0  0  0  0  0  0  0  0  0
    6.2634   12.0231   26.3685 C   0  0  0  0  0  0  0  0  0  0  0  0
    5.4505   12.6320   27.2427 F   0  0  0  0  0  0  0  0  0  0  0  0
    6.1404   10.6539   26.1767 C   0  0  0  0  0  0  0  0  0  0  0  0
    6.9756    9.9843   25.2803 C   0  0  0  0  0  0  0  0  0  0  0  0
    7.9517   10.7322   24.6134 C   0  0  0  0  0  0  0  0  0  0  0  0
  1  2  1  0
  2  3  1  0
  3  4  2  0
  4  5  1  0
  5  6  2  0
  5  7  1  0
  7  8  1  0
  8  9  1  0
  9 10  1  0
 10 11  1  0
 11 12  2  0
 12 13  1  0
 13 14  2  0
  4 15  1  0
 15 16  2  0
 16 17  1  0
 17 18  1  0
 17 19  2  0
 19 20  1  0
 20 21  2  0
 21  2  1  0
 14 10  1  0
 21 15  1  0
M  END
>  <ref_pdb>  (70) 
A2290a

>  <tags>  (70) 
{'fragmenstein_placed', 'openbind_a71ev2a_c1_fragmenstein'}

>  <distance_score>  (70) 
0.729664

>  <energy_score>  (70) 
-5.005565

>  <inchikey>  (70) 
GRQIJMFMPOTAPA-UHFFFAOYSA-N

>  <alias>  (70) 
Cn1nc(C(=O)NCCn2cncn2)c2cc(F)ccc21

>  <smiles>  (70) 
C205775-P141

>  <HIPPO Pose ID>  (70) 
48155

>  <ref_mols>  (70) 
A3417a,A3176a

>  <HIPPO Compound ID>  (70) 
205775

$$$$
CN1N[C@H]([C@@](O)(Cc2ncccn2)NCCn2cncn2)C2=C1CCCC2
     RDKit          3D

 27 30  0  0  0  0  0  0  0  0999 V2000
    8.7859    9.1395   23.7331 C   0  0  0  0  0  0  0  0  0  0  0  0
    8.6475   10.5656   23.9858 N   0  0  0  0  0  0  0  0  0  0  0  0
    9.2116   11.4636   23.0521 N   0  0  0  0  0  0  0  0  0  0  0  0
    8.6209   12.8149   23.3597 C   0  0  2  0  0  0  0  0  0  0  0  0
    9.7516   13.9126   23.5954 C   0  0  1  0  0  0  0  0  0  0  0  0
    9.1661   15.1609   23.2769 O   0  0  0  0  0  0  0  0  0  0  0  0
   10.1000   13.9554   25.0852 C   0  0  0  0  0  0  0  0  0  0  0  0
   11.3976   14.5243   25.5964 C   0  0  0  0  0  0  0  0  0  0  0  0
   12.5214   13.8359   25.2891 N   0  0  0  0  0  0  0  0  0  0  0  0
   13.5018   13.8084   26.2056 C   0  0  0  0  0  0  0  0  0  0  0  0
   13.4036   14.4335   27.4231 C   0  0  0  0  0  0  0  0  0  0  0  0
   12.2704   15.1828   27.6165 C   0  0  0  0  0  0  0  0  0  0  0  0
   11.2785   15.2817   26.7133 N   0  0  0  0  0  0  0  0  0  0  0  0
   10.8601   13.5801   22.6933 N   0  0  0  0  0  0  0  0  0  0  0  0
   11.8446   14.6218   22.4174 C   0  0  0  0  0  0  0  0  0  0  0  0
   12.0698   14.8464   20.9182 C   0  0  0  0  0  0  0  0  0  0  0  0
   10.9679   15.4841   20.2403 N   0  0  0  0  0  0  0  0  0  0  0  0
   10.8544   15.7374   18.9144 C   0  0  0  0  0  0  0  0  0  0  0  0
    9.8948   16.6149   18.7304 N   0  0  0  0  0  0  0  0  0  0  0  0
    9.4366   16.8605   19.9867 C   0  0  0  0  0  0  0  0  0  0  0  0
    9.9957   16.1049   20.9320 N   0  0  0  0  0  0  0  0  0  0  0  0
    7.6256   12.5152   24.4440 C   0  0  0  0  0  0  0  0  0  0  0  0
    7.6632   11.2075   24.7116 C   0  0  0  0  0  0  0  0  0  0  0  0
    6.7447   10.5632   25.6853 C   0  0  0  0  0  0  0  0  0  0  0  0
    6.0764   11.5708   26.6295 C   0  0  0  0  0  0  0  0  0  0  0  0
    5.6258   12.8672   25.9675 C   0  0  0  0  0  0  0  0  0  0  0  0
    6.6776   13.4961   25.0408 C   0  0  0  0  0  0  0  0  0  0  0  0
  1  2  1  0
  2  3  1  0
  4  3  1  1
  4  5  1  0
  5  6  1  6
  5  7  1  0
  7  8  1  0
  8  9  2  0
  9 10  1  0
 10 11  2  0
 11 12  1  0
 12 13  2  0
  5 14  1  0
 14 15  1  0
 15 16  1  0
 16 17  1  0
 17 18  1  0
 18 19  2  0
 19 20  1  0
 20 21  2  0
  4 22  1  0
 22 23  2  0
 23 24  1  0
 24 25  1  0
 25 26  1  0
 26 27  1  0
 23  2  1  0
 13  8  1  0
 21 17  1  0
 27 22  1  0
M  END
>  <ref_pdb>  (71) 
A2290a

>  <tags>  (71) 
{'fragmenstein_placed', 'openbind_a71ev2a_c1_fragmenstein'}

>  <distance_score>  (71) 
0.914408

>  <energy_score>  (71) 
-58.51865

>  <inchikey>  (71) 
DBUQYLDMMGGVTB-UHFFFAOYSA-N

>  <alias>  (71) 
CN1N[C@H]([C@@](O)(Cc2ncccn2)NCCn2cncn2)C2=C1CCCC2

>  <smiles>  (71) 
C209279-P141

>  <HIPPO Pose ID>  (71) 
48170

>  <ref_mols>  (71) 
A3956a,A3176a

>  <HIPPO Compound ID>  (71) 
209279

$$$$
Cc1ccc2c(c1)c(C(=O)NCCn1cncn1)nn2C
     RDKit          3D

 21 23  0  0  0  0  0  0  0  0999 V2000
    5.3291   12.7387   27.3690 C   0  0  0  0  0  0  0  0  0  0  0  0
    6.2377   12.0363   26.4047 C   0  0  0  0  0  0  0  0  0  0  0  0
    6.1335   10.6572   26.2085 C   0  0  0  0  0  0  0  0  0  0  0  0
    6.9660    9.9835   25.3090 C   0  0  0  0  0  0  0  0  0  0  0  0
    7.9399   10.7225   24.6336 C   0  0  0  0  0  0  0  0  0  0  0  0
    8.1000   12.0895   24.8384 C   0  0  0  0  0  0  0  0  0  0  0  0
    7.2342   12.7573   25.7279 C   0  0  0  0  0  0  0  0  0  0  0  0
    9.2201   12.4526   24.0422 C   0  0  0  0  0  0  0  0  0  0  0  0
    9.9119   13.7570   23.9852 C   0  0  0  0  0  0  0  0  0  0  0  0
    9.6468   14.6226   24.7193 O   0  0  0  0  0  0  0  0  0  0  0  0
   10.9513   13.6918   22.8568 N   0  0  0  0  0  0  0  0  0  0  0  0
   11.9499   14.6410   22.4520 C   0  0  0  0  0  0  0  0  0  0  0  0
   12.0676   14.7983   20.9410 C   0  0  0  0  0  0  0  0  0  0  0  0
   10.9551   15.4607   20.3029 N   0  0  0  0  0  0  0  0  0  0  0  0
   10.8357   15.7640   18.9836 C   0  0  0  0  0  0  0  0  0  0  0  0
    9.9051   16.6803   18.8349 N   0  0  0  0  0  0  0  0  0  0  0  0
    9.4536   16.8761   20.1021 C   0  0  0  0  0  0  0  0  0  0  0  0
   10.0169   16.0922   21.0203 N   0  0  0  0  0  0  0  0  0  0  0  0
    9.6714   11.4022   23.3276 N   0  0  0  0  0  0  0  0  0  0  0  0
    8.8998   10.3743   23.7184 N   0  0  0  0  0  0  0  0  0  0  0  0
    9.1841    9.0631   23.1848 C   0  0  0  0  0  0  0  0  0  0  0  0
  1  2  1  0
  2  3  2  0
  3  4  1  0
  4  5  2  0
  5  6  1  0
  6  7  2  0
  6  8  1  0
  8  9  1  0
  9 10  2  0
  9 11  1  0
 11 12  1  0
 12 13  1  0
 13 14  1  0
 14 15  1  0
 15 16  2  0
 16 17  1  0
 17 18  2  0
  8 19  2  0
 19 20  1  0
 20 21  1  0
  7  2  1  0
 18 14  1  0
 20  5  1  0
M  END
>  <ref_pdb>  (72) 
A2290a

>  <tags>  (72) 
{'fragmenstein_placed', 'openbind_a71ev2a_c1_fragmenstein'}

>  <distance_score>  (72) 
0.828516

>  <energy_score>  (72) 
-3.924943

>  <inchikey>  (72) 
RCJWHSZLGRRVMM-UHFFFAOYSA-N

>  <alias>  (72) 
Cc1ccc2c(c1)c(C(=O)NCCn1cncn1)nn2C

>  <smiles>  (72) 
C209218-P141

>  <HIPPO Pose ID>  (72) 
48171

>  <ref_mols>  (72) 
A3986a,A3176a

>  <HIPPO Compound ID>  (72) 
209218

$$$$
Cn1nc(C[C@H]2CC[C@@]3(C2)NCN[C@@H]3N)c2ccccc21
     RDKit          3D

 21 24  0  0  0  0  0  0  0  0999 V2000
    9.4051    9.2030   23.1186 C   0  0  0  0  0  0  0  0  0  0  0  0
    8.9851   10.4680   23.6754 N   0  0  0  0  0  0  0  0  0  0  0  0
    9.6685   11.5908   23.3599 N   0  0  0  0  0  0  0  0  0  0  0  0
    9.0290   12.5576   24.0208 C   0  0  0  0  0  0  0  0  0  0  0  0
    9.4601   13.9746   24.0532 C   0  0  0  0  0  0  0  0  0  0  0  0
   10.2342   14.6360   22.9392 C   0  0  1  0  0  0  0  0  0  0  0  0
   11.7368   14.4493   22.8795 C   0  0  0  0  0  0  0  0  0  0  0  0
   12.1221   15.2688   21.6406 C   0  0  0  0  0  0  0  0  0  0  0  0
   10.8520   15.3961   20.7715 C   0  0  1  0  0  0  0  0  0  0  0  0
    9.8214   14.4776   21.4800 C   0  0  0  0  0  0  0  0  0  0  0  0
   10.1723   16.7065   20.8031 N   0  0  0  0  0  0  0  0  0  0  0  0
    9.7887   17.0335   19.4418 C   0  0  0  0  0  0  0  0  0  0  0  0
    9.9748   15.8123   18.6870 N   0  0  0  0  0  0  0  0  0  0  0  0
   11.1641   15.2690   19.2774 C   0  0  2  0  0  0  0  0  0  0  0  0
   11.3945   13.9882   18.7041 N   0  0  0  0  0  0  0  0  0  0  0  0
    7.9613   12.0439   24.8073 C   0  0  0  0  0  0  0  0  0  0  0  0
    7.0224   12.5906   25.7050 C   0  0  0  0  0  0  0  0  0  0  0  0
    6.1256   11.7404   26.3563 C   0  0  0  0  0  0  0  0  0  0  0  0
    6.1557   10.3714   26.1131 C   0  0  0  0  0  0  0  0  0  0  0  0
    7.0674    9.8197   25.2075 C   0  0  0  0  0  0  0  0  0  0  0  0
    7.9691   10.6777   24.5749 C   0  0  0  0  0  0  0  0  0  0  0  0
  1  2  1  0
  2  3  1  0
  3  4  2  0
  4  5  1  0
  6  5  1  1
  6  7  1  0
  7  8  1  0
  9  8  1  1
  9 10  1  0
  9 11  1  0
 11 12  1  0
 12 13  1  0
 13 14  1  0
 14 15  1  6
  4 16  1  0
 16 17  2  0
 17 18  1  0
 18 19  2  0
 19 20  1  0
 20 21  2  0
 21  2  1  0
 10  6  1  0
 21 16  1  0
 14  9  1  0
M  END
>  <ref_pdb>  (73) 
A2290a

>  <tags>  (73) 
{'fragmenstein_placed', 'openbind_a71ev2a_c1_fragmenstein'}

>  <distance_score>  (73) 
0.860584

>  <energy_score>  (73) 
-29.098369

>  <inchikey>  (73) 
XIBNVKKKKOBXOR-UHFFFAOYSA-N

>  <alias>  (73) 
Cn1nc(C[C@H]2CC[C@@]3(C2)NCN[C@@H]3N)c2ccccc21

>  <smiles>  (73) 
C209287-P141

>  <HIPPO Pose ID>  (73) 
48172

>  <ref_mols>  (73) 
A3989a,A3176a

>  <HIPPO Compound ID>  (73) 
209837

$$$$
C[C@H]1CC[C@@H]([C@](O)(NO)c2nn(C)c3ccccc23)C[C@]12NCN(O)[C@@H]2N
     RDKit          3D

 27 30  0  0  0  0  0  0  0  0999 V2000
    8.8432   17.9564   20.1912 C   0  0  0  0  0  0  0  0  0  0  0  0
    9.0477   16.7075   21.0446 C   0  0  1  0  0  0  0  0  0  0  0  0
    7.7460   16.2621   21.8197 C   0  0  0  0  0  0  0  0  0  0  0  0
    7.9346   15.2339   22.9622 C   0  0  0  0  0  0  0  0  0  0  0  0
    9.3227   14.6465   22.8267 C   0  0  1  0  0  0  0  0  0  0  0  0
    9.8421   13.6671   23.8804 C   0  0  2  0  0  0  0  0  0  0  0  0
    9.8371   14.3417   25.1405 O   0  0  0  0  0  0  0  0  0  0  0  0
   11.2725   13.3320   23.6889 N   0  0  0  0  0  0  0  0  0  0  0  0
   12.0658   14.5440   23.5322 O   0  0  0  0  0  0  0  0  0  0  0  0
    9.0844   12.3701   23.9578 C   0  0  0  0  0  0  0  0  0  0  0  0
    9.4801   11.3064   23.2409 N   0  0  0  0  0  0  0  0  0  0  0  0
    8.7816   10.2853   23.7518 N   0  0  0  0  0  0  0  0  0  0  0  0
    9.1694    8.9485   23.3758 C   0  0  0  0  0  0  0  0  0  0  0  0
    7.8250   10.6730   24.6568 C   0  0  0  0  0  0  0  0  0  0  0  0
    6.8614    9.9666   25.3818 C   0  0  0  0  0  0  0  0  0  0  0  0
    6.0603   10.6743   26.2824 C   0  0  0  0  0  0  0  0  0  0  0  0
    6.2016   12.0490   26.4383 C   0  0  0  0  0  0  0  0  0  0  0  0
    7.1666   12.7469   25.7064 C   0  0  0  0  0  0  0  0  0  0  0  0
    7.9899   12.0466   24.8029 C   0  0  0  0  0  0  0  0  0  0  0  0
    9.4663   14.2763   21.3344 C   0  0  0  0  0  0  0  0  0  0  0  0
    9.9668   15.5345   20.5842 C   0  0  2  0  0  0  0  0  0  0  0  0
   11.3901   15.5801   21.0987 N   0  0  0  0  0  0  0  0  0  0  0  0
   12.1191   14.7086   20.1590 C   0  0  0  0  0  0  0  0  0  0  0  0
   11.2733   14.4899   18.9944 N   0  0  0  0  0  0  0  0  0  0  0  0
   12.0807   14.6858   17.8183 O   0  0  0  0  0  0  0  0  0  0  0  0
   10.2177   15.4880   19.0641 C   0  0  2  0  0  0  0  0  0  0  0  0
   10.6703   16.6830   18.3766 N   0  0  0  0  0  0  0  0  0  0  0  0
  2  1  1  6
  2  3  1  0
  3  4  1  0
  5  4  1  1
  5  6  1  0
  6  7  1  1
  6  8  1  0
  8  9  1  0
  6 10  1  0
 10 11  2  0
 11 12  1  0
 12 13  1  0
 12 14  1  0
 14 15  2  0
 15 16  1  0
 16 17  2  0
 17 18  1  0
 18 19  2  0
  5 20  1  0
 21 20  1  1
 21 22  1  0
 22 23  1  0
 23 24  1  0
 24 25  1  0
 24 26  1  0
 26 27  1  1
 21  2  1  0
 19 10  1  0
 26 21  1  0
 19 14  1  0
M  END
>  <ref_pdb>  (74) 
A2290a

>  <tags>  (74) 
{'fragmenstein_placed', 'openbind_a71ev2a_c1_fragmenstein'}

>  <distance_score>  (74) 
0.768379

>  <energy_score>  (74) 
-43.209302

>  <inchikey>  (74) 
ZXAAHBZIJXGKJX-UHFFFAOYSA-N

>  <alias>  (74) 
C[C@H]1CC[C@@H]([C@](O)(NO)c2nn(C)c3ccccc23)C[C@]12NCN(O)[C@@H]2N

>  <smiles>  (74) 
C207208-P141

>  <HIPPO Pose ID>  (74) 
48175

>  <ref_mols>  (74) 
A4012b,A3176a

>  <HIPPO Compound ID>  (74) 
207208

$$$$
Cn1nc(C(O)(O)[C@H]2C[C@H]3NCC[C@]4(CNCN4)[C@H]3C2)c2ccccc21
     RDKit          3D

 26 30  0  0  0  0  0  0  0  0999 V2000
    9.3997    8.7364   23.3363 C   0  0  0  0  0  0  0  0  0  0  0  0
    9.0946   10.0509   23.8354 N   0  0  0  0  0  0  0  0  0  0  0  0
    9.8725   11.0665   23.4426 N   0  0  0  0  0  0  0  0  0  0  0  0
    9.3514   12.1372   24.0506 C   0  0  0  0  0  0  0  0  0  0  0  0
    9.6055   13.4791   23.4458 C   0  0  0  0  0  0  0  0  0  0  0  0
    9.1427   13.3272   22.1256 O   0  0  0  0  0  0  0  0  0  0  0  0
    8.7830   14.4345   24.0939 O   0  0  0  0  0  0  0  0  0  0  0  0
   11.0267   14.0712   23.3574 C   0  0  1  0  0  0  0  0  0  0  0  0
   11.9989   13.5324   22.3277 C   0  0  0  0  0  0  0  0  0  0  0  0
   12.1922   14.5401   21.1580 C   0  0  1  0  0  0  0  0  0  0  0  0
   12.0966   13.9273   19.8450 N   0  0  0  0  0  0  0  0  0  0  0  0
   11.8373   14.8569   18.7676 C   0  0  0  0  0  0  0  0  0  0  0  0
   10.6456   15.7625   18.9333 C   0  0  0  0  0  0  0  0  0  0  0  0
   10.1302   15.9671   20.3648 C   0  0  1  0  0  0  0  0  0  0  0  0
    9.5078   17.3699   20.3794 C   0  0  0  0  0  0  0  0  0  0  0  0
    8.4090   17.2953   21.3051 N   0  0  0  0  0  0  0  0  0  0  0  0
    7.9934   15.9350   21.3646 C   0  0  0  0  0  0  0  0  0  0  0  0
    8.8988   15.1839   20.5271 N   0  0  0  0  0  0  0  0  0  0  0  0
   11.2615   15.7003   21.4206 C   0  0  1  0  0  0  0  0  0  0  0  0
   10.9869   15.5210   22.9085 C   0  0  0  0  0  0  0  0  0  0  0  0
    8.2640   11.7843   24.9088 C   0  0  0  0  0  0  0  0  0  0  0  0
    7.3446   12.4646   25.7397 C   0  0  0  0  0  0  0  0  0  0  0  0
    6.3065   11.7595   26.3532 C   0  0  0  0  0  0  0  0  0  0  0  0
    6.1599   10.3997   26.1228 C   0  0  0  0  0  0  0  0  0  0  0  0
    7.0288    9.7226   25.2648 C   0  0  0  0  0  0  0  0  0  0  0  0
    8.0851   10.4256   24.6855 C   0  0  0  0  0  0  0  0  0  0  0  0
  1  2  1  0
  2  3  1  0
  3  4  2  0
  4  5  1  0
  5  6  1  0
  5  7  1  0
  8  5  1  6
  8  9  1  0
 10  9  1  1
 10 11  1  0
 11 12  1  0
 12 13  1  0
 14 13  1  6
 14 15  1  0
 15 16  1  0
 16 17  1  0
 17 18  1  0
 14 19  1  0
 19 20  1  1
  4 21  1  0
 21 22  2  0
 22 23  1  0
 23 24  2  0
 24 25  1  0
 25 26  2  0
 26  2  1  0
 20  8  1  0
 26 21  1  0
 19 10  1  0
 18 14  1  0
M  END
>  <ref_pdb>  (75) 
A2290a

>  <tags>  (75) 
{'fragmenstein_placed', 'openbind_a71ev2a_c1_fragmenstein'}

>  <distance_score>  (75) 
0.929013

>  <energy_score>  (75) 
-14.258633

>  <inchikey>  (75) 
UBDMMFNGJKAPAH-UHFFFAOYSA-N

>  <alias>  (75) 
Cn1nc(C(O)(O)[C@H]2C[C@H]3NCC[C@]4(CNCN4)[C@H]3C2)c2ccccc21

>  <smiles>  (75) 
C209410-P141

>  <HIPPO Pose ID>  (75) 
48240

>  <ref_mols>  (75) 
A4689a,A3176a

>  <HIPPO Compound ID>  (75) 
209410

$$$$
CCN(C)C(O)(O)c1nn(C)c2ccccc12
     RDKit          3D

 17 18  0  0  0  0  0  0  0  0999 V2000
   12.6012   15.4427   22.7676 C   0  0  0  0  0  0  0  0  0  0  0  0
   11.2224   14.9279   22.4174 C   0  0  0  0  0  0  0  0  0  0  0  0
   10.6721   13.9599   23.3710 N   0  0  0  0  0  0  0  0  0  0  0  0
   11.0416   14.2066   24.7596 C   0  0  0  0  0  0  0  0  0  0  0  0
    9.2274   13.7962   23.2431 C   0  0  0  0  0  0  0  0  0  0  0  0
    8.5576   14.8695   23.8689 O   0  0  0  0  0  0  0  0  0  0  0  0
    8.8231   13.8639   21.8900 O   0  0  0  0  0  0  0  0  0  0  0  0
    8.8229   12.4275   23.7629 C   0  0  0  0  0  0  0  0  0  0  0  0
    9.3517   11.3253   23.2020 N   0  0  0  0  0  0  0  0  0  0  0  0
    8.7384   10.3070   23.8095 N   0  0  0  0  0  0  0  0  0  0  0  0
    9.1499    8.9693   23.4616 C   0  0  0  0  0  0  0  0  0  0  0  0
    7.7876   10.7033   24.7158 C   0  0  0  0  0  0  0  0  0  0  0  0
    6.8651    9.9948   25.4892 C   0  0  0  0  0  0  0  0  0  0  0  0
    6.0425   10.7100   26.3628 C   0  0  0  0  0  0  0  0  0  0  0  0
    6.1180   12.0959   26.4386 C   0  0  0  0  0  0  0  0  0  0  0  0
    7.0142   12.8012   25.6292 C   0  0  0  0  0  0  0  0  0  0  0  0
    7.8591   12.0937   24.7509 C   0  0  0  0  0  0  0  0  0  0  0  0
  1  2  1  0
  2  3  1  0
  3  4  1  0
  3  5  1  0
  5  6  1  0
  5  7  1  0
  5  8  1  0
  8  9  2  0
  9 10  1  0
 10 11  1  0
 10 12  1  0
 12 13  2  0
 13 14  1  0
 14 15  2  0
 15 16  1  0
 16 17  2  0
 17  8  1  0
 17 12  1  0
M  END
>  <ref_pdb>  (76) 
A2290a

>  <tags>  (76) 
{'fragmenstein_placed', 'openbind_a71ev2a_c1_fragmenstein'}

>  <distance_score>  (76) 
0.927519

>  <energy_score>  (76) 
-21.360634

>  <inchikey>  (76) 
DEAYEWLCXYHNPI-UHFFFAOYSA-N

>  <alias>  (76) 
CCN(C)C(O)(O)c1nn(C)c2ccccc12

>  <smiles>  (76) 
C209458-P141

>  <HIPPO Pose ID>  (76) 
48278

>  <ref_mols>  (76) 
A3176a,A4977a,A4977b

>  <HIPPO Compound ID>  (76) 
209458

$$$$
COc1cccc2c1c(C(=O)NCCn1cncn1)nn2C
     RDKit          3D

 22 24  0  0  0  0  0  0  0  0999 V2000
    6.6341   14.8575   24.9829 C   0  0  0  0  0  0  0  0  0  0  0  0
    7.2526   14.0968   26.0245 O   0  0  0  0  0  0  0  0  0  0  0  0
    7.1914   12.7528   25.7199 C   0  0  0  0  0  0  0  0  0  0  0  0
    6.2320   11.9964   26.4029 C   0  0  0  0  0  0  0  0  0  0  0  0
    6.1362   10.6268   26.1889 C   0  0  0  0  0  0  0  0  0  0  0  0
    6.9804    9.9852   25.2805 C   0  0  0  0  0  0  0  0  0  0  0  0
    7.9518   10.7480   24.6217 C   0  0  0  0  0  0  0  0  0  0  0  0
    8.1010   12.1189   24.8441 C   0  0  0  0  0  0  0  0  0  0  0  0
    9.2542   12.4832   24.0885 C   0  0  0  0  0  0  0  0  0  0  0  0
   10.0049   13.7628   24.0764 C   0  0  0  0  0  0  0  0  0  0  0  0
    9.8277   14.5869   24.8801 O   0  0  0  0  0  0  0  0  0  0  0  0
   11.0323   13.6873   22.9376 N   0  0  0  0  0  0  0  0  0  0  0  0
   11.9975   14.6505   22.4862 C   0  0  0  0  0  0  0  0  0  0  0  0
   12.0997   14.7647   20.9707 C   0  0  0  0  0  0  0  0  0  0  0  0
   10.9858   15.4165   20.3258 N   0  0  0  0  0  0  0  0  0  0  0  0
   10.8606   15.6936   19.0009 C   0  0  0  0  0  0  0  0  0  0  0  0
    9.9325   16.6101   18.8383 N   0  0  0  0  0  0  0  0  0  0  0  0
    9.4930   16.8365   20.1033 C   0  0  0  0  0  0  0  0  0  0  0  0
   10.0604   16.0744   21.0363 N   0  0  0  0  0  0  0  0  0  0  0  0
    9.7031   11.4418   23.3562 N   0  0  0  0  0  0  0  0  0  0  0  0
    8.9216   10.4111   23.7131 N   0  0  0  0  0  0  0  0  0  0  0  0
    9.2135    9.1042   23.1686 C   0  0  0  0  0  0  0  0  0  0  0  0
  1  2  1  0
  2  3  1  0
  3  4  2  0
  4  5  1  0
  5  6  2  0
  6  7  1  0
  7  8  2  0
  8  9  1  0
  9 10  1  0
 10 11  2  0
 10 12  1  0
 12 13  1  0
 13 14  1  0
 14 15  1  0
 15 16  1  0
 16 17  2  0
 17 18  1  0
 18 19  2  0
  9 20  2  0
 20 21  1  0
 21 22  1  0
  8  3  1  0
 19 15  1  0
 21  7  1  0
M  END
>  <ref_pdb>  (77) 
A2290a

>  <tags>  (77) 
{'fragmenstein_placed', 'openbind_a71ev2a_c1_fragmenstein'}

>  <distance_score>  (77) 
0.902303

>  <energy_score>  (77) 
-11.301343

>  <inchikey>  (77) 
DMXCSEIOVCLCAJ-UHFFFAOYSA-N

>  <alias>  (77) 
COc1cccc2c1c(C(=O)NCCn1cncn1)nn2C

>  <smiles>  (77) 
C209478-P141

>  <HIPPO Pose ID>  (77) 
48293

>  <ref_mols>  (77) 
A3176a,A5131a

>  <HIPPO Compound ID>  (77) 
209478

$$$$
Cn1nc(C(=O)NCCn2cncn2)c2ccc(-c3ccc(F)cc3)cc21
     RDKit          3D

 27 30  0  0  0  0  0  0  0  0999 V2000
    8.8668    9.1034   23.6261 C   0  0  0  0  0  0  0  0  0  0  0  0
    8.6092   10.4846   23.9633 N   0  0  0  0  0  0  0  0  0  0  0  0
    9.4196   11.4187   23.4214 N   0  0  0  0  0  0  0  0  0  0  0  0
    9.0261   12.5720   23.9903 C   0  0  0  0  0  0  0  0  0  0  0  0
    9.7817   13.8327   23.8229 C   0  0  0  0  0  0  0  0  0  0  0  0
    9.5399   14.7597   24.4861 O   0  0  0  0  0  0  0  0  0  0  0  0
   10.8625   13.6295   22.7540 N   0  0  0  0  0  0  0  0  0  0  0  0
   11.9356   14.4868   22.3382 C   0  0  0  0  0  0  0  0  0  0  0  0
   12.0264   14.7245   20.8378 C   0  0  0  0  0  0  0  0  0  0  0  0
   10.9274   15.4562   20.2582 N   0  0  0  0  0  0  0  0  0  0  0  0
   10.7962   15.8294   18.9580 C   0  0  0  0  0  0  0  0  0  0  0  0
    9.8853   16.7731   18.8681 N   0  0  0  0  0  0  0  0  0  0  0  0
    9.4489   16.9042   20.1487 C   0  0  0  0  0  0  0  0  0  0  0  0
   10.0248   16.0820   21.0241 N   0  0  0  0  0  0  0  0  0  0  0  0
    7.9051   12.3675   24.8363 C   0  0  0  0  0  0  0  0  0  0  0  0
    7.0968   13.2040   25.6190 C   0  0  0  0  0  0  0  0  0  0  0  0
    6.1841   12.6366   26.5091 C   0  0  0  0  0  0  0  0  0  0  0  0
    6.0552   11.2491   26.6627 C   0  0  0  0  0  0  0  0  0  0  0  0
    5.2952   10.7185   27.8335 C   0  0  0  0  0  0  0  0  0  0  0  0
    4.6092    9.4989   27.7979 C   0  0  0  0  0  0  0  0  0  0  0  0
    3.9504    8.9752   28.9161 C   0  0  0  0  0  0  0  0  0  0  0  0
    3.9684    9.6783   30.1079 C   0  0  0  0  0  0  0  0  0  0  0  0
    3.3540    9.1741   31.1848 F   0  0  0  0  0  0  0  0  0  0  0  0
    4.6297   10.8918   30.1963 C   0  0  0  0  0  0  0  0  0  0  0  0
    5.2883   11.4018   29.0708 C   0  0  0  0  0  0  0  0  0  0  0  0
    6.7609   10.4129   25.7554 C   0  0  0  0  0  0  0  0  0  0  0  0
    7.7026   10.9915   24.8717 C   0  0  0  0  0  0  0  0  0  0  0  0
  1  2  1  0
  2  3  1  0
  3  4  2  0
  4  5  1  0
  5  6  2  0
  5  7  1  0
  7  8  1  0
  8  9  1  0
  9 10  1  0
 10 11  1  0
 11 12  2  0
 12 13  1  0
 13 14  2  0
  4 15  1  0
 15 16  2  0
 16 17  1  0
 17 18  2  0
 18 19  1  0
 19 20  2  0
 20 21  1  0
 21 22  2  0
 22 23  1  0
 22 24  1  0
 24 25  2  0
 18 26  1  0
 26 27  2  0
 27  2  1  0
 14 10  1  0
 27 15  1  0
 25 19  1  0
M  END
>  <ref_pdb>  (78) 
A2290a

>  <tags>  (78) 
{'fragmenstein_placed', 'openbind_a71ev2a_c1_fragmenstein'}

>  <distance_score>  (78) 
0.940344

>  <energy_score>  (78) 
-7.837444

>  <inchikey>  (78) 
HYGHYRLZACCXQI-UHFFFAOYSA-N

>  <alias>  (78) 
Cn1nc(C(=O)NCCn2cncn2)c2ccc(-c3ccc(F)cc3)cc21

>  <smiles>  (78) 
C209486-P141

>  <HIPPO Pose ID>  (78) 
48299

>  <ref_mols>  (78) 
A5210a,A3176a

>  <HIPPO Compound ID>  (78) 
209486

$$$$
O=C(NO)[C@H]1CC[C@@H]2CCc3[nH]cnc3C(=O)N2C1
     RDKit          3D

 19 21  0  0  0  0  0  0  0  0999 V2000
    9.8039   16.3296   19.6704 O   0  0  0  0  0  0  0  0  0  0  0  0
   10.2705   15.2984   19.9291 C   0  0  0  0  0  0  0  0  0  0  0  0
   11.2954   14.4505   19.1646 N   0  0  0  0  0  0  0  0  0  0  0  0
   11.8659   14.6395   17.9306 O   0  0  0  0  0  0  0  0  0  0  0  0
   10.0258   14.5567   21.2231 C   0  0  1  0  0  0  0  0  0  0  0  0
   11.2325   14.7066   22.1604 C   0  0  0  0  0  0  0  0  0  0  0  0
   10.8476   14.5908   23.6321 C   0  0  0  0  0  0  0  0  0  0  0  0
    9.6492   13.6603   23.8641 C   0  0  2  0  0  0  0  0  0  0  0  0
   10.0801   12.1932   23.6036 C   0  0  0  0  0  0  0  0  0  0  0  0
    9.0816   11.0594   23.9031 C   0  0  0  0  0  0  0  0  0  0  0  0
    7.8824   11.5256   24.6270 C   0  0  0  0  0  0  0  0  0  0  0  0
    7.2492   10.8666   25.6437 N   0  0  0  0  0  0  0  0  0  0  0  0
    6.2163   11.6549   26.0641 C   0  0  0  0  0  0  0  0  0  0  0  0
    6.1046   12.7342   25.3280 N   0  0  0  0  0  0  0  0  0  0  0  0
    7.0806   12.6221   24.3662 C   0  0  0  0  0  0  0  0  0  0  0  0
    7.2361   13.4867   23.1976 C   0  0  0  0  0  0  0  0  0  0  0  0
    6.3585   13.5622   22.3426 O   0  0  0  0  0  0  0  0  0  0  0  0
    8.4993   14.0538   23.0353 N   0  0  0  0  0  0  0  0  0  0  0  0
    8.7314   14.9547   21.8958 C   0  0  0  0  0  0  0  0  0  0  0  0
  1  2  2  0
  2  3  1  0
  3  4  1  0
  5  2  1  6
  5  6  1  0
  6  7  1  0
  8  7  1  6
  8  9  1  0
  9 10  1  0
 10 11  1  0
 11 12  1  0
 12 13  1  0
 13 14  2  0
 14 15  1  0
 15 16  1  0
 16 17  2  0
 16 18  1  0
 18 19  1  0
 19  5  1  0
 18  8  1  0
 15 11  2  0
M  END
>  <ref_pdb>  (79) 
A3191a

>  <tags>  (79) 
{'fragmenstein_placed', 'openbind_a71ev2a_c1_fragmenstein'}

>  <distance_score>  (79) 
0.883189

>  <energy_score>  (79) 
-10.673032

>  <inchikey>  (79) 
OWKLMJNPJZKEQM-UHFFFAOYSA-N

>  <alias>  (79) 
O=C(NO)[C@H]1CC[C@@H]2CCc3[nH]cnc3C(=O)N2C1

>  <smiles>  (79) 
C248595-P158

>  <HIPPO Pose ID>  (79) 
50205

>  <ref_mols>  (79) 
A3222a,A2629a

>  <HIPPO Compound ID>  (79) 
248595

$$$$
Cc1ocnc1CCNC[C@H]1C[C@@H](C)c2ccccc21
     RDKit          3D

 20 22  0  0  0  0  0  0  0  0999 V2000
   11.6529   14.9457   18.2349 C   0  0  0  0  0  0  0  0  0  0  0  0
   10.9652   15.4831   19.3966 C   0  0  0  0  0  0  0  0  0  0  0  0
    9.8369   16.2181   19.1960 O   0  0  0  0  0  0  0  0  0  0  0  0
    9.5062   16.6323   20.4473 C   0  0  0  0  0  0  0  0  0  0  0  0
   10.2903   16.1858   21.3964 N   0  0  0  0  0  0  0  0  0  0  0  0
   11.2586   15.4818   20.7345 C   0  0  0  0  0  0  0  0  0  0  0  0
   12.4408   14.8952   21.4189 C   0  0  0  0  0  0  0  0  0  0  0  0
   12.1258   14.4013   22.8259 C   0  0  0  0  0  0  0  0  0  0  0  0
   11.0960   13.3945   22.7411 N   0  0  0  0  0  0  0  0  0  0  0  0
   10.3002   13.1971   23.9261 C   0  0  0  0  0  0  0  0  0  0  0  0
    9.2049   12.1878   23.5922 C   0  0  1  0  0  0  0  0  0  0  0  0
    9.8193   10.8504   23.1592 C   0  0  0  0  0  0  0  0  0  0  0  0
    8.8842    9.7390   23.5841 C   0  0  1  0  0  0  0  0  0  0  0  0
    9.6089    8.4212   23.6391 C   0  0  0  0  0  0  0  0  0  0  0  0
    8.1907   10.3692   24.7528 C   0  0  0  0  0  0  0  0  0  0  0  0
    7.2905    9.7907   25.6223 C   0  0  0  0  0  0  0  0  0  0  0  0
    6.5609   10.5883   26.5023 C   0  0  0  0  0  0  0  0  0  0  0  0
    6.7282   11.9749   26.4950 C   0  0  0  0  0  0  0  0  0  0  0  0
    7.6183   12.5707   25.6019 C   0  0  0  0  0  0  0  0  0  0  0  0
    8.3420   11.7587   24.7399 C   0  0  0  0  0  0  0  0  0  0  0  0
  1  2  1  0
  2  3  1  0
  3  4  1  0
  4  5  2  0
  5  6  1  0
  6  7  1  0
  7  8  1  0
  8  9  1  0
  9 10  1  0
 11 10  1  1
 11 12  1  0
 12 13  1  0
 13 14  1  1
 13 15  1  0
 15 16  2  0
 16 17  1  0
 17 18  2  0
 18 19  1  0
 19 20  2  0
  6  2  2  0
 20 11  1  0
 20 15  1  0
M  END
>  <ref_pdb>  (80) 
A3191a

>  <tags>  (80) 
{'fragmenstein_placed', 'openbind_a71ev2a_c1_fragmenstein'}

>  <distance_score>  (80) 
0.780634

>  <energy_score>  (80) 
-24.521005

>  <inchikey>  (80) 
HSQWIPMJMKOJQO-UHFFFAOYSA-N

>  <alias>  (80) 
Cc1ocnc1CCNC[C@H]1C[C@@H](C)c2ccccc21

>  <smiles>  (80) 
C250249-P163

>  <HIPPO Pose ID>  (80) 
51261

>  <ref_mols>  (80) 
A3264a,A3867a

>  <HIPPO Compound ID>  (80) 
250249

$$$$
COC[C@H](N)N=C(NCC(F)(F)c1ccccn1)c1nn(C)c2ccccc12
     RDKit          3D

 28 30  0  0  0  0  0  0  0  0999 V2000
    5.3879   16.5929   26.2799 C   0  0  0  0  0  0  0  0  0  0  0  0
    5.5299   16.3071   24.8933 O   0  0  0  0  0  0  0  0  0  0  0  0
    6.4179   15.2105   24.7027 C   0  0  0  0  0  0  0  0  0  0  0  0
    6.8742   14.9822   23.2475 C   0  0  2  0  0  0  0  0  0  0  0  0
    6.0988   13.9949   22.4971 N   0  0  0  0  0  0  0  0  0  0  0  0
    8.2942   14.6948   23.1660 N   0  0  0  0  0  0  0  0  0  0  0  0
    8.9911   13.7213   23.2031 C   0  0  0  0  0  0  0  0  0  0  0  0
   10.4842   13.5304   22.8027 N   0  0  0  0  0  0  0  0  0  0  0  0
   11.4486   14.4693   22.3760 C   0  0  0  0  0  0  0  0  0  0  0  0
   11.7159   14.8060   20.9267 C   0  0  0  0  0  0  0  0  0  0  0  0
   12.8858   15.5345   21.0293 F   0  0  0  0  0  0  0  0  0  0  0  0
   12.1176   13.7304   20.2063 F   0  0  0  0  0  0  0  0  0  0  0  0
   10.6229   15.6339   20.2888 C   0  0  0  0  0  0  0  0  0  0  0  0
   10.6303   15.8291   18.9207 C   0  0  0  0  0  0  0  0  0  0  0  0
    9.9138   16.9040   18.3908 C   0  0  0  0  0  0  0  0  0  0  0  0
    9.1810   17.7392   19.2182 C   0  0  0  0  0  0  0  0  0  0  0  0
    9.1560   17.4279   20.5579 C   0  0  0  0  0  0  0  0  0  0  0  0
    9.8637   16.4136   21.0953 N   0  0  0  0  0  0  0  0  0  0  0  0
    8.6740   12.3953   23.7419 C   0  0  0  0  0  0  0  0  0  0  0  0
    9.3595   11.3660   23.2025 N   0  0  0  0  0  0  0  0  0  0  0  0
    8.8828   10.2830   23.7873 N   0  0  0  0  0  0  0  0  0  0  0  0
    9.3292    9.0210   23.2660 C   0  0  0  0  0  0  0  0  0  0  0  0
    7.9749   10.5618   24.7682 C   0  0  0  0  0  0  0  0  0  0  0  0
    7.1432    9.7607   25.5425 C   0  0  0  0  0  0  0  0  0  0  0  0
    6.3724   10.3559   26.5411 C   0  0  0  0  0  0  0  0  0  0  0  0
    6.5052   11.7069   26.8120 C   0  0  0  0  0  0  0  0  0  0  0  0
    7.3323   12.4995   26.0131 C   0  0  0  0  0  0  0  0  0  0  0  0
    7.9677   11.9478   24.8874 C   0  0  0  0  0  0  0  0  0  0  0  0
  1  2  1  0
  2  3  1  0
  3  4  1  0
  4  5  1  1
  4  6  1  0
  6  7  2  3
  7  8  1  0
  8  9  1  0
  9 10  1  0
 10 11  1  0
 10 12  1  0
 10 13  1  0
 13 14  2  0
 14 15  1  0
 15 16  2  0
 16 17  1  0
 17 18  2  0
  7 19  1  0
 19 20  2  0
 20 21  1  0
 21 22  1  0
 21 23  1  0
 23 24  2  0
 24 25  1  0
 25 26  2  0
 26 27  1  0
 27 28  2  0
 18 13  1  0
 28 19  1  0
 28 23  1  0
M  END
>  <ref_pdb>  (81) 
A3191a

>  <tags>  (81) 
{'fragmenstein_placed', 'openbind_a71ev2a_c1_fragmenstein'}

>  <distance_score>  (81) 
0.972487

>  <energy_score>  (81) 
-23.796893

>  <inchikey>  (81) 
KJWDXNNRMHUODX-UHFFFAOYSA-N

>  <alias>  (81) 
COC[C@H](N)N=C(NCC(F)(F)c1ccccn1)c1nn(C)c2ccccc12

>  <smiles>  (81) 
C250497-P164

>  <HIPPO Pose ID>  (81) 
51464

>  <ref_mols>  (81) 
A3181a,A3279a

>  <HIPPO Compound ID>  (81) 
250497

$$$$
Cc1cccc2c1c([C@@]1(O)NCCN(Cc3cc(OCN)c[nH]3)C1=O)nn2C
     RDKit          3D

 28 31  0  0  0  0  0  0  0  0999 V2000
    7.1164   13.7988   26.4147 C   0  0  0  0  0  0  0  0  0  0  0  0
    7.1544   12.3426   26.0304 C   0  0  0  0  0  0  0  0  0  0  0  0
    6.1858   11.5082   26.6255 C   0  0  0  0  0  0  0  0  0  0  0  0
    6.1112   10.1581   26.3290 C   0  0  0  0  0  0  0  0  0  0  0  0
    6.9764    9.5942   25.4014 C   0  0  0  0  0  0  0  0  0  0  0  0
    7.9560   10.3900   24.8235 C   0  0  0  0  0  0  0  0  0  0  0  0
    8.0703   11.7501   25.1116 C   0  0  0  0  0  0  0  0  0  0  0  0
    9.1839   12.1535   24.3164 C   0  0  0  0  0  0  0  0  0  0  0  0
    9.8267   13.4901   24.1570 C   0  0  1  0  0  0  0  0  0  0  0  0
    8.9662   14.5872   24.4493 O   0  0  0  0  0  0  0  0  0  0  0  0
   10.9247   13.6269   25.1289 N   0  0  0  0  0  0  0  0  0  0  0  0
   12.2174   13.4210   24.4951 C   0  0  0  0  0  0  0  0  0  0  0  0
   12.3338   14.3783   23.3274 C   0  0  0  0  0  0  0  0  0  0  0  0
   11.4386   14.0481   22.2723 N   0  0  0  0  0  0  0  0  0  0  0  0
   11.7446   14.5750   20.9527 C   0  0  0  0  0  0  0  0  0  0  0  0
   10.7729   15.6234   20.6196 C   0  0  0  0  0  0  0  0  0  0  0  0
   10.0278   15.8266   19.4854 C   0  0  0  0  0  0  0  0  0  0  0  0
    9.1988   16.9271   19.7488 C   0  0  0  0  0  0  0  0  0  0  0  0
    8.3839   17.4761   18.8481 O   0  0  0  0  0  0  0  0  0  0  0  0
    7.7719   18.6808   19.2274 C   0  0  0  0  0  0  0  0  0  0  0  0
    7.6270   19.5235   18.0735 N   0  0  0  0  0  0  0  0  0  0  0  0
    9.3950   17.3328   21.0359 C   0  0  0  0  0  0  0  0  0  0  0  0
   10.4323   16.5993   21.5068 N   0  0  0  0  0  0  0  0  0  0  0  0
   10.1359   13.7012   22.6288 C   0  0  0  0  0  0  0  0  0  0  0  0
    9.1793   13.6874   21.8427 O   0  0  0  0  0  0  0  0  0  0  0  0
    9.7237   11.1268   23.6424 N   0  0  0  0  0  0  0  0  0  0  0  0
    8.9419   10.0922   23.9198 N   0  0  0  0  0  0  0  0  0  0  0  0
    9.2187    8.8438   23.2545 C   0  0  0  0  0  0  0  0  0  0  0  0
  1  2  1  0
  2  3  2  0
  3  4  1  0
  4  5  2  0
  5  6  1  0
  6  7  2  0
  7  8  1  0
  8  9  1  0
  9 10  1  1
  9 11  1  0
 11 12  1  0
 12 13  1  0
 13 14  1  0
 14 15  1  0
 15 16  1  0
 16 17  2  0
 17 18  1  0
 18 19  1  0
 19 20  1  0
 20 21  1  0
 18 22  2  0
 22 23  1  0
 14 24  1  0
 24 25  2  0
  8 26  2  0
 26 27  1  0
 27 28  1  0
  7  2  1  0
 24  9  1  0
 27  6  1  0
 23 16  1  0
M  END
>  <ref_pdb>  (82) 
A3191a

>  <tags>  (82) 
{'fragmenstein_placed', 'openbind_a71ev2a_c1_fragmenstein'}

>  <distance_score>  (82) 
0.904808

>  <energy_score>  (82) 
-63.836648

>  <inchikey>  (82) 
CPCIPUAOQZTFDH-UHFFFAOYSA-N

>  <alias>  (82) 
Cc1cccc2c1c([C@@]1(O)NCCN(Cc3cc(OCN)c[nH]3)C1=O)nn2C

>  <smiles>  (82) 
C250878-P165

>  <HIPPO Pose ID>  (82) 
51627

>  <ref_mols>  (82) 
A3280a,A0875a

>  <HIPPO Compound ID>  (82) 
250878

$$$$
Cc1ocnc1CCN[C@@]1(O)CCCc2cccc3c2c1nn3C
     RDKit          3D

 24 27  0  0  0  0  0  0  0  0999 V2000
    9.2289   17.9602   21.2793 C   0  0  0  0  0  0  0  0  0  0  0  0
    9.6770   16.7629   20.5803 C   0  0  0  0  0  0  0  0  0  0  0  0
    9.0054   16.6214   19.4128 O   0  0  0  0  0  0  0  0  0  0  0  0
    9.5492   15.5323   18.8615 C   0  0  0  0  0  0  0  0  0  0  0  0
   10.4948   14.9543   19.5462 N   0  0  0  0  0  0  0  0  0  0  0  0
   10.6163   15.7425   20.6579 C   0  0  0  0  0  0  0  0  0  0  0  0
   11.7920   15.4578   21.5162 C   0  0  0  0  0  0  0  0  0  0  0  0
   11.5525   14.8134   22.8644 C   0  0  0  0  0  0  0  0  0  0  0  0
   10.8449   13.5527   22.9160 N   0  0  0  0  0  0  0  0  0  0  0  0
    9.6504   13.5387   23.7439 C   0  0  1  0  0  0  0  0  0  0  0  0
   10.0377   14.0747   25.0056 O   0  0  0  0  0  0  0  0  0  0  0  0
    8.4613   14.3289   23.1635 C   0  0  0  0  0  0  0  0  0  0  0  0
    7.1783   14.5054   24.0197 C   0  0  0  0  0  0  0  0  0  0  0  0
    7.1063   13.9243   25.4430 C   0  0  0  0  0  0  0  0  0  0  0  0
    7.1787   12.4212   25.4842 C   0  0  0  0  0  0  0  0  0  0  0  0
    6.2833   11.6639   26.2551 C   0  0  0  0  0  0  0  0  0  0  0  0
    6.2773   10.2730   26.1792 C   0  0  0  0  0  0  0  0  0  0  0  0
    7.1536    9.5964   25.3267 C   0  0  0  0  0  0  0  0  0  0  0  0
    8.1030   10.3371   24.6371 C   0  0  0  0  0  0  0  0  0  0  0  0
    8.1362   11.7150   24.7356 C   0  0  0  0  0  0  0  0  0  0  0  0
    9.2191   12.1098   23.9276 C   0  0  0  0  0  0  0  0  0  0  0  0
    9.8128   11.0658   23.3432 N   0  0  0  0  0  0  0  0  0  0  0  0
    9.0964   10.0106   23.7483 N   0  0  0  0  0  0  0  0  0  0  0  0
    9.3898    8.7301   23.1594 C   0  0  0  0  0  0  0  0  0  0  0  0
  1  2  1  0
  2  3  1  0
  3  4  1  0
  4  5  2  0
  5  6  1  0
  6  7  1  0
  7  8  1  0
  8  9  1  0
  9 10  1  0
 10 11  1  1
 10 12  1  0
 12 13  1  0
 13 14  1  0
 14 15  1  0
 15 16  2  0
 16 17  1  0
 17 18  2  0
 18 19  1  0
 19 20  2  0
 20 21  1  0
 21 22  2  0
 22 23  1  0
 23 24  1  0
  6  2  2  0
 21 10  1  0
 20 15  1  0
 23 19  1  0
M  END
>  <ref_pdb>  (83) 
A3191a

>  <tags>  (83) 
{'fragmenstein_placed', 'openbind_a71ev2a_c1_fragmenstein'}

>  <distance_score>  (83) 
0.928074

>  <energy_score>  (83) 
-46.076611

>  <inchikey>  (83) 
CTVIJEWCBJAHCI-UHFFFAOYSA-N

>  <alias>  (83) 
Cc1ocnc1CCN[C@@]1(O)CCCc2cccc3c2c1nn3C

>  <smiles>  (83) 
C250918-P165

>  <HIPPO Pose ID>  (83) 
51643

>  <ref_mols>  (83) 
A3581a,A3280a

>  <HIPPO Compound ID>  (83) 
250918

$$$$
CC1=NC(C(O)(O)NCCc2ncoc2C)=C2C(=O)C=C(Cl)C=C12
     RDKit          3D

 24 26  0  0  0  0  0  0  0  0999 V2000
    9.1661    8.8148   23.2548 C   0  0  0  0  0  0  0  0  0  0  0  0
    8.9905   10.1964   23.7626 C   0  0  0  0  0  0  0  0  0  0  0  0
    9.7060   11.2043   23.3390 N   0  0  0  0  0  0  0  0  0  0  0  0
    9.2577   12.3229   24.0598 C   0  0  0  0  0  0  0  0  0  0  0  0
    9.9026   13.6846   23.8399 C   0  0  0  0  0  0  0  0  0  0  0  0
    8.9432   14.4761   23.2115 O   0  0  0  0  0  0  0  0  0  0  0  0
   10.2037   14.2834   25.0782 O   0  0  0  0  0  0  0  0  0  0  0  0
   11.0983   13.5321   23.0585 N   0  0  0  0  0  0  0  0  0  0  0  0
   11.7564   14.7319   22.5681 C   0  0  0  0  0  0  0  0  0  0  0  0
   11.4831   15.0848   21.0981 C   0  0  0  0  0  0  0  0  0  0  0  0
   10.4352   16.1169   20.8335 C   0  0  0  0  0  0  0  0  0  0  0  0
   10.1196   17.1072   21.6905 N   0  0  0  0  0  0  0  0  0  0  0  0
    9.1914   17.8299   21.1095 C   0  0  0  0  0  0  0  0  0  0  0  0
    8.8522   17.4031   19.8851 O   0  0  0  0  0  0  0  0  0  0  0  0
    9.6350   16.3134   19.7458 C   0  0  0  0  0  0  0  0  0  0  0  0
    9.3121   15.4860   18.6407 C   0  0  0  0  0  0  0  0  0  0  0  0
    8.2496   12.0278   24.8949 C   0  0  0  0  0  0  0  0  0  0  0  0
    7.4620   12.8585   25.8183 C   0  0  0  0  0  0  0  0  0  0  0  0
    7.6705   14.0488   26.0122 O   0  0  0  0  0  0  0  0  0  0  0  0
    6.4511   12.1209   26.6134 C   0  0  0  0  0  0  0  0  0  0  0  0
    6.3190   10.7916   26.4818 C   0  0  0  0  0  0  0  0  0  0  0  0
    5.2977    9.9624   27.5982 Cl  0  0  0  0  0  0  0  0  0  0  0  0
    7.0776   10.0089   25.5163 C   0  0  0  0  0  0  0  0  0  0  0  0
    8.0111   10.6176   24.7823 C   0  0  0  0  0  0  0  0  0  0  0  0
  1  2  1  0
  2  3  2  0
  3  4  1  0
  4  5  1  0
  5  6  1  0
  5  7  1  0
  5  8  1  0
  8  9  1  0
  9 10  1  0
 10 11  1  0
 11 12  1  0
 12 13  2  0
 13 14  1  0
 14 15  1  0
 15 16  1  0
  4 17  2  0
 17 18  1  0
 18 19  2  0
 18 20  1  0
 20 21  2  0
 21 22  1  0
 21 23  1  0
 23 24  2  0
 24  2  1  0
 15 11  2  0
 24 17  1  0
M  END
>  <ref_pdb>  (84) 
A3191a

>  <tags>  (84) 
{'fragmenstein_placed', 'openbind_a71ev2a_c1_fragmenstein'}

>  <distance_score>  (84) 
0.976217

>  <energy_score>  (84) 
-29.079347

>  <inchikey>  (84) 
SSDPPQDNKQWKPY-UHFFFAOYSA-N

>  <alias>  (84) 
CC1=NC(C(O)(O)NCCc2ncoc2C)=C2C(=O)C=C(Cl)C=C12

>  <smiles>  (84) 
C251069-P165

>  <HIPPO Pose ID>  (84) 
51713

>  <ref_mols>  (84) 
A4456b,A3280a

>  <HIPPO Compound ID>  (84) 
251069

$$$$
CNCNC(O)(O)c1nn(C)c2ccccc12
     RDKit          3D

 17 18  0  0  0  0  0  0  0  0999 V2000
   12.0369   14.6479   20.7196 C   0  0  0  0  0  0  0  0  0  0  0  0
   11.9893   14.9756   22.1385 N   0  0  0  0  0  0  0  0  0  0  0  0
   11.2220   14.0019   22.8849 C   0  0  0  0  0  0  0  0  0  0  0  0
    9.8459   14.2144   22.5591 N   0  0  0  0  0  0  0  0  0  0  0  0
    8.8574   13.8066   23.5049 C   0  0  0  0  0  0  0  0  0  0  0  0
    8.9974   14.5832   24.6666 O   0  0  0  0  0  0  0  0  0  0  0  0
    7.6280   14.1825   22.9157 O   0  0  0  0  0  0  0  0  0  0  0  0
    8.8424   12.3452   23.8797 C   0  0  0  0  0  0  0  0  0  0  0  0
    9.5544   11.3813   23.2779 N   0  0  0  0  0  0  0  0  0  0  0  0
    9.0338   10.2372   23.7499 N   0  0  0  0  0  0  0  0  0  0  0  0
    9.4714    8.9844   23.1798 C   0  0  0  0  0  0  0  0  0  0  0  0
    8.0523   10.4371   24.6877 C   0  0  0  0  0  0  0  0  0  0  0  0
    7.1926    9.5747   25.3575 C   0  0  0  0  0  0  0  0  0  0  0  0
    6.2874   10.1105   26.2798 C   0  0  0  0  0  0  0  0  0  0  0  0
    6.2313   11.4769   26.5156 C   0  0  0  0  0  0  0  0  0  0  0  0
    7.0604   12.3404   25.8014 C   0  0  0  0  0  0  0  0  0  0  0  0
    7.9722   11.8070   24.8667 C   0  0  0  0  0  0  0  0  0  0  0  0
  1  2  1  0
  2  3  1  0
  3  4  1  0
  4  5  1  0
  5  6  1  0
  5  7  1  0
  5  8  1  0
  8  9  2  0
  9 10  1  0
 10 11  1  0
 10 12  1  0
 12 13  2  0
 13 14  1  0
 14 15  2  0
 15 16  1  0
 16 17  2  0
 17  8  1  0
 17 12  1  0
M  END
>  <ref_pdb>  (85) 
A3191a

>  <tags>  (85) 
{'fragmenstein_placed', 'openbind_a71ev2a_c1_fragmenstein'}

>  <distance_score>  (85) 
0.846912

>  <energy_score>  (85) 
-16.057171

>  <inchikey>  (85) 
PAKQMAVEDUZSJL-UHFFFAOYSA-N

>  <alias>  (85) 
CNCNC(O)(O)c1nn(C)c2ccccc12

>  <smiles>  (85) 
C251192-P165

>  <HIPPO Pose ID>  (85) 
51773

>  <ref_mols>  (85) 
A5022a,A3280a

>  <HIPPO Compound ID>  (85) 
251192

$$$$
CO[C@H](Cc1ncoc1C)NC(O)(O)c1nn(C)c2ccccc12
     RDKit          3D

 24 26  0  0  0  0  0  0  0  0999 V2000
   11.6796   15.1767   25.6218 C   0  0  0  0  0  0  0  0  0  0  0  0
   11.4448   15.3818   24.2288 O   0  0  0  0  0  0  0  0  0  0  0  0
   11.8043   14.3623   23.2958 C   0  0  2  0  0  0  0  0  0  0  0  0
   11.9736   14.9635   21.8854 C   0  0  0  0  0  0  0  0  0  0  0  0
   10.7305   15.4551   21.2258 C   0  0  0  0  0  0  0  0  0  0  0  0
    9.6824   15.9985   21.9145 N   0  0  0  0  0  0  0  0  0  0  0  0
    8.8971   16.4866   20.9805 C   0  0  0  0  0  0  0  0  0  0  0  0
    9.2887   16.2097   19.7110 O   0  0  0  0  0  0  0  0  0  0  0  0
   10.4468   15.5116   19.8833 C   0  0  0  0  0  0  0  0  0  0  0  0
   11.1618   15.0724   18.6925 C   0  0  0  0  0  0  0  0  0  0  0  0
   10.9037   13.2413   23.2513 N   0  0  0  0  0  0  0  0  0  0  0  0
    9.7900   13.2271   24.1388 C   0  0  0  0  0  0  0  0  0  0  0  0
    9.0037   14.3797   24.1020 O   0  0  0  0  0  0  0  0  0  0  0  0
   10.3677   13.0510   25.4015 O   0  0  0  0  0  0  0  0  0  0  0  0
    8.9958   11.9910   23.9533 C   0  0  0  0  0  0  0  0  0  0  0  0
    9.4524   10.9745   23.2147 N   0  0  0  0  0  0  0  0  0  0  0  0
    8.7855    9.9210   23.6845 N   0  0  0  0  0  0  0  0  0  0  0  0
    9.1565    8.6356   23.1595 C   0  0  0  0  0  0  0  0  0  0  0  0
    7.8429   10.2482   24.6276 C   0  0  0  0  0  0  0  0  0  0  0  0
    6.9323    9.5105   25.3684 C   0  0  0  0  0  0  0  0  0  0  0  0
    6.1399   10.1567   26.3234 C   0  0  0  0  0  0  0  0  0  0  0  0
    6.2333   11.5267   26.5174 C   0  0  0  0  0  0  0  0  0  0  0  0
    7.1322   12.2724   25.7580 C   0  0  0  0  0  0  0  0  0  0  0  0
    7.9291   11.6187   24.7970 C   0  0  0  0  0  0  0  0  0  0  0  0
  1  2  1  0
  2  3  1  0
  3  4  1  6
  4  5  1  0
  5  6  1  0
  6  7  2  0
  7  8  1  0
  8  9  1  0
  9 10  1  0
  3 11  1  0
 11 12  1  0
 12 13  1  0
 12 14  1  0
 12 15  1  0
 15 16  2  0
 16 17  1  0
 17 18  1  0
 17 19  1  0
 19 20  2  0
 20 21  1  0
 21 22  2  0
 22 23  1  0
 23 24  2  0
  9  5  2  0
 24 15  1  0
 24 19  1  0
M  END
>  <ref_pdb>  (86) 
A3191a

>  <tags>  (86) 
{'fragmenstein_placed', 'openbind_a71ev2a_c1_fragmenstein'}

>  <distance_score>  (86) 
0.918872

>  <energy_score>  (86) 
-22.38515

>  <inchikey>  (86) 
AYQMAJNLGGPHMJ-UHFFFAOYSA-N

>  <alias>  (86) 
CO[C@H](Cc1ncoc1C)NC(O)(O)c1nn(C)c2ccccc12

>  <smiles>  (86) 
C251213-P165

>  <HIPPO Pose ID>  (86) 
51785

>  <ref_mols>  (86) 
A5213b,A3280a

>  <HIPPO Compound ID>  (86) 
251213

$$$$
CO[C@H]1C[C@@H](C)[C@H](Nc2ccn([C@@H]3CCNC3=O)n2)C2=C1N(C)NC2
     RDKit          3D

 25 28  0  0  0  0  0  0  0  0999 V2000
    5.8814   10.1150   26.8439 C   0  0  0  0  0  0  0  0  0  0  0  0
    6.5030   10.2201   25.5795 O   0  0  0  0  0  0  0  0  0  0  0  0
    7.8908   10.5350   25.5617 C   0  0  1  0  0  0  0  0  0  0  0  0
    8.5355    9.7113   24.4383 C   0  0  0  0  0  0  0  0  0  0  0  0
    9.7804   10.2998   23.7834 C   0  0  1  0  0  0  0  0  0  0  0  0
   10.3005    9.3277   22.7324 C   0  0  0  0  0  0  0  0  0  0  0  0
    9.5691   11.7632   23.3870 C   0  0  2  0  0  0  0  0  0  0  0  0
   10.7310   12.3773   22.7835 N   0  0  0  0  0  0  0  0  0  0  0  0
   11.7548   12.9794   23.4088 C   0  0  0  0  0  0  0  0  0  0  0  0
   12.5567   13.9211   22.7317 C   0  0  0  0  0  0  0  0  0  0  0  0
   13.3953   14.4375   23.6894 C   0  0  0  0  0  0  0  0  0  0  0  0
   13.1171   13.7573   24.8294 N   0  0  0  0  0  0  0  0  0  0  0  0
   13.7606   13.8308   26.1087 C   0  0  2  0  0  0  0  0  0  0  0  0
   14.2548   15.1538   26.6699 C   0  0  0  0  0  0  0  0  0  0  0  0
   15.1949   14.6978   27.7744 C   0  0  0  0  0  0  0  0  0  0  0  0
   15.7632   13.4917   27.2483 N   0  0  0  0  0  0  0  0  0  0  0  0
   15.0229   13.0024   26.1806 C   0  0  0  0  0  0  0  0  0  0  0  0
   15.3859   12.0887   25.4607 O   0  0  0  0  0  0  0  0  0  0  0  0
   12.1047   12.8764   24.6887 N   0  0  0  0  0  0  0  0  0  0  0  0
    8.9615   12.5315   24.5034 C   0  0  0  0  0  0  0  0  0  0  0  0
    8.1882   11.9988   25.4619 C   0  0  0  0  0  0  0  0  0  0  0  0
    7.8615   12.9692   26.3923 N   0  0  0  0  0  0  0  0  0  0  0  0
    7.0928   12.8571   27.6010 C   0  0  0  0  0  0  0  0  0  0  0  0
    8.6409   14.1232   26.1496 N   0  0  0  0  0  0  0  0  0  0  0  0
    9.0785   13.9882   24.7433 C   0  0  0  0  0  0  0  0  0  0  0  0
  1  2  1  0
  3  2  1  6
  3  4  1  0
  4  5  1  0
  5  6  1  6
  5  7  1  0
  7  8  1  1
  8  9  1  0
  9 10  1  0
 10 11  2  0
 11 12  1  0
 13 12  1  6
 13 14  1  0
 14 15  1  0
 15 16  1  0
 16 17  1  0
 17 18  2  0
 12 19  1  0
  7 20  1  0
 20 21  2  0
 21 22  1  0
 22 23  1  0
 22 24  1  0
 24 25  1  0
 21  3  1  0
 19  9  2  0
 25 20  1  0
 17 13  1  0
M  END
>  <ref_pdb>  (87) 
A3305a

>  <tags>  (87) 
{'fragmenstein_placed', 'openbind_a71ev2a_c1_fragmenstein'}

>  <distance_score>  (87) 
0.763992

>  <energy_score>  (87) 
-31.765605

>  <inchikey>  (87) 
LLEPNXKBNOKORR-UHFFFAOYSA-N

>  <alias>  (87) 
CO[C@H]1C[C@@H](C)[C@H](Nc2ccn([C@@H]3CCNC3=O)n2)C2=C1N(C)NC2

>  <smiles>  (87) 
C263111-P167

>  <HIPPO Pose ID>  (87) 
52040

>  <ref_mols>  (87) 
A4650a,A3305a

>  <HIPPO Compound ID>  (87) 
265803

$$$$
CCn1ncc2c(Nc3nn([C@H]4CCNC4=O)cc3CNC)c(C)cc(S)c21
     RDKit          3D

 28 31  0  0  0  0  0  0  0  0999 V2000
    5.5280   12.8702   27.2124 C   0  0  0  0  0  0  0  0  0  0  0  0
    7.0430   12.8325   27.3964 C   0  0  0  0  0  0  0  0  0  0  0  0
    7.8614   12.8780   26.1914 N   0  0  0  0  0  0  0  0  0  0  0  0
    8.5546   14.0043   25.9508 N   0  0  0  0  0  0  0  0  0  0  0  0
    9.3975   13.6759   24.9794 C   0  0  0  0  0  0  0  0  0  0  0  0
    9.3149   12.3184   24.6147 C   0  0  0  0  0  0  0  0  0  0  0  0
   10.0348   11.4739   23.7280 C   0  0  0  0  0  0  0  0  0  0  0  0
   11.1587   11.9346   23.0130 N   0  0  0  0  0  0  0  0  0  0  0  0
   12.0611   12.8412   23.4534 C   0  0  0  0  0  0  0  0  0  0  0  0
   12.5364   12.8979   24.7063 N   0  0  0  0  0  0  0  0  0  0  0  0
   13.4126   13.9117   24.6843 N   0  0  0  0  0  0  0  0  0  0  0  0
   14.2090   14.2376   25.8400 C   0  0  1  0  0  0  0  0  0  0  0  0
   13.4169   14.5593   27.1067 C   0  0  0  0  0  0  0  0  0  0  0  0
   14.3478   14.1311   28.2253 C   0  0  0  0  0  0  0  0  0  0  0  0
   15.1167   13.0687   27.6527 N   0  0  0  0  0  0  0  0  0  0  0  0
   15.0892   13.0885   26.2684 C   0  0  0  0  0  0  0  0  0  0  0  0
   15.7330   12.3369   25.5555 O   0  0  0  0  0  0  0  0  0  0  0  0
   13.4489   14.5564   23.4946 C   0  0  0  0  0  0  0  0  0  0  0  0
   12.5877   13.8883   22.6526 C   0  0  0  0  0  0  0  0  0  0  0  0
   12.2013   14.3289   21.2905 C   0  0  0  0  0  0  0  0  0  0  0  0
   13.3186   14.3156   20.3583 N   0  0  0  0  0  0  0  0  0  0  0  0
   13.0357   15.1887   19.2358 C   0  0  0  0  0  0  0  0  0  0  0  0
    9.6250   10.1244   23.6465 C   0  0  0  0  0  0  0  0  0  0  0  0
   10.3782    9.0835   22.8642 C   0  0  0  0  0  0  0  0  0  0  0  0
    8.5489    9.6716   24.4160 C   0  0  0  0  0  0  0  0  0  0  0  0
    7.8561   10.5092   25.2846 C   0  0  0  0  0  0  0  0  0  0  0  0
    6.4933    9.9505   26.2111 S   0  0  0  0  0  0  0  0  0  0  0  0
    8.2613   11.8317   25.3861 C   0  0  0  0  0  0  0  0  0  0  0  0
  1  2  1  0
  2  3  1  0
  3  4  1  0
  4  5  2  0
  5  6  1  0
  6  7  2  0
  7  8  1  0
  8  9  1  0
  9 10  2  0
 10 11  1  0
 12 11  1  6
 12 13  1  0
 13 14  1  0
 14 15  1  0
 15 16  1  0
 16 17  2  0
 11 18  1  0
 18 19  2  0
 19 20  1  0
 20 21  1  0
 21 22  1  0
  7 23  1  0
 23 24  1  0
 23 25  2  0
 25 26  1  0
 26 27  1  0
 26 28  2  0
 28  3  1  0
 28  6  1  0
 19  9  1  0
 16 12  1  0
M  END
>  <ref_pdb>  (88) 
A3305a

>  <tags>  (88) 
{'fragmenstein_placed', 'openbind_a71ev2a_c1_fragmenstein'}

>  <distance_score>  (88) 
0.492978

>  <energy_score>  (88) 
-77.164936

>  <inchikey>  (88) 
ISIXDZMQJHSUKE-UHFFFAOYSA-N

>  <alias>  (88) 
CCn1ncc2c(Nc3nn([C@H]4CCNC4=O)cc3CNC)c(C)cc(S)c21

>  <smiles>  (88) 
C263137-P167

>  <HIPPO Pose ID>  (88) 
52073

>  <ref_mols>  (88) 
A4771a,A3305a

>  <HIPPO Compound ID>  (88) 
263137

$$$$
O=C1NCC[C@@H]1n1ccc(N2CCc3cc4c5c(c32)CNN5CCC4)n1
     RDKit          3D

 26 31  0  0  0  0  0  0  0  0999 V2000
   15.4519   12.2568   25.3045 O   0  0  0  0  0  0  0  0  0  0  0  0
   14.8263   13.0687   25.9663 C   0  0  0  0  0  0  0  0  0  0  0  0
   14.9833   13.2381   27.3317 N   0  0  0  0  0  0  0  0  0  0  0  0
   14.2076   14.3299   27.8321 C   0  0  0  0  0  0  0  0  0  0  0  0
   13.1419   14.5329   26.7711 C   0  0  0  0  0  0  0  0  0  0  0  0
   13.8371   14.1036   25.4752 C   0  0  2  0  0  0  0  0  0  0  0  0
   12.9597   13.6028   24.4391 N   0  0  0  0  0  0  0  0  0  0  0  0
   12.8231   14.1224   23.1872 C   0  0  0  0  0  0  0  0  0  0  0  0
   11.8988   13.3295   22.5509 C   0  0  0  0  0  0  0  0  0  0  0  0
   11.5033   12.3590   23.5008 C   0  0  0  0  0  0  0  0  0  0  0  0
   10.5157   11.4427   23.2515 N   0  0  0  0  0  0  0  0  0  0  0  0
   10.8955   10.0286   23.0129 C   0  0  0  0  0  0  0  0  0  0  0  0
    9.7303    9.0864   23.2483 C   0  0  0  0  0  0  0  0  0  0  0  0
    8.9582    9.9380   24.1689 C   0  0  0  0  0  0  0  0  0  0  0  0
    7.9023    9.5526   24.9683 C   0  0  0  0  0  0  0  0  0  0  0  0
    7.3210   10.4686   25.8266 C   0  0  0  0  0  0  0  0  0  0  0  0
    7.7883   11.7663   25.7607 C   0  0  0  0  0  0  0  0  0  0  0  0
    8.8055   12.1654   24.9062 C   0  0  0  0  0  0  0  0  0  0  0  0
    9.4321   11.2441   24.1333 C   0  0  0  0  0  0  0  0  0  0  0  0
    8.9410   13.6300   25.0135 C   0  0  0  0  0  0  0  0  0  0  0  0
    7.6832   14.0111   25.6905 N   0  0  0  0  0  0  0  0  0  0  0  0
    7.2593   12.8705   26.4568 N   0  0  0  0  0  0  0  0  0  0  0  0
    5.8323   12.6332   26.6959 C   0  0  0  0  0  0  0  0  0  0  0  0
    5.6429   11.3398   27.4742 C   0  0  0  0  0  0  0  0  0  0  0  0
    6.1729   10.1363   26.7194 C   0  0  0  0  0  0  0  0  0  0  0  0
   12.1440   12.5522   24.6661 N   0  0  0  0  0  0  0  0  0  0  0  0
  1  2  2  0
  2  3  1  0
  3  4  1  0
  4  5  1  0
  5  6  1  0
  6  7  1  6
  7  8  1  0
  8  9  2  0
  9 10  1  0
 10 11  1  0
 11 12  1  0
 12 13  1  0
 13 14  1  0
 14 15  2  0
 15 16  1  0
 16 17  2  0
 17 18  1  0
 18 19  2  0
 18 20  1  0
 20 21  1  0
 21 22  1  0
 22 23  1  0
 23 24  1  0
 24 25  1  0
 10 26  2  0
  6  2  1  0
 26  7  1  0
 19 11  1  0
 19 14  1  0
 25 16  1  0
 22 17  1  0
M  END
>  <ref_pdb>  (89) 
A3305a

>  <tags>  (89) 
{'fragmenstein_placed', 'openbind_a71ev2a_c1_fragmenstein'}

>  <distance_score>  (89) 
0.972794

>  <energy_score>  (89) 
-27.017956

>  <inchikey>  (89) 
WEZNMCCECZERHN-UHFFFAOYSA-N

>  <alias>  (89) 
O=C1NCC[C@@H]1n1ccc(N2CCc3cc4c5c(c32)CNN5CCC4)n1

>  <smiles>  (89) 
C263188-P167

>  <HIPPO Pose ID>  (89) 
52135

>  <ref_mols>  (89) 
A4979a,A3305a

>  <HIPPO Compound ID>  (89) 
207759

$$$$
Cc1ccc2c(c1)c(C(=O)N[C@H](C)Cc1cscn1)nn2C
     RDKit          3D

 22 24  0  0  0  0  0  0  0  0999 V2000
    5.6579   12.3730   27.7544 C   0  0  0  0  0  0  0  0  0  0  0  0
    6.5033   11.6463   26.7567 C   0  0  0  0  0  0  0  0  0  0  0  0
    6.3688   10.2679   26.5908 C   0  0  0  0  0  0  0  0  0  0  0  0
    7.1515    9.5756   25.6666 C   0  0  0  0  0  0  0  0  0  0  0  0
    8.0786   10.2889   24.9090 C   0  0  0  0  0  0  0  0  0  0  0  0
    8.2454   11.6593   25.0654 C   0  0  0  0  0  0  0  0  0  0  0  0
    7.4645   12.3470   26.0130 C   0  0  0  0  0  0  0  0  0  0  0  0
    9.2941   11.9948   24.1787 C   0  0  0  0  0  0  0  0  0  0  0  0
   10.0446   13.2531   24.1081 C   0  0  0  0  0  0  0  0  0  0  0  0
    9.8429   14.1395   24.8357 O   0  0  0  0  0  0  0  0  0  0  0  0
   11.1156   13.0794   23.0275 N   0  0  0  0  0  0  0  0  0  0  0  0
   12.2244   13.9136   22.6733 C   0  0  2  0  0  0  0  0  0  0  0  0
   13.1370   13.9093   23.8960 C   0  0  0  0  0  0  0  0  0  0  0  0
   11.8439   15.3448   22.3369 C   0  0  0  0  0  0  0  0  0  0  0  0
   11.0651   15.5211   21.0852 C   0  0  0  0  0  0  0  0  0  0  0  0
    9.8471   16.1652   20.9707 C   0  0  0  0  0  0  0  0  0  0  0  0
    9.4430   16.3608   19.3242 S   0  0  0  0  0  0  0  0  0  0  0  0
   10.8727   15.5237   18.8960 C   0  0  0  0  0  0  0  0  0  0  0  0
   11.6341   15.1223   19.8882 N   0  0  0  0  0  0  0  0  0  0  0  0
    9.6901   10.9315   23.4519 N   0  0  0  0  0  0  0  0  0  0  0  0
    8.9804    9.9105   23.9469 N   0  0  0  0  0  0  0  0  0  0  0  0
    9.2617    8.5786   23.4694 C   0  0  0  0  0  0  0  0  0  0  0  0
  1  2  1  0
  2  3  2  0
  3  4  1  0
  4  5  2  0
  5  6  1  0
  6  7  2  0
  6  8  1  0
  8  9  1  0
  9 10  2  0
  9 11  1  0
 11 12  1  0
 12 13  1  1
 12 14  1  0
 14 15  1  0
 15 16  2  0
 16 17  1  0
 17 18  1  0
 18 19  2  0
  8 20  2  0
 20 21  1  0
 21 22  1  0
  7  2  1  0
 19 15  1  0
 21  5  1  0
M  END
>  <ref_pdb>  (90) 
A3305a

>  <tags>  (90) 
{'fragmenstein_placed', 'openbind_a71ev2a_c1_fragmenstein'}

>  <distance_score>  (90) 
0.535187

>  <energy_score>  (90) 
-66.707891

>  <inchikey>  (90) 
GPNKYXTWBNHZPT-UHFFFAOYSA-N

>  <alias>  (90) 
Cc1ccc2c(c1)c(C(=O)N[C@H](C)Cc1cscn1)nn2C

>  <smiles>  (90) 
C263297-P168

>  <HIPPO Pose ID>  (90) 
52196

>  <ref_mols>  (90) 
A3306a,A0836a

>  <HIPPO Compound ID>  (90) 
264290

$$$$
Cn1nc([C@@]2(O)NC[C@H]3C4=C(CN3C2=O)[S@@](O)=CN4)c2c(Cl)cccc21
     RDKit          3D

 26 30  0  0  0  0  0  0  0  0999 V2000
    9.5123    8.9059   23.2823 C   0  0  0  0  0  0  0  0  0  0  0  0
    9.2334   10.1368   23.9863 N   0  0  0  0  0  0  0  0  0  0  0  0
   10.0016   11.2009   23.7415 N   0  0  0  0  0  0  0  0  0  0  0  0
    9.4967   12.1866   24.5115 C   0  0  0  0  0  0  0  0  0  0  0  0
   10.1618   13.5711   24.4869 C   0  0  1  0  0  0  0  0  0  0  0  0
   10.3382   14.0981   25.7943 O   0  0  0  0  0  0  0  0  0  0  0  0
   11.5441   13.4394   23.9508 N   0  0  0  0  0  0  0  0  0  0  0  0
   11.5915   13.6721   22.4986 C   0  0  0  0  0  0  0  0  0  0  0  0
   11.1214   15.0744   22.1839 C   0  0  1  0  0  0  0  0  0  0  0  0
   10.9061   15.3869   20.7731 C   0  0  0  0  0  0  0  0  0  0  0  0
    9.6947   15.9474   20.5329 C   0  0  0  0  0  0  0  0  0  0  0  0
    8.8483   16.0281   21.7179 C   0  0  0  0  0  0  0  0  0  0  0  0
    9.7200   15.2670   22.6534 N   0  0  0  0  0  0  0  0  0  0  0  0
    9.2038   14.5485   23.6905 C   0  0  0  0  0  0  0  0  0  0  0  0
    8.0161   14.6788   24.0020 O   0  0  0  0  0  0  0  0  0  0  0  0
    9.4398   16.2300   18.9222 S   0  0  0  0  0  0  0  0  0  0  0  0
    9.8683   17.8242   19.0362 O   0  0  0  0  0  0  0  0  0  0  0  0
   11.0558   15.6792   18.5737 C   0  0  0  0  0  0  0  0  0  0  0  0
   11.6581   15.1946   19.6547 N   0  0  0  0  0  0  0  0  0  0  0  0
    8.3835   11.7169   25.2828 C   0  0  0  0  0  0  0  0  0  0  0  0
    7.4681   12.1944   26.2472 C   0  0  0  0  0  0  0  0  0  0  0  0
    7.6172   13.7959   26.8069 Cl  0  0  0  0  0  0  0  0  0  0  0  0
    6.4920   11.3687   26.8106 C   0  0  0  0  0  0  0  0  0  0  0  0
    6.4229   10.0359   26.4435 C   0  0  0  0  0  0  0  0  0  0  0  0
    7.3176    9.5234   25.5071 C   0  0  0  0  0  0  0  0  0  0  0  0
    8.2682   10.3703   24.9278 C   0  0  0  0  0  0  0  0  0  0  0  0
  1  2  1  0
  2  3  1  0
  3  4  2  0
  4  5  1  0
  5  6  1  1
  5  7  1  0
  7  8  1  0
  9  8  1  6
  9 10  1  0
 10 11  2  0
 11 12  1  0
 12 13  1  0
 13 14  1  0
 14 15  2  0
 11 16  1  0
 16 17  1  1
 16 18  2  0
 18 19  1  0
  4 20  1  0
 20 21  2  0
 21 22  1  0
 21 23  1  0
 23 24  2  0
 24 25  1  0
 25 26  2  0
 26  2  1  0
 14  5  1  0
 26 20  1  0
 13  9  1  0
 19 10  1  0
M  END
>  <ref_pdb>  (91) 
A3305a

>  <tags>  (91) 
{'fragmenstein_placed', 'openbind_a71ev2a_c1_fragmenstein'}

>  <distance_score>  (91) 
0.635611

>  <energy_score>  (91) 
-85.522282

>  <inchikey>  (91) 
UWWHWRPPZMJAIQ-UHFFFAOYSA-N

>  <alias>  (91) 
Cn1nc([C@@]2(O)NC[C@H]3C4=C(CN3C2=O)[S@@](O)=CN4)c2c(Cl)cccc21

>  <smiles>  (91) 
C263302-P168

>  <HIPPO Pose ID>  (91) 
52198

>  <ref_mols>  (91) 
A3306a,A1019a

>  <HIPPO Compound ID>  (91) 
266276

$$$$
Cn1nc2c3c(cccc31)CN=C2NCCC1=NC(N)=[S@@](O)C1=O
     RDKit          3D

 24 27  0  0  0  0  0  0  0  0999 V2000
    9.3084    8.6598   23.2829 C   0  0  0  0  0  0  0  0  0  0  0  0
    9.2062    9.9347   23.9486 N   0  0  0  0  0  0  0  0  0  0  0  0
   10.1434   10.8821   23.6643 N   0  0  0  0  0  0  0  0  0  0  0  0
    9.7303   11.9401   24.3640 C   0  0  0  0  0  0  0  0  0  0  0  0
    8.5730   11.6773   25.0575 C   0  0  0  0  0  0  0  0  0  0  0  0
    7.9083   12.5560   25.8874 C   0  0  0  0  0  0  0  0  0  0  0  0
    6.8270   12.0183   26.5831 C   0  0  0  0  0  0  0  0  0  0  0  0
    6.4935   10.6550   26.4342 C   0  0  0  0  0  0  0  0  0  0  0  0
    7.2039    9.7904   25.5718 C   0  0  0  0  0  0  0  0  0  0  0  0
    8.2668   10.3524   24.8685 C   0  0  0  0  0  0  0  0  0  0  0  0
    8.4662   13.9577   25.9023 C   0  0  0  0  0  0  0  0  0  0  0  0
    9.8235   14.1522   25.2607 N   0  0  0  0  0  0  0  0  0  0  0  0
   10.3885   13.2203   24.5633 C   0  0  0  0  0  0  0  0  0  0  0  0
   11.6453   13.2407   23.9857 N   0  0  0  0  0  0  0  0  0  0  0  0
   11.7160   13.7355   22.6102 C   0  0  0  0  0  0  0  0  0  0  0  0
   11.8511   15.2459   22.5522 C   0  0  0  0  0  0  0  0  0  0  0  0
   11.4048   15.6276   21.1969 C   0  0  0  0  0  0  0  0  0  0  0  0
   11.8185   14.9990   20.1424 N   0  0  0  0  0  0  0  0  0  0  0  0
   11.0524   15.3363   19.0839 C   0  0  0  0  0  0  0  0  0  0  0  0
   11.4705   14.8755   17.9047 N   0  0  0  0  0  0  0  0  0  0  0  0
    9.6279   16.3832   19.3261 S   0  0  0  0  0  0  0  0  0  0  0  0
    8.6646   15.2578   19.9748 O   0  0  0  0  0  0  0  0  0  0  0  0
   10.3176   16.6544   20.9464 C   0  0  0  0  0  0  0  0  0  0  0  0
    9.7980   17.4694   21.6586 O   0  0  0  0  0  0  0  0  0  0  0  0
  1  2  1  0
  2  3  1  0
  3  4  2  0
  4  5  1  0
  5  6  2  0
  6  7  1  0
  7  8  2  0
  8  9  1  0
  9 10  2  0
  6 11  1  0
 11 12  1  0
 12 13  2  0
 13 14  1  0
 14 15  1  0
 15 16  1  0
 16 17  1  0
 17 18  2  0
 18 19  1  0
 19 20  1  0
 19 21  2  0
 21 22  1  1
 21 23  1  0
 23 24  2  0
 10  2  1  0
 23 17  1  0
 13  4  1  0
 10  5  1  0
M  END
>  <ref_pdb>  (92) 
A3305a

>  <tags>  (92) 
{'fragmenstein_placed', 'openbind_a71ev2a_c1_fragmenstein'}

>  <distance_score>  (92) 
0.587309

>  <energy_score>  (92) 
-131.866117

>  <inchikey>  (92) 
KFFAPYJDDXEIJM-UHFFFAOYSA-N

>  <alias>  (92) 
Cn1nc2c3c(cccc31)CN=C2NCCC1=NC(N)=[S@@](O)C1=O

>  <smiles>  (92) 
C263355-P168

>  <HIPPO Pose ID>  (92) 
52222

>  <ref_mols>  (92) 
A3306a,A3436a

>  <HIPPO Compound ID>  (92) 
164254

$$$$
CN1[C@@H]2CCCC[C@H]2[C@H](C2=NC(=O)[C@H]3[C@H](CCN2)N[C@@H](N)[S@@H]3O)N1F
     RDKit          3D

 25 28  0  0  0  0  0  0  0  0999 V2000
    9.3223    9.1004   23.6014 C   0  0  0  0  0  0  0  0  0  0  0  0
    8.7462   10.4100   23.8595 N   0  0  0  0  0  0  0  0  0  0  0  0
    8.1752   10.6545   25.1778 C   0  0  2  0  0  0  0  0  0  0  0  0
    6.9495    9.8972   25.6466 C   0  0  0  0  0  0  0  0  0  0  0  0
    6.3037   10.5361   26.8741 C   0  0  0  0  0  0  0  0  0  0  0  0
    6.1417   12.0531   26.7652 C   0  0  0  0  0  0  0  0  0  0  0  0
    7.4211   12.7736   26.3365 C   0  0  0  0  0  0  0  0  0  0  0  0
    7.9876   12.1660   25.0669 C   0  0  1  0  0  0  0  0  0  0  0  0
    9.4102   12.5060   24.6853 C   0  0  2  0  0  0  0  0  0  0  0  0
    9.8503   13.8900   24.2468 C   0  0  0  0  0  0  0  0  0  0  0  0
    9.0697   14.7648   23.6990 N   0  0  0  0  0  0  0  0  0  0  0  0
    9.0316   14.6560   22.3212 C   0  0  0  0  0  0  0  0  0  0  0  0
    8.2491   13.9041   21.7496 O   0  0  0  0  0  0  0  0  0  0  0  0
   10.0647   15.5188   21.5970 C   0  0  1  0  0  0  0  0  0  0  0  0
   11.4178   14.7925   21.4717 C   0  0  2  0  0  0  0  0  0  0  0  0
   12.3913   14.9792   22.6295 C   0  0  0  0  0  0  0  0  0  0  0  0
   12.2337   13.9645   23.7504 C   0  0  0  0  0  0  0  0  0  0  0  0
   11.1152   14.3038   24.6215 N   0  0  0  0  0  0  0  0  0  0  0  0
   12.1113   15.3480   20.2941 N   0  0  0  0  0  0  0  0  0  0  0  0
   11.1779   15.4784   19.2092 C   0  0  1  0  0  0  0  0  0  0  0  0
   11.3363   14.2383   18.5376 N   0  0  0  0  0  0  0  0  0  0  0  0
    9.6154   15.8269   19.9159 S   0  0  2  0  0  4  0  0  0  0  0  0
    9.5858   17.4558   19.8662 O   0  0  0  0  0  0  0  0  0  0  0  0
    9.7124   11.5004   23.6443 N   0  0  0  0  0  0  0  0  0  0  0  0
   11.0010   11.0711   23.8215 F   0  0  0  0  0  0  0  0  0  0  0  0
  1  2  1  0
  2  3  1  0
  3  4  1  6
  4  5  1  0
  5  6  1  0
  6  7  1  0
  8  7  1  1
  8  9  1  0
  9 10  1  0
 10 11  2  3
 11 12  1  0
 12 13  2  0
 14 12  1  6
 14 15  1  0
 15 16  1  1
 16 17  1  0
 17 18  1  0
 15 19  1  0
 19 20  1  0
 20 21  1  1
 20 22  1  0
 22 23  1  1
  9 24  1  6
 24 25  1  0
 24  2  1  0
  8  3  1  0
 18 10  1  0
 22 14  1  0
M  END
>  <ref_pdb>  (93) 
A3305a

>  <tags>  (93) 
{'fragmenstein_placed', 'openbind_a71ev2a_c1_fragmenstein'}

>  <distance_score>  (93) 
0.96276

>  <energy_score>  (93) 
-81.152468

>  <inchikey>  (93) 
DGJUFCWDGCHNHJ-UHFFFAOYSA-N

>  <alias>  (93) 
CN1[C@@H]2CCCC[C@H]2[C@H](C2=NC(=O)[C@H]3[C@H](CCN2)N[C@@H](N)[S@@H]3O)N1F

>  <smiles>  (93) 
C263444-P168

>  <HIPPO Pose ID>  (93) 
52259

>  <ref_mols>  (93) 
A3306a,A4322a

>  <HIPPO Compound ID>  (93) 
264587

$$$$
Cn1nc(C(=O)NCCc2cscn2)c2c(CC(=O)N3CCc4nccc(O)c4C3)cccc21
     RDKit          3D

 34 38  0  0  0  0  0  0  0  0999 V2000
    9.2523    8.7125   23.5923 C   0  0  0  0  0  0  0  0  0  0  0  0
    8.9921   10.0431   24.0891 N   0  0  0  0  0  0  0  0  0  0  0  0
    9.7192   11.0491   23.6135 N   0  0  0  0  0  0  0  0  0  0  0  0
    9.4016   12.1092   24.3891 C   0  0  0  0  0  0  0  0  0  0  0  0
   10.2106   13.3478   24.1893 C   0  0  0  0  0  0  0  0  0  0  0  0
   10.0547   14.3047   24.8871 O   0  0  0  0  0  0  0  0  0  0  0  0
   11.1470   13.1027   23.1363 N   0  0  0  0  0  0  0  0  0  0  0  0
   12.2504   13.8878   22.6518 C   0  0  0  0  0  0  0  0  0  0  0  0
   11.9221   15.3327   22.3433 C   0  0  0  0  0  0  0  0  0  0  0  0
   11.1095   15.5329   21.1152 C   0  0  0  0  0  0  0  0  0  0  0  0
    9.8789   16.1565   21.0291 C   0  0  0  0  0  0  0  0  0  0  0  0
    9.4446   16.3706   19.3900 S   0  0  0  0  0  0  0  0  0  0  0  0
   10.8769   15.5578   18.9259 C   0  0  0  0  0  0  0  0  0  0  0  0
   11.6594   15.1563   19.9014 N   0  0  0  0  0  0  0  0  0  0  0  0
    8.3325   11.7808   25.3021 C   0  0  0  0  0  0  0  0  0  0  0  0
    7.5573   12.4162   26.3241 C   0  0  0  0  0  0  0  0  0  0  0  0
    7.7393   13.8508   26.8025 C   0  0  0  0  0  0  0  0  0  0  0  0
    7.3858   14.0584   28.2906 C   0  0  0  0  0  0  0  0  0  0  0  0
    8.0710   13.5763   29.1550 O   0  0  0  0  0  0  0  0  0  0  0  0
    6.1542   14.7757   28.3749 N   0  0  0  0  0  0  0  0  0  0  0  0
    5.2583   15.0627   29.5587 C   0  0  0  0  0  0  0  0  0  0  0  0
    3.8586   15.5738   29.1844 C   0  0  0  0  0  0  0  0  0  0  0  0
    4.0230   16.8734   28.4701 C   0  0  0  0  0  0  0  0  0  0  0  0
    2.9373   17.6311   28.1932 N   0  0  0  0  0  0  0  0  0  0  0  0
    3.1647   18.7915   27.5358 C   0  0  0  0  0  0  0  0  0  0  0  0
    4.4217   19.2307   27.1559 C   0  0  0  0  0  0  0  0  0  0  0  0
    5.5022   18.4232   27.4718 C   0  0  0  0  0  0  0  0  0  0  0  0
    6.7666   18.8186   27.1578 O   0  0  0  0  0  0  0  0  0  0  0  0
    5.3155   17.2123   28.1151 C   0  0  0  0  0  0  0  0  0  0  0  0
    6.4297   16.2777   28.4957 C   0  0  0  0  0  0  0  0  0  0  0  0
    6.5106   11.6581   26.9171 C   0  0  0  0  0  0  0  0  0  0  0  0
    6.2953   10.3221   26.6242 C   0  0  0  0  0  0  0  0  0  0  0  0
    7.0995    9.6848   25.6981 C   0  0  0  0  0  0  0  0  0  0  0  0
    8.0858   10.4252   25.0413 C   0  0  0  0  0  0  0  0  0  0  0  0
  1  2  1  0
  2  3  1  0
  3  4  2  0
  4  5  1  0
  5  6  2  0
  5  7  1  0
  7  8  1  0
  8  9  1  0
  9 10  1  0
 10 11  2  0
 11 12  1  0
 12 13  1  0
 13 14  2  0
  4 15  1  0
 15 16  2  0
 16 17  1  0
 17 18  1  0
 18 19  2  0
 18 20  1  0
 20 21  1  0
 21 22  1  0
 22 23  1  0
 23 24  2  0
 24 25  1  0
 25 26  2  0
 26 27  1  0
 27 28  1  0
 27 29  2  0
 29 30  1  0
 16 31  1  0
 31 32  2  0
 32 33  1  0
 33 34  2  0
 34  2  1  0
 14 10  1  0
 34 15  1  0
 30 20  1  0
 29 23  1  0
M  END
>  <ref_pdb>  (94) 
A3305a

>  <tags>  (94) 
{'fragmenstein_placed', 'openbind_a71ev2a_c1_fragmenstein'}

>  <distance_score>  (94) 
0.92497

>  <energy_score>  (94) 
-24.592413

>  <inchikey>  (94) 
QHUMGTXLPWWSGK-UHFFFAOYSA-N

>  <alias>  (94) 
Cn1nc(C(=O)NCCc2cscn2)c2c(CC(=O)N3CCc4nccc(O)c4C3)cccc21

>  <smiles>  (94) 
C263468-P168

>  <HIPPO Pose ID>  (94) 
52274

>  <ref_mols>  (94) 
A3306a,A4214b

>  <HIPPO Compound ID>  (94) 
263574

$$$$
Cn1nc(C(=NC(=O)N2CCc3[nH]cnc(=O)c3C2)NCCc2cscn2)c2ccccc21
     RDKit          3D

 33 37  0  0  0  0  0  0  0  0999 V2000
    9.5010    8.7599   23.1599 C   0  0  0  0  0  0  0  0  0  0  0  0
    9.1671   10.0114   23.7974 N   0  0  0  0  0  0  0  0  0  0  0  0
    9.7925   11.1142   23.4029 N   0  0  0  0  0  0  0  0  0  0  0  0
    9.2476   12.1333   24.1162 C   0  0  0  0  0  0  0  0  0  0  0  0
    9.8972   13.4955   23.8883 C   0  0  0  0  0  0  0  0  0  0  0  0
    9.4299   14.6086   24.2431 N   0  0  0  0  0  0  0  0  0  0  0  0
    8.1140   14.8146   24.5616 C   0  0  0  0  0  0  0  0  0  0  0  0
    7.2606   14.1196   24.0942 O   0  0  0  0  0  0  0  0  0  0  0  0
    8.0326   15.8491   25.5314 N   0  0  0  0  0  0  0  0  0  0  0  0
    8.2373   15.2770   26.9297 C   0  0  0  0  0  0  0  0  0  0  0  0
    9.0037   16.2652   27.8463 C   0  0  0  0  0  0  0  0  0  0  0  0
    8.1734   17.4857   27.9970 C   0  0  0  0  0  0  0  0  0  0  0  0
    8.4492   18.4824   28.8891 N   0  0  0  0  0  0  0  0  0  0  0  0
    7.6286   19.5733   28.9190 C   0  0  0  0  0  0  0  0  0  0  0  0
    6.5246   19.7054   28.2640 N   0  0  0  0  0  0  0  0  0  0  0  0
    6.1108   18.6505   27.4635 C   0  0  0  0  0  0  0  0  0  0  0  0
    4.9688   18.5550   27.0259 O   0  0  0  0  0  0  0  0  0  0  0  0
    7.0890   17.5509   27.2213 C   0  0  0  0  0  0  0  0  0  0  0  0
    6.8140   16.4899   26.2099 C   0  0  0  0  0  0  0  0  0  0  0  0
   11.1649   13.1500   23.2619 N   0  0  0  0  0  0  0  0  0  0  0  0
   12.2328   13.9714   22.7685 C   0  0  0  0  0  0  0  0  0  0  0  0
   11.8712   15.3843   22.3835 C   0  0  0  0  0  0  0  0  0  0  0  0
   11.0827   15.5335   21.1344 C   0  0  0  0  0  0  0  0  0  0  0  0
    9.8497   16.1463   21.0089 C   0  0  0  0  0  0  0  0  0  0  0  0
    9.4576   16.3375   19.3576 S   0  0  0  0  0  0  0  0  0  0  0  0
   10.9032   15.5223   18.9406 C   0  0  0  0  0  0  0  0  0  0  0  0
   11.6676   15.1432   19.9404 N   0  0  0  0  0  0  0  0  0  0  0  0
    8.2622   11.5986   25.0269 C   0  0  0  0  0  0  0  0  0  0  0  0
    7.3667   12.0459   26.0264 C   0  0  0  0  0  0  0  0  0  0  0  0
    6.5181   11.1735   26.7174 C   0  0  0  0  0  0  0  0  0  0  0  0
    6.5553    9.8234   26.4446 C   0  0  0  0  0  0  0  0  0  0  0  0
    7.4385    9.3405   25.4855 C   0  0  0  0  0  0  0  0  0  0  0  0
    8.2619   10.2268   24.7911 C   0  0  0  0  0  0  0  0  0  0  0  0
  1  2  1  0
  2  3  1  0
  3  4  2  0
  4  5  1  0
  5  6  2  3
  6  7  1  0
  7  8  2  0
  7  9  1  0
  9 10  1  0
 10 11  1  0
 11 12  1  0
 12 13  1  0
 13 14  1  0
 14 15  2  0
 15 16  1  0
 16 17  2  0
 16 18  1  0
 18 19  1  0
  5 20  1  0
 20 21  1  0
 21 22  1  0
 22 23  1  0
 23 24  2  0
 24 25  1  0
 25 26  1  0
 26 27  2  0
  4 28  1  0
 28 29  2  0
 29 30  1  0
 30 31  2  0
 31 32  1  0
 32 33  2  0
 33  2  1  0
 19  9  1  0
 27 23  1  0
 33 28  1  0
 18 12  2  0
M  END
>  <ref_pdb>  (95) 
A3305a

>  <tags>  (95) 
{'fragmenstein_placed', 'openbind_a71ev2a_c1_fragmenstein'}

>  <distance_score>  (95) 
0.992274

>  <energy_score>  (95) 
-2.724447

>  <inchikey>  (95) 
VKMBNOAFHYYANK-UHFFFAOYSA-N

>  <alias>  (95) 
Cn1nc(C(=NC(=O)N2CCc3[nH]cnc(=O)c3C2)NCCc2cscn2)c2ccccc21

>  <smiles>  (95) 
C263470-P168

>  <HIPPO Pose ID>  (95) 
52275

>  <ref_mols>  (95) 
A3306a,A4237b

>  <HIPPO Compound ID>  (95) 
268179

$$$$
COc1ccc2c(c([C@@]3(O)NCCCCN(C[C@@H]4C[S@@H](O)[C@@H](N)N4)C3=O)nn2C)c1Cl
     RDKit          3D

 31 34  0  0  0  0  0  0  0  0999 V2000
    4.6494   10.4915   28.6161 C   0  0  0  0  0  0  0  0  0  0  0  0
    5.3094   11.4794   27.8358 O   0  0  0  0  0  0  0  0  0  0  0  0
    6.2007   11.0537   26.8839 C   0  0  0  0  0  0  0  0  0  0  0  0
    6.3795    9.7268   26.5272 C   0  0  0  0  0  0  0  0  0  0  0  0
    7.3213    9.3631   25.5641 C   0  0  0  0  0  0  0  0  0  0  0  0
    8.0820   10.3470   24.9451 C   0  0  0  0  0  0  0  0  0  0  0  0
    7.9463   11.6957   25.2624 C   0  0  0  0  0  0  0  0  0  0  0  0
    8.9109   12.3401   24.4156 C   0  0  0  0  0  0  0  0  0  0  0  0
    9.1741   13.8192   24.3376 C   0  0  1  0  0  0  0  0  0  0  0  0
    7.9396   14.4248   23.9229 O   0  0  0  0  0  0  0  0  0  0  0  0
    9.5013   14.4654   25.6198 N   0  0  0  0  0  0  0  0  0  0  0  0
   10.7204   14.0010   26.2301 C   0  0  0  0  0  0  0  0  0  0  0  0
   12.0212   14.6097   25.7155 C   0  0  0  0  0  0  0  0  0  0  0  0
   12.8671   13.7118   24.8136 C   0  0  0  0  0  0  0  0  0  0  0  0
   12.1329   13.0181   23.6810 C   0  0  0  0  0  0  0  0  0  0  0  0
   11.3320   13.8934   22.8540 N   0  0  0  0  0  0  0  0  0  0  0  0
   12.0813   14.8072   21.9944 C   0  0  0  0  0  0  0  0  0  0  0  0
   11.4465   15.2822   20.6704 C   0  0  2  0  0  0  0  0  0  0  0  0
    9.9702   15.7047   20.5951 C   0  0  0  0  0  0  0  0  0  0  0  0
    9.6842   15.9954   18.9196 S   0  0  1  0  0  4  0  0  0  0  0  0
   10.2839   17.5032   18.8384 O   0  0  0  0  0  0  0  0  0  0  0  0
   11.0003   14.9618   18.3766 C   0  0  1  0  0  0  0  0  0  0  0  0
   11.9611   15.6367   17.5892 N   0  0  0  0  0  0  0  0  0  0  0  0
   11.7264   14.3998   19.5111 N   0  0  0  0  0  0  0  0  0  0  0  0
   10.1472   14.4015   23.3173 C   0  0  0  0  0  0  0  0  0  0  0  0
    9.8427   15.5606   22.9964 O   0  0  0  0  0  0  0  0  0  0  0  0
    9.5120   11.4536   23.6023 N   0  0  0  0  0  0  0  0  0  0  0  0
    9.0157   10.2647   23.9489 N   0  0  0  0  0  0  0  0  0  0  0  0
    9.4673    9.0755   23.2571 C   0  0  0  0  0  0  0  0  0  0  0  0
    6.9683   12.0365   26.2350 C   0  0  0  0  0  0  0  0  0  0  0  0
    6.7076   13.6928   26.5957 Cl  0  0  0  0  0  0  0  0  0  0  0  0
  1  2  1  0
  2  3  1  0
  3  4  2  0
  4  5  1  0
  5  6  2  0
  6  7  1  0
  7  8  1  0
  8  9  1  0
  9 10  1  6
  9 11  1  0
 11 12  1  0
 12 13  1  0
 13 14  1  0
 14 15  1  0
 15 16  1  0
 16 17  1  0
 18 17  1  1
 18 19  1  0
 19 20  1  0
 20 21  1  1
 20 22  1  0
 22 23  1  6
 22 24  1  0
 16 25  1  0
 25 26  2  0
  8 27  2  0
 27 28  1  0
 28 29  1  0
  7 30  2  0
 30 31  1  0
 30  3  1  0
 28  6  1  0
 25  9  1  0
 24 18  1  0
M  END
>  <ref_pdb>  (96) 
A3305a

>  <tags>  (96) 
{'fragmenstein_placed', 'openbind_a71ev2a_c1_fragmenstein'}

>  <distance_score>  (96) 
0.938092

>  <energy_score>  (96) 
-101.339641

>  <inchikey>  (96) 
HWXYDZKCQZODDY-UHFFFAOYSA-N

>  <alias>  (96) 
COc1ccc2c(c([C@@]3(O)NCCCCN(C[C@@H]4C[S@@H](O)[C@@H](N)N4)C3=O)nn2C)c1Cl

>  <smiles>  (96) 
C263490-P168

>  <HIPPO Pose ID>  (96) 
52287

>  <ref_mols>  (96) 
A3306a,A4456a

>  <HIPPO Compound ID>  (96) 
189983

$$$$
CN1C(c2nn(C)c3ccccc23)=NC(=O)N2C[C@@]3(CS[C@H](N)N3O)C[C@H]12
     RDKit          3D

 27 31  0  0  0  0  0  0  0  0999 V2000
   12.4168   13.2501   24.7375 C   0  0  0  0  0  0  0  0  0  0  0  0
   11.1293   13.5704   24.1625 N   0  0  0  0  0  0  0  0  0  0  0  0
    9.9620   13.2687   24.8487 C   0  0  0  0  0  0  0  0  0  0  0  0
    9.5078   11.8941   24.8218 C   0  0  0  0  0  0  0  0  0  0  0  0
   10.0257   10.9741   23.9936 N   0  0  0  0  0  0  0  0  0  0  0  0
    9.2050    9.9207   24.1326 N   0  0  0  0  0  0  0  0  0  0  0  0
    9.4271    8.7622   23.3010 C   0  0  0  0  0  0  0  0  0  0  0  0
    8.2168   10.1239   25.0625 C   0  0  0  0  0  0  0  0  0  0  0  0
    7.2063    9.3218   25.5712 C   0  0  0  0  0  0  0  0  0  0  0  0
    6.2894    9.8487   26.4830 C   0  0  0  0  0  0  0  0  0  0  0  0
    6.3784   11.1719   26.8807 C   0  0  0  0  0  0  0  0  0  0  0  0
    7.4100   11.9722   26.3938 C   0  0  0  0  0  0  0  0  0  0  0  0
    8.3529   11.4272   25.4939 C   0  0  0  0  0  0  0  0  0  0  0  0
    9.0185   14.1479   25.0250 N   0  0  0  0  0  0  0  0  0  0  0  0
    8.6121   14.4527   23.7523 C   0  0  0  0  0  0  0  0  0  0  0  0
    7.4937   14.2330   23.3064 O   0  0  0  0  0  0  0  0  0  0  0  0
    9.6664   14.8256   22.9814 N   0  0  0  0  0  0  0  0  0  0  0  0
    9.7720   14.3599   21.6314 C   0  0  0  0  0  0  0  0  0  0  0  0
   10.9144   15.2421   21.1490 C   0  0  2  0  0  0  0  0  0  0  0  0
   10.1813   16.5737   20.8334 C   0  0  0  0  0  0  0  0  0  0  0  0
    9.7026   16.2834   19.1076 S   0  0  0  0  0  0  0  0  0  0  0  0
   11.2394   15.4846   18.8192 C   0  0  2  0  0  0  0  0  0  0  0  0
   11.4119   14.5858   17.7431 N   0  0  0  0  0  0  0  0  0  0  0  0
   11.6178   14.7168   19.9715 N   0  0  0  0  0  0  0  0  0  0  0  0
   13.0396   14.9673   20.1331 O   0  0  0  0  0  0  0  0  0  0  0  0
   11.8617   15.1944   22.3756 C   0  0  0  0  0  0  0  0  0  0  0  0
   10.9777   14.8735   23.5483 C   0  0  2  0  0  0  0  0  0  0  0  0
  1  2  1  0
  2  3  1  0
  3  4  1  0
  4  5  2  0
  5  6  1  0
  6  7  1  0
  6  8  1  0
  8  9  2  0
  9 10  1  0
 10 11  2  0
 11 12  1  0
 12 13  2  0
  3 14  2  0
 14 15  1  0
 15 16  2  0
 15 17  1  0
 17 18  1  0
 19 18  1  1
 19 20  1  0
 20 21  1  0
 21 22  1  0
 22 23  1  6
 22 24  1  0
 24 25  1  0
 19 26  1  0
 27 26  1  6
 27  2  1  0
 13  4  1  0
 27 17  1  0
 13  8  1  0
 24 19  1  0
M  END
>  <ref_pdb>  (97) 
A3305a

>  <tags>  (97) 
{'fragmenstein_placed', 'openbind_a71ev2a_c1_fragmenstein'}

>  <distance_score>  (97) 
0.991902

>  <energy_score>  (97) 
-11.726777

>  <inchikey>  (97) 
MHJINKMDGLJYJH-UHFFFAOYSA-N

>  <alias>  (97) 
CN1C(c2nn(C)c3ccccc23)=NC(=O)N2C[C@@]3(CS[C@H](N)N3O)C[C@H]12

>  <smiles>  (97) 
C263496-P168

>  <HIPPO Pose ID>  (97) 
52293

>  <ref_mols>  (97) 
A3306a,A4509a

>  <HIPPO Compound ID>  (97) 
266892

$$$$
Cn1nc([C@@]2(O)NCCCCN(C[C@H]3C[S@H](O)[C@H](N)N3)C2=O)c2cc(Cl)ccc21
     RDKit          3D

 29 32  0  0  0  0  0  0  0  0999 V2000
    9.4419    9.0512   23.3984 C   0  0  0  0  0  0  0  0  0  0  0  0
    9.0704   10.2630   24.0943 N   0  0  0  0  0  0  0  0  0  0  0  0
    9.8158   11.3675   23.9223 N   0  0  0  0  0  0  0  0  0  0  0  0
    9.1968   12.3237   24.6398 C   0  0  0  0  0  0  0  0  0  0  0  0
    9.7953   13.7082   24.8701 C   0  0  1  0  0  0  0  0  0  0  0  0
    8.8530   14.6181   25.4337 O   0  0  0  0  0  0  0  0  0  0  0  0
   10.8156   13.5843   25.8980 N   0  0  0  0  0  0  0  0  0  0  0  0
   11.9997   14.4116   25.8086 C   0  0  0  0  0  0  0  0  0  0  0  0
   13.1932   13.6569   25.2010 C   0  0  0  0  0  0  0  0  0  0  0  0
   12.8659   12.5546   24.2263 C   0  0  0  0  0  0  0  0  0  0  0  0
   12.1869   13.0277   22.9537 C   0  0  0  0  0  0  0  0  0  0  0  0
   11.5166   14.2888   23.0993 N   0  0  0  0  0  0  0  0  0  0  0  0
   12.0025   15.3507   22.2528 C   0  0  0  0  0  0  0  0  0  0  0  0
   11.2266   15.4085   20.9695 C   0  0  1  0  0  0  0  0  0  0  0  0
   10.3438   16.6559   20.8708 C   0  0  0  0  0  0  0  0  0  0  0  0
    9.9117   16.5800   19.1842 S   0  0  2  0  0  4  0  0  0  0  0  0
    8.7736   15.4510   19.3644 O   0  0  0  0  0  0  0  0  0  0  0  0
   11.3435   15.6891   18.6516 C   0  0  2  0  0  0  0  0  0  0  0  0
   11.2464   14.3713   18.1245 N   0  0  0  0  0  0  0  0  0  0  0  0
   12.1343   15.4024   19.8211 N   0  0  0  0  0  0  0  0  0  0  0  0
   10.2003   14.3417   23.5338 C   0  0  0  0  0  0  0  0  0  0  0  0
    9.3209   14.9871   22.9462 O   0  0  0  0  0  0  0  0  0  0  0  0
    8.0653   11.7969   25.2958 C   0  0  0  0  0  0  0  0  0  0  0  0
    7.1062   12.3211   26.1685 C   0  0  0  0  0  0  0  0  0  0  0  0
    6.1531   11.4671   26.7018 C   0  0  0  0  0  0  0  0  0  0  0  0
    4.9628   12.1440   27.7280 Cl  0  0  0  0  0  0  0  0  0  0  0  0
    6.1674   10.1060   26.4251 C   0  0  0  0  0  0  0  0  0  0  0  0
    7.1274    9.5723   25.5631 C   0  0  0  0  0  0  0  0  0  0  0  0
    8.0521   10.4426   24.9889 C   0  0  0  0  0  0  0  0  0  0  0  0
  1  2  1  0
  2  3  1  0
  3  4  2  0
  4  5  1  0
  5  6  1  1
  5  7  1  0
  7  8  1  0
  8  9  1  0
  9 10  1  0
 10 11  1  0
 11 12  1  0
 12 13  1  0
 14 13  1  1
 14 15  1  0
 15 16  1  0
 16 17  1  1
 16 18  1  0
 18 19  1  1
 18 20  1  0
 12 21  1  0
 21 22  2  0
  4 23  1  0
 23 24  2  0
 24 25  1  0
 25 26  1  0
 25 27  2  0
 27 28  1  0
 28 29  2  0
 29  2  1  0
 21  5  1  0
 29 23  1  0
 20 14  1  0
M  END
>  <ref_pdb>  (98) 
A3305a

>  <tags>  (98) 
{'fragmenstein_placed', 'openbind_a71ev2a_c1_fragmenstein'}

>  <distance_score>  (98) 
0.958542

>  <energy_score>  (98) 
-95.98974

>  <inchikey>  (98) 
FDGRSYLWCHGFJP-UHFFFAOYSA-N

>  <alias>  (98) 
Cn1nc([C@@]2(O)NCCCCN(C[C@H]3C[S@H](O)[C@H](N)N3)C2=O)c2cc(Cl)ccc21

>  <smiles>  (98) 
C263482-P168

>  <HIPPO Pose ID>  (98) 
52296

>  <ref_mols>  (98) 
A3306a,A4519b

>  <HIPPO Compound ID>  (98) 
264727

$$$$
Cn1nc(C2=NC(=O)N(C[C@@H]3C[S@@H](O)[C@@H](N)N3)CCCCN2)c2cc(C(=O)Nc3ccncc3)ccc21
     RDKit          3D

 37 41  0  0  0  0  0  0  0  0999 V2000
    9.3330    8.4914   23.2228 C   0  0  0  0  0  0  0  0  0  0  0  0
    9.2554    9.7348   23.9473 N   0  0  0  0  0  0  0  0  0  0  0  0
   10.1492   10.6814   23.6563 N   0  0  0  0  0  0  0  0  0  0  0  0
    9.7878   11.7391   24.3872 C   0  0  0  0  0  0  0  0  0  0  0  0
   10.4853   13.0095   24.2684 C   0  0  0  0  0  0  0  0  0  0  0  0
    9.7886   14.0430   24.6018 N   0  0  0  0  0  0  0  0  0  0  0  0
   10.2596   15.0751   23.8787 C   0  0  0  0  0  0  0  0  0  0  0  0
   11.3656   15.5367   24.1317 O   0  0  0  0  0  0  0  0  0  0  0  0
    9.4860   15.3535   22.7592 N   0  0  0  0  0  0  0  0  0  0  0  0
    8.1434   14.7873   22.5667 C   0  0  0  0  0  0  0  0  0  0  0  0
    7.0233   15.6351   23.2108 C   0  0  2  0  0  0  0  0  0  0  0  0
    7.1810   15.8603   24.7204 C   0  0  0  0  0  0  0  0  0  0  0  0
    5.5579   15.9015   25.3650 S   0  0  1  0  0  4  0  0  0  0  0  0
    5.0694   17.3996   24.9599 O   0  0  0  0  0  0  0  0  0  0  0  0
    4.9121   14.8812   24.1016 C   0  0  1  0  0  0  0  0  0  0  0  0
    3.5579   15.1254   23.6911 N   0  0  0  0  0  0  0  0  0  0  0  0
    5.6916   15.0357   22.8919 N   0  0  0  0  0  0  0  0  0  0  0  0
   10.1029   16.0309   21.6232 C   0  0  0  0  0  0  0  0  0  0  0  0
   10.9580   15.0910   20.7855 C   0  0  0  0  0  0  0  0  0  0  0  0
   12.1304   14.4451   21.5438 C   0  0  0  0  0  0  0  0  0  0  0  0
   11.7637   13.1079   22.2094 C   0  0  0  0  0  0  0  0  0  0  0  0
   11.7507   13.0242   23.6806 N   0  0  0  0  0  0  0  0  0  0  0  0
    8.6099   11.4596   25.1441 C   0  0  0  0  0  0  0  0  0  0  0  0
    7.7585   12.1750   26.0157 C   0  0  0  0  0  0  0  0  0  0  0  0
    6.6587   11.5352   26.6048 C   0  0  0  0  0  0  0  0  0  0  0  0
    5.6916   12.2738   27.4747 C   0  0  0  0  0  0  0  0  0  0  0  0
    4.5548   12.0133   27.3945 O   0  0  0  0  0  0  0  0  0  0  0  0
    6.4296   13.2764   28.3981 N   0  0  0  0  0  0  0  0  0  0  0  0
    5.9301   14.1995   29.3127 C   0  0  0  0  0  0  0  0  0  0  0  0
    6.8283   14.9773   30.0371 C   0  0  0  0  0  0  0  0  0  0  0  0
    6.3160   15.8870   30.9471 C   0  0  0  0  0  0  0  0  0  0  0  0
    4.9978   16.0637   31.1700 N   0  0  0  0  0  0  0  0  0  0  0  0
    4.1523   15.3004   30.4442 C   0  0  0  0  0  0  0  0  0  0  0  0
    4.5655   14.3616   29.5140 C   0  0  0  0  0  0  0  0  0  0  0  0
    6.4278   10.1862   26.3556 C   0  0  0  0  0  0  0  0  0  0  0  0
    7.2677    9.4715   25.5007 C   0  0  0  0  0  0  0  0  0  0  0  0
    8.3280   10.1280   24.8784 C   0  0  0  0  0  0  0  0  0  0  0  0
  1  2  1  0
  2  3  1  0
  3  4  2  0
  4  5  1  0
  5  6  2  3
  6  7  1  0
  7  8  2  0
  7  9  1  0
  9 10  1  0
 11 10  1  1
 11 12  1  0
 12 13  1  0
 13 14  1  6
 13 15  1  0
 15 16  1  6
 15 17  1  0
  9 18  1  0
 18 19  1  0
 19 20  1  0
 20 21  1  0
 21 22  1  0
  4 23  1  0
 23 24  2  0
 24 25  1  0
 25 26  1  0
 26 27  2  0
 26 28  1  0
 28 29  1  0
 29 30  2  0
 30 31  1  0
 31 32  2  0
 32 33  1  0
 33 34  2  0
 25 35  2  0
 35 36  1  0
 36 37  2  0
 37  2  1  0
 22  5  1  0
 37 23  1  0
 17 11  1  0
 34 29  1  0
M  END
>  <ref_pdb>  (99) 
A3305a

>  <tags>  (99) 
{'fragmenstein_placed', 'openbind_a71ev2a_c1_fragmenstein'}

>  <distance_score>  (99) 
0.736969

>  <energy_score>  (99) 
-90.175907

>  <inchikey>  (99) 
QHSCXGMDNOKEGD-UHFFFAOYSA-N

>  <alias>  (99) 
Cn1nc(C2=NC(=O)N(C[C@@H]3C[S@@H](O)[C@@H](N)N3)CCCCN2)c2cc(C(=O)Nc3ccncc3)ccc21

>  <smiles>  (99) 
C263575-P168

>  <HIPPO Pose ID>  (99) 
52339

>  <ref_mols>  (99) 
A3306a,A4877b

>  <HIPPO Compound ID>  (99) 
138541

$$$$
Cc1cc2c(cc1Nc1ccn(C)n1)c(C(=O)NCCc1ccc(S(C)(=O)=O)cc1)nn2C
     RDKit          3D

 33 36  0  0  0  0  0  0  0  0999 V2000
    5.0844    9.3216   27.1628 C   0  0  0  0  0  0  0  0  0  0  0  0
    6.1507   10.1963   26.5563 C   0  0  0  0  0  0  0  0  0  0  0  0
    7.0544    9.5894   25.6504 C   0  0  0  0  0  0  0  0  0  0  0  0
    8.0683   10.3532   25.0708 C   0  0  0  0  0  0  0  0  0  0  0  0
    8.2416   11.6763   25.4359 C   0  0  0  0  0  0  0  0  0  0  0  0
    7.3492   12.2731   26.3359 C   0  0  0  0  0  0  0  0  0  0  0  0
    6.2823   11.5566   26.8940 C   0  0  0  0  0  0  0  0  0  0  0  0
    5.3191   12.2181   27.6976 N   0  0  0  0  0  0  0  0  0  0  0  0
    5.0223   13.5430   27.7416 C   0  0  0  0  0  0  0  0  0  0  0  0
    4.0975   14.0834   28.6702 C   0  0  0  0  0  0  0  0  0  0  0  0
    4.0479   15.4333   28.4012 C   0  0  0  0  0  0  0  0  0  0  0  0
    4.9075   15.6303   27.3622 N   0  0  0  0  0  0  0  0  0  0  0  0
    5.2248   16.8744   26.7004 C   0  0  0  0  0  0  0  0  0  0  0  0
    5.5001   14.5043   26.9499 N   0  0  0  0  0  0  0  0  0  0  0  0
    9.4295   12.0824   24.8047 C   0  0  0  0  0  0  0  0  0  0  0  0
   10.1764   13.3239   25.0555 C   0  0  0  0  0  0  0  0  0  0  0  0
    9.8014   14.1510   25.7793 O   0  0  0  0  0  0  0  0  0  0  0  0
   11.4542   13.2363   24.2339 N   0  0  0  0  0  0  0  0  0  0  0  0
   12.5020   14.1818   24.0486 C   0  0  0  0  0  0  0  0  0  0  0  0
   12.7359   14.3806   22.5664 C   0  0  0  0  0  0  0  0  0  0  0  0
   11.5898   14.8137   21.7029 C   0  0  0  0  0  0  0  0  0  0  0  0
   10.3838   15.3480   22.1888 C   0  0  0  0  0  0  0  0  0  0  0  0
    9.4575   15.9360   21.3405 C   0  0  0  0  0  0  0  0  0  0  0  0
    9.7738   15.9384   20.0061 C   0  0  0  0  0  0  0  0  0  0  0  0
    9.1732   17.1279   18.9129 S   0  0  0  0  0  0  0  0  0  0  0  0
    8.0337   18.2613   19.4846 C   0  0  0  0  0  0  0  0  0  0  0  0
    8.5439   16.3692   17.8519 O   0  0  0  0  0  0  0  0  0  0  0  0
   10.3641   17.9267   18.7532 O   0  0  0  0  0  0  0  0  0  0  0  0
   10.8852   15.2601   19.4776 C   0  0  0  0  0  0  0  0  0  0  0  0
   11.8087   14.7213   20.3313 C   0  0  0  0  0  0  0  0  0  0  0  0
    9.9025   11.1272   23.9774 N   0  0  0  0  0  0  0  0  0  0  0  0
    9.0504   10.0973   24.1439 N   0  0  0  0  0  0  0  0  0  0  0  0
    9.2894    8.8876   23.3898 C   0  0  0  0  0  0  0  0  0  0  0  0
  1  2  1  0
  2  3  2  0
  3  4  1  0
  4  5  2  0
  5  6  1  0
  6  7  2  0
  7  8  1  0
  8  9  1  0
  9 10  1  0
 10 11  2  0
 11 12  1  0
 12 13  1  0
 12 14  1  0
  5 15  1  0
 15 16  1  0
 16 17  2  0
 16 18  1  0
 18 19  1  0
 19 20  1  0
 20 21  1  0
 21 22  2  0
 22 23  1  0
 23 24  2  0
 24 25  1  0
 25 26  1  0
 25 27  2  0
 25 28  2  0
 24 29  1  0
 29 30  2  0
 15 31  2  0
 31 32  1  0
 32 33  1  0
  7  2  1  0
 14  9  2  0
 30 21  1  0
 32  4  1  0
M  END
>  <ref_pdb>  (100) 
A3305a

>  <tags>  (100) 
{'fragmenstein_placed', 'openbind_a71ev2a_c1_fragmenstein'}

>  <distance_score>  (100) 
0.999119

>  <energy_score>  (100) 
-39.810274

>  <inchikey>  (100) 
JTCJLGZQLBXCSL-UHFFFAOYSA-N

>  <alias>  (100) 
Cc1cc2c(cc1Nc1ccn(C)n1)c(C(=O)NCCc1ccc(S(C)(=O)=O)cc1)nn2C

>  <smiles>  (100) 
C263648-P168

>  <HIPPO Pose ID>  (100) 
52375

>  <ref_mols>  (100) 
A3306a,A5283b

>  <HIPPO Compound ID>  (100) 
178840

$$$$
Cn1nc2c3c(cc(Br)cc31)C(=O)N1C[C@@H]([C@@](N)(O)c3ccc(S(C)(=O)=O)cc3)[C@H]3C[C@]1(C)[C@@H]2N3
     RDKit          3D

 35 40  0  0  0  0  0  0  0  0999 V2000
    9.4904    8.4226   23.0054 C   0  0  0  0  0  0  0  0  0  0  0  0
    9.6416    9.7433   23.5398 N   0  0  0  0  0  0  0  0  0  0  0  0
   10.6830   10.4450   23.1032 N   0  0  0  0  0  0  0  0  0  0  0  0
   10.4039   11.7005   23.4171 C   0  0  0  0  0  0  0  0  0  0  0  0
    9.1630   11.7825   24.0456 C   0  0  0  0  0  0  0  0  0  0  0  0
    8.3318   12.8373   24.3869 C   0  0  0  0  0  0  0  0  0  0  0  0
    7.3031   12.5956   25.2998 C   0  0  0  0  0  0  0  0  0  0  0  0
    7.0906   11.2968   25.7723 C   0  0  0  0  0  0  0  0  0  0  0  0
    5.7923   11.0025   27.1161 Br  0  0  0  0  0  0  0  0  0  0  0  0
    7.7654   10.1930   25.2276 C   0  0  0  0  0  0  0  0  0  0  0  0
    8.8064   10.4758   24.3423 C   0  0  0  0  0  0  0  0  0  0  0  0
    8.3745   13.9663   23.4364 C   0  0  0  0  0  0  0  0  0  0  0  0
    7.3020   14.2273   22.8969 O   0  0  0  0  0  0  0  0  0  0  0  0
    9.6016   14.5019   23.0261 N   0  0  0  0  0  0  0  0  0  0  0  0
    9.6351   15.2131   21.7451 C   0  0  0  0  0  0  0  0  0  0  0  0
   10.7004   14.5891   20.7988 C   0  0  1  0  0  0  0  0  0  0  0  0
   10.9578   15.4315   19.5348 C   0  0  1  0  0  0  0  0  0  0  0  0
   11.2753   14.5240   18.4495 N   0  0  0  0  0  0  0  0  0  0  0  0
    9.6918   15.9692   19.2023 O   0  0  0  0  0  0  0  0  0  0  0  0
   11.9640   16.5835   19.5875 C   0  0  0  0  0  0  0  0  0  0  0  0
   13.2102   16.5231   18.9235 C   0  0  0  0  0  0  0  0  0  0  0  0
   13.9718   17.6670   18.6719 C   0  0  0  0  0  0  0  0  0  0  0  0
   13.5147   18.8937   19.1233 C   0  0  0  0  0  0  0  0  0  0  0  0
   14.2574   20.3901   18.5380 S   0  0  0  0  0  0  0  0  0  0  0  0
   14.3961   20.1800   16.7819 C   0  0  0  0  0  0  0  0  0  0  0  0
   13.3113   21.4709   18.7654 O   0  0  0  0  0  0  0  0  0  0  0  0
   15.5943   20.4660   19.0918 O   0  0  0  0  0  0  0  0  0  0  0  0
   12.3803   18.9578   19.9239 C   0  0  0  0  0  0  0  0  0  0  0  0
   11.6142   17.8086   20.1582 C   0  0  0  0  0  0  0  0  0  0  0  0
   12.0045   14.1965   21.5079 C   0  0  1  0  0  0  0  0  0  0  0  0
   12.0432   14.9227   22.8193 C   0  0  0  0  0  0  0  0  0  0  0  0
   10.9392   14.2007   23.6129 C   0  0  1  0  0  0  0  0  0  0  0  0
   10.9820   14.5429   25.1029 C   0  0  0  0  0  0  0  0  0  0  0  0
   11.4174   12.7697   23.3060 C   0  0  2  0  0  0  0  0  0  0  0  0
   12.0471   12.8218   21.9852 N   0  0  0  0  0  0  0  0  0  0  0  0
  1  2  1  0
  2  3  1  0
  3  4  2  0
  4  5  1  0
  5  6  2  0
  6  7  1  0
  7  8  2  0
  8  9  1  0
  8 10  1  0
 10 11  2  0
  6 12  1  0
 12 13  2  0
 12 14  1  0
 14 15  1  0
 16 15  1  1
 16 17  1  0
 17 18  1  6
 17 19  1  0
 17 20  1  0
 20 21  2  0
 21 22  1  0
 22 23  2  0
 23 24  1  0
 24 25  1  0
 24 26  2  0
 24 27  2  0
 23 28  1  0
 28 29  2  0
 16 30  1  0
 30 31  1  0
 31 32  1  0
 32 33  1  1
 32 34  1  0
 34 35  1  6
 11  2  1  0
 32 14  1  0
 34  4  1  0
 11  5  1  0
 29 20  1  0
 30 35  1  1
M  END
>  <ref_pdb>  (101) 
A3305a

>  <tags>  (101) 
{'fragmenstein_placed', 'openbind_a71ev2a_c1_fragmenstein'}

>  <distance_score>  (101) 
0.914629

>  <energy_score>  (101) 
-98.28886

>  <inchikey>  (101) 
AVKHALQBENFZAB-UHFFFAOYSA-N

>  <alias>  (101) 
Cn1nc2c3c(cc(Br)cc31)C(=O)N1C[C@@H]([C@@](N)(O)c3ccc(S(C)(=O)=O)cc3)[C@H]3C[C@]1(C)[C@@H]2N3

>  <smiles>  (101) 
C263868-P169

>  <HIPPO Pose ID>  (101) 
52472

>  <ref_mols>  (101) 
A3324a,A4331b,A4333a

>  <HIPPO Compound ID>  (101) 
263490

$$$$
Cn1nc2c3c(cc(Br)cc31)C(=O)NC[C@H]1C(=O)[C@H](c3ccc(S(C)(=O)=O)cc3)CN[C@H]21
     RDKit          3D

 32 36  0  0  0  0  0  0  0  0999 V2000
    9.9553    8.6106   22.9832 C   0  0  0  0  0  0  0  0  0  0  0  0
    9.7309   10.0022   23.2781 N   0  0  0  0  0  0  0  0  0  0  0  0
   10.3765   10.9257   22.5502 N   0  0  0  0  0  0  0  0  0  0  0  0
   10.0586   12.1066   23.0960 C   0  0  0  0  0  0  0  0  0  0  0  0
    9.0885   11.9009   24.1114 C   0  0  0  0  0  0  0  0  0  0  0  0
    8.3367   12.7420   24.9344 C   0  0  0  0  0  0  0  0  0  0  0  0
    7.3935   12.2657   25.8284 C   0  0  0  0  0  0  0  0  0  0  0  0
    7.2006   10.8939   25.8762 C   0  0  0  0  0  0  0  0  0  0  0  0
    5.8822   10.1977   27.0164 Br  0  0  0  0  0  0  0  0  0  0  0  0
    7.9325   10.0020   25.0787 C   0  0  0  0  0  0  0  0  0  0  0  0
    8.8749   10.5378   24.1977 C   0  0  0  0  0  0  0  0  0  0  0  0
    8.6208   14.1334   24.6933 C   0  0  0  0  0  0  0  0  0  0  0  0
    9.5620   14.6162   25.3072 O   0  0  0  0  0  0  0  0  0  0  0  0
    8.0134   14.5824   23.5399 N   0  0  0  0  0  0  0  0  0  0  0  0
    8.8249   15.2591   22.5543 C   0  0  0  0  0  0  0  0  0  0  0  0
    9.6446   14.2543   21.7209 C   0  0  1  0  0  0  0  0  0  0  0  0
   10.3199   15.0474   20.6112 C   0  0  0  0  0  0  0  0  0  0  0  0
    9.6663   15.4306   19.6419 O   0  0  0  0  0  0  0  0  0  0  0  0
   11.7426   15.4320   20.8695 C   0  0  2  0  0  0  0  0  0  0  0  0
   12.4952   16.3054   19.8870 C   0  0  0  0  0  0  0  0  0  0  0  0
   12.5534   16.1401   18.5069 C   0  0  0  0  0  0  0  0  0  0  0  0
   13.3204   17.0225   17.7223 C   0  0  0  0  0  0  0  0  0  0  0  0
   14.0239   18.0713   18.3182 C   0  0  0  0  0  0  0  0  0  0  0  0
   14.9977   19.2084   17.3912 S   0  0  0  0  0  0  0  0  0  0  0  0
   15.8887   18.1962   16.2670 C   0  0  0  0  0  0  0  0  0  0  0  0
   14.1269   20.0946   16.6468 O   0  0  0  0  0  0  0  0  0  0  0  0
   16.0031   19.7713   18.2821 O   0  0  0  0  0  0  0  0  0  0  0  0
   14.0350   18.1988   19.6896 C   0  0  0  0  0  0  0  0  0  0  0  0
   13.2960   17.3040   20.4424 C   0  0  0  0  0  0  0  0  0  0  0  0
   12.5325   14.1721   21.1410 C   0  0  0  0  0  0  0  0  0  0  0  0
   11.9081   13.1016   21.8993 N   0  0  0  0  0  0  0  0  0  0  0  0
   10.6582   13.4383   22.5768 C   0  0  2  0  0  0  0  0  0  0  0  0
  1  2  1  0
  2  3  1  0
  3  4  2  0
  4  5  1  0
  5  6  2  0
  6  7  1  0
  7  8  2  0
  8  9  1  0
  8 10  1  0
 10 11  2  0
  6 12  1  0
 12 13  2  0
 12 14  1  0
 14 15  1  0
 16 15  1  1
 16 17  1  0
 17 18  2  0
 17 19  1  0
 19 20  1  6
 20 21  2  0
 21 22  1  0
 22 23  2  0
 23 24  1  0
 24 25  1  0
 24 26  2  0
 24 27  2  0
 23 28  1  0
 28 29  2  0
 19 30  1  0
 30 31  1  0
 32 31  1  6
 11  2  1  0
 32 16  1  0
 32  4  1  0
 11  5  1  0
 29 20  1  0
M  END
>  <ref_pdb>  (102) 
A3305a

>  <tags>  (102) 
{'fragmenstein_placed', 'openbind_a71ev2a_c1_fragmenstein'}

>  <distance_score>  (102) 
0.891861

>  <energy_score>  (102) 
-44.49524

>  <inchikey>  (102) 
WITUBHADCVVDIK-UHFFFAOYSA-N

>  <alias>  (102) 
Cn1nc2c3c(cc(Br)cc31)C(=O)NC[C@H]1C(=O)[C@H](c3ccc(S(C)(=O)=O)cc3)CN[C@H]21

>  <smiles>  (102) 
C263876-P169

>  <HIPPO Pose ID>  (102) 
52481

>  <ref_mols>  (102) 
A4347a,A3324a,A4346a

>  <HIPPO Compound ID>  (102) 
267809

$$$$
CCc1cccc(OC)c1NC(O)(O)N1CC[C@H](O)[C@]2(CN(O)NN2)C1
     RDKit          3D

 26 28  0  0  0  0  0  0  0  0999 V2000
    9.1166    8.8738   23.3594 C   0  0  0  0  0  0  0  0  0  0  0  0
    8.9186   10.3324   23.7328 C   0  0  0  0  0  0  0  0  0  0  0  0
    7.8177   10.7165   24.7134 C   0  0  0  0  0  0  0  0  0  0  0  0
    7.0024    9.7590   25.3097 C   0  0  0  0  0  0  0  0  0  0  0  0
    5.9382   10.1071   26.1447 C   0  0  0  0  0  0  0  0  0  0  0  0
    5.6377   11.4435   26.3694 C   0  0  0  0  0  0  0  0  0  0  0  0
    6.4308   12.4266   25.7865 C   0  0  0  0  0  0  0  0  0  0  0  0
    6.2002   13.7568   26.0537 O   0  0  0  0  0  0  0  0  0  0  0  0
    4.9021   14.1645   25.6084 C   0  0  0  0  0  0  0  0  0  0  0  0
    7.5655   12.0723   25.0257 C   0  0  0  0  0  0  0  0  0  0  0  0
    8.5012   13.0380   24.6505 N   0  0  0  0  0  0  0  0  0  0  0  0
    8.2891   13.9266   23.5539 C   0  0  0  0  0  0  0  0  0  0  0  0
    7.3633   13.3713   22.6606 O   0  0  0  0  0  0  0  0  0  0  0  0
    7.7040   15.0679   24.0953 O   0  0  0  0  0  0  0  0  0  0  0  0
    9.5144   14.2320   22.8561 N   0  0  0  0  0  0  0  0  0  0  0  0
   10.5856   14.6304   23.7852 C   0  0  0  0  0  0  0  0  0  0  0  0
   11.9078   14.7712   23.0415 C   0  0  0  0  0  0  0  0  0  0  0  0
   11.7712   15.8641   21.9996 C   0  0  2  0  0  0  0  0  0  0  0  0
   11.5131   17.0382   22.7689 O   0  0  0  0  0  0  0  0  0  0  0  0
   10.6209   15.5494   21.0248 C   0  0  1  0  0  0  0  0  0  0  0  0
   10.3980   16.6811   20.0298 C   0  0  0  0  0  0  0  0  0  0  0  0
   10.8613   16.2080   18.7157 N   0  0  0  0  0  0  0  0  0  0  0  0
    9.6382   15.8546   18.0241 O   0  0  0  0  0  0  0  0  0  0  0  0
   11.5865   15.0308   19.0162 N   0  0  0  0  0  0  0  0  0  0  0  0
   10.9407   14.4551   20.1290 N   0  0  0  0  0  0  0  0  0  0  0  0
    9.3236   15.2572   21.8126 C   0  0  0  0  0  0  0  0  0  0  0  0
  1  2  1  0
  2  3  1  0
  3  4  2  0
  4  5  1  0
  5  6  2  0
  6  7  1  0
  7  8  1  0
  8  9  1  0
  7 10  2  0
 10 11  1  0
 11 12  1  0
 12 13  1  0
 12 14  1  0
 12 15  1  0
 15 16  1  0
 16 17  1  0
 17 18  1  0
 18 19  1  1
 18 20  1  0
 20 21  1  6
 21 22  1  0
 22 23  1  0
 22 24  1  0
 24 25  1  0
 20 26  1  0
 10  3  1  0
 26 15  1  0
 25 20  1  0
M  END
>  <ref_pdb>  (103) 
A3305a

>  <tags>  (103) 
{'fragmenstein_placed', 'openbind_a71ev2a_c1_fragmenstein'}

>  <distance_score>  (103) 
0.976664

>  <energy_score>  (103) 
-79.204241

>  <inchikey>  (103) 
GVLDBCFRTQTATH-UHFFFAOYSA-N

>  <alias>  (103) 
CCc1cccc(OC)c1NC(O)(O)N1CC[C@H](O)[C@]2(CN(O)NN2)C1

>  <smiles>  (103) 
C264613-P173

>  <HIPPO Pose ID>  (103) 
53248

>  <ref_mols>  (103) 
A0501a,A3587a

>  <HIPPO Compound ID>  (103) 
265528

$$$$
C[C@@H](Cc1cocn1)NC(=O)c1nn(C)c2ccc(C(C)(C)CO)cc12
     RDKit          3D

 26 28  0  0  0  0  0  0  0  0999 V2000
   10.0268   15.6190   20.4075 C   0  0  0  0  0  0  0  0  0  0  0  0
   11.1149   14.6768   20.9143 C   0  0  1  0  0  0  0  0  0  0  0  0
   12.2985   15.4033   21.5507 C   0  0  0  0  0  0  0  0  0  0  0  0
   13.0302   16.2772   20.5990 C   0  0  0  0  0  0  0  0  0  0  0  0
   13.7391   17.4294   20.8409 C   0  0  0  0  0  0  0  0  0  0  0  0
   14.1749   17.9255   19.6498 O   0  0  0  0  0  0  0  0  0  0  0  0
   13.7178   17.0194   18.7398 C   0  0  0  0  0  0  0  0  0  0  0  0
   13.0515   16.0109   19.2513 N   0  0  0  0  0  0  0  0  0  0  0  0
   10.5610   13.6716   21.8117 N   0  0  0  0  0  0  0  0  0  0  0  0
    9.6985   13.8270   23.0788 C   0  0  0  0  0  0  0  0  0  0  0  0
    9.3587   14.7862   23.6492 O   0  0  0  0  0  0  0  0  0  0  0  0
    9.2306   12.4745   23.5037 C   0  0  0  0  0  0  0  0  0  0  0  0
    9.6992   11.3546   22.9156 N   0  0  0  0  0  0  0  0  0  0  0  0
    9.0245   10.3492   23.5023 N   0  0  0  0  0  0  0  0  0  0  0  0
    9.2707    8.9925   23.0687 C   0  0  0  0  0  0  0  0  0  0  0  0
    8.1277   10.7636   24.4515 C   0  0  0  0  0  0  0  0  0  0  0  0
    7.2277   10.0693   25.2644 C   0  0  0  0  0  0  0  0  0  0  0  0
    6.4049   10.8135   26.1216 C   0  0  0  0  0  0  0  0  0  0  0  0
    6.4651   12.2153   26.1869 C   0  0  0  0  0  0  0  0  0  0  0  0
    5.5406   13.0547   27.0979 C   0  0  0  0  0  0  0  0  0  0  0  0
    4.5903   12.1946   27.9657 C   0  0  0  0  0  0  0  0  0  0  0  0
    6.4049   13.8817   28.0791 C   0  0  0  0  0  0  0  0  0  0  0  0
    4.6761   14.0141   26.2252 C   0  0  0  0  0  0  0  0  0  0  0  0
    3.7709   14.7797   27.0220 O   0  0  0  0  0  0  0  0  0  0  0  0
    7.4057   12.8737   25.3597 C   0  0  0  0  0  0  0  0  0  0  0  0
    8.2399   12.1493   24.4818 C   0  0  0  0  0  0  0  0  0  0  0  0
  2  1  1  1
  2  3  1  0
  3  4  1  0
  4  5  2  0
  5  6  1  0
  6  7  1  0
  7  8  2  0
  2  9  1  0
  9 10  1  0
 10 11  2  0
 10 12  1  0
 12 13  2  0
 13 14  1  0
 14 15  1  0
 14 16  1  0
 16 17  2  0
 17 18  1  0
 18 19  2  0
 19 20  1  0
 20 21  1  0
 20 22  1  0
 20 23  1  0
 23 24  1  0
 19 25  1  0
 25 26  2  0
  8  4  1  0
 26 12  1  0
 26 16  1  0
M  END
>  <ref_pdb>  (104) 
A3305a

>  <tags>  (104) 
{'fragmenstein_placed', 'openbind_a71ev2a_c1_fragmenstein'}

>  <distance_score>  (104) 
0.79751

>  <energy_score>  (104) 
-45.926396

>  <inchikey>  (104) 
BUXRHGQNVCOJAV-UHFFFAOYSA-N

>  <alias>  (104) 
C[C@@H](Cc1cocn1)NC(=O)c1nn(C)c2ccc(C(C)(C)CO)cc12

>  <smiles>  (104) 
C191851-P174

>  <HIPPO Pose ID>  (104) 
53454

>  <ref_mols>  (104) 
A3556a,A3371a

>  <HIPPO Compound ID>  (104) 
264844

$$$$
C[C@H](Cc1cocn1)NC(=O)c1nn(C)c2ccc(-c3ccccc3)cc12
     RDKit          3D

 27 30  0  0  0  0  0  0  0  0999 V2000
   10.0980   15.2442   20.2281 C   0  0  0  0  0  0  0  0  0  0  0  0
   10.8765   15.0578   21.5275 C   0  0  2  0  0  0  0  0  0  0  0  0
   12.3862   14.8909   21.3107 C   0  0  0  0  0  0  0  0  0  0  0  0
   12.9969   15.9759   20.5060 C   0  0  0  0  0  0  0  0  0  0  0  0
   13.6131   17.1400   20.8979 C   0  0  0  0  0  0  0  0  0  0  0  0
   13.9808   17.8282   19.7803 O   0  0  0  0  0  0  0  0  0  0  0  0
   13.5761   17.0194   18.7600 C   0  0  0  0  0  0  0  0  0  0  0  0
   12.9961   15.9035   19.1354 N   0  0  0  0  0  0  0  0  0  0  0  0
   10.3357   13.9140   22.2375 N   0  0  0  0  0  0  0  0  0  0  0  0
    9.4334   13.8450   23.4793 C   0  0  0  0  0  0  0  0  0  0  0  0
    9.0422   14.6925   24.1770 O   0  0  0  0  0  0  0  0  0  0  0  0
    9.0734   12.4279   23.7247 C   0  0  0  0  0  0  0  0  0  0  0  0
    9.6825   11.4233   23.0603 N   0  0  0  0  0  0  0  0  0  0  0  0
    9.0675   10.3094   23.4982 N   0  0  0  0  0  0  0  0  0  0  0  0
    9.4100    9.0254   22.9279 C   0  0  0  0  0  0  0  0  0  0  0  0
    8.1213   10.5480   24.4584 C   0  0  0  0  0  0  0  0  0  0  0  0
    7.2919    9.6892   25.1737 C   0  0  0  0  0  0  0  0  0  0  0  0
    6.3508   10.2522   26.0354 C   0  0  0  0  0  0  0  0  0  0  0  0
    6.2316   11.6394   26.1938 C   0  0  0  0  0  0  0  0  0  0  0  0
    5.1459   12.1977   27.0153 C   0  0  0  0  0  0  0  0  0  0  0  0
    4.2971   13.1929   26.4987 C   0  0  0  0  0  0  0  0  0  0  0  0
    3.2308   13.6991   27.2464 C   0  0  0  0  0  0  0  0  0  0  0  0
    2.9941   13.2194   28.5312 C   0  0  0  0  0  0  0  0  0  0  0  0
    3.8243   12.2373   29.0670 C   0  0  0  0  0  0  0  0  0  0  0  0
    4.8896   11.7313   28.3154 C   0  0  0  0  0  0  0  0  0  0  0  0
    7.1257   12.4786   25.4960 C   0  0  0  0  0  0  0  0  0  0  0  0
    8.0770   11.9265   24.6121 C   0  0  0  0  0  0  0  0  0  0  0  0
  2  1  1  6
  2  3  1  0
  3  4  1  0
  4  5  2  0
  5  6  1  0
  6  7  1  0
  7  8  2  0
  2  9  1  0
  9 10  1  0
 10 11  2  0
 10 12  1  0
 12 13  2  0
 13 14  1  0
 14 15  1  0
 14 16  1  0
 16 17  2  0
 17 18  1  0
 18 19  2  0
 19 20  1  0
 20 21  2  0
 21 22  1  0
 22 23  2  0
 23 24  1  0
 24 25  2  0
 19 26  1  0
 26 27  2  0
  8  4  1  0
 27 12  1  0
 27 16  1  0
 25 20  1  0
M  END
>  <ref_pdb>  (105) 
A3305a

>  <tags>  (105) 
{'fragmenstein_placed', 'openbind_a71ev2a_c1_fragmenstein'}

>  <distance_score>  (105) 
0.783573

>  <energy_score>  (105) 
-21.653343

>  <inchikey>  (105) 
XBEQBBOLHOEXMN-UHFFFAOYSA-N

>  <alias>  (105) 
C[C@H](Cc1cocn1)NC(=O)c1nn(C)c2ccc(-c3ccccc3)cc12

>  <smiles>  (105) 
C191859-P174

>  <HIPPO Pose ID>  (105) 
53455

>  <ref_mols>  (105) 
A3371a,A3883a

>  <HIPPO Compound ID>  (105) 
266929

$$$$
C[C@H](Cc1cocn1)NC(=O)c1nn(C)c2ccc(CNO)cc12
     RDKit          3D

 24 26  0  0  0  0  0  0  0  0999 V2000
   10.0330   15.3502   20.3988 C   0  0  0  0  0  0  0  0  0  0  0  0
   10.9001   15.0854   21.6275 C   0  0  2  0  0  0  0  0  0  0  0  0
   12.3825   14.8715   21.3010 C   0  0  0  0  0  0  0  0  0  0  0  0
   12.9834   15.9632   20.4994 C   0  0  0  0  0  0  0  0  0  0  0  0
   13.6138   17.1184   20.8958 C   0  0  0  0  0  0  0  0  0  0  0  0
   13.9713   17.8160   19.7808 O   0  0  0  0  0  0  0  0  0  0  0  0
   13.5460   17.0213   18.7577 C   0  0  0  0  0  0  0  0  0  0  0  0
   12.9592   15.9075   19.1287 N   0  0  0  0  0  0  0  0  0  0  0  0
   10.3695   13.9413   22.3445 N   0  0  0  0  0  0  0  0  0  0  0  0
    9.4047   13.8710   23.5382 C   0  0  0  0  0  0  0  0  0  0  0  0
    8.9414   14.7215   24.1861 O   0  0  0  0  0  0  0  0  0  0  0  0
    9.0516   12.4505   23.7790 C   0  0  0  0  0  0  0  0  0  0  0  0
    9.6429   11.4515   23.0896 N   0  0  0  0  0  0  0  0  0  0  0  0
    9.0362   10.3336   23.5315 N   0  0  0  0  0  0  0  0  0  0  0  0
    9.3804    9.0518   22.9559 C   0  0  0  0  0  0  0  0  0  0  0  0
    8.1010   10.5660   24.5049 C   0  0  0  0  0  0  0  0  0  0  0  0
    7.2714    9.7030   25.2185 C   0  0  0  0  0  0  0  0  0  0  0  0
    6.3565   10.2560   26.1140 C   0  0  0  0  0  0  0  0  0  0  0  0
    6.2724   11.6385   26.3030 C   0  0  0  0  0  0  0  0  0  0  0  0
    5.1977   12.2087   27.2024 C   0  0  0  0  0  0  0  0  0  0  0  0
    4.3649   13.1690   26.4685 N   0  0  0  0  0  0  0  0  0  0  0  0
    3.0447   13.1240   27.0731 O   0  0  0  0  0  0  0  0  0  0  0  0
    7.1566   12.4879   25.6064 C   0  0  0  0  0  0  0  0  0  0  0  0
    8.0750   11.9425   24.6850 C   0  0  0  0  0  0  0  0  0  0  0  0
  2  1  1  6
  2  3  1  0
  3  4  1  0
  4  5  2  0
  5  6  1  0
  6  7  1  0
  7  8  2  0
  2  9  1  0
  9 10  1  0
 10 11  2  0
 10 12  1  0
 12 13  2  0
 13 14  1  0
 14 15  1  0
 14 16  1  0
 16 17  2  0
 17 18  1  0
 18 19  2  0
 19 20  1  0
 20 21  1  0
 21 22  1  0
 19 23  1  0
 23 24  2  0
  8  4  1  0
 24 12  1  0
 24 16  1  0
M  END
>  <ref_pdb>  (106) 
A3305a

>  <tags>  (106) 
{'fragmenstein_placed', 'openbind_a71ev2a_c1_fragmenstein'}

>  <distance_score>  (106) 
0.69146

>  <energy_score>  (106) 
-32.075853

>  <inchikey>  (106) 
ZBXRXFNVZOUTEP-UHFFFAOYSA-N

>  <alias>  (106) 
C[C@H](Cc1cocn1)NC(=O)c1nn(C)c2ccc(CNO)cc12

>  <smiles>  (106) 
C191871-P174

>  <HIPPO Pose ID>  (106) 
53460

>  <ref_mols>  (106) 
A3940a,A3371a

>  <HIPPO Compound ID>  (106) 
263060

$$$$
C[C@@H](Cc1cocn1)N[C@@](O)(CC(=O)NO)c1nn(C)c2ccccc12
     RDKit          3D

 26 28  0  0  0  0  0  0  0  0999 V2000
   10.3452   16.4181   21.6866 C   0  0  0  0  0  0  0  0  0  0  0  0
   10.8447   14.9701   21.5447 C   0  0  1  0  0  0  0  0  0  0  0  0
   12.3886   14.9038   21.4613 C   0  0  0  0  0  0  0  0  0  0  0  0
   13.0015   15.8826   20.5285 C   0  0  0  0  0  0  0  0  0  0  0  0
   13.7521   16.9997   20.8200 C   0  0  0  0  0  0  0  0  0  0  0  0
   14.0564   17.6280   19.6529 O   0  0  0  0  0  0  0  0  0  0  0  0
   13.4817   16.8310   18.7074 C   0  0  0  0  0  0  0  0  0  0  0  0
   12.8408   15.7812   19.1719 N   0  0  0  0  0  0  0  0  0  0  0  0
   10.4523   14.0162   22.6030 N   0  0  0  0  0  0  0  0  0  0  0  0
    9.0933   13.9991   23.1627 C   0  0  1  0  0  0  0  0  0  0  0  0
    9.1153   14.8742   24.2849 O   0  0  0  0  0  0  0  0  0  0  0  0
    8.0111   14.4630   22.1506 C   0  0  0  0  0  0  0  0  0  0  0  0
    6.6015   14.3709   22.7038 C   0  0  0  0  0  0  0  0  0  0  0  0
    6.3505   14.5203   23.8303 O   0  0  0  0  0  0  0  0  0  0  0  0
    5.6881   14.0196   21.5166 N   0  0  0  0  0  0  0  0  0  0  0  0
    4.3436   13.6980   21.4822 O   0  0  0  0  0  0  0  0  0  0  0  0
    8.8326   12.5280   23.6048 C   0  0  0  0  0  0  0  0  0  0  0  0
    9.3408   11.5154   22.8717 N   0  0  0  0  0  0  0  0  0  0  0  0
    8.8853   10.3969   23.4622 N   0  0  0  0  0  0  0  0  0  0  0  0
    9.2726    9.1008   22.9489 C   0  0  0  0  0  0  0  0  0  0  0  0
    8.0291   10.6393   24.5026 C   0  0  0  0  0  0  0  0  0  0  0  0
    7.2582    9.7799   25.2908 C   0  0  0  0  0  0  0  0  0  0  0  0
    6.4608   10.3357   26.2906 C   0  0  0  0  0  0  0  0  0  0  0  0
    6.4775   11.7039   26.5254 C   0  0  0  0  0  0  0  0  0  0  0  0
    7.2717   12.5502   25.7422 C   0  0  0  0  0  0  0  0  0  0  0  0
    8.0329   12.0198   24.6793 C   0  0  0  0  0  0  0  0  0  0  0  0
  2  1  1  1
  2  3  1  0
  3  4  1  0
  4  5  2  0
  5  6  1  0
  6  7  1  0
  7  8  2  0
  2  9  1  0
  9 10  1  0
 10 11  1  1
 10 12  1  0
 12 13  1  0
 13 14  2  0
 13 15  1  0
 15 16  1  0
 10 17  1  0
 17 18  2  0
 18 19  1  0
 19 20  1  0
 19 21  1  0
 21 22  2  0
 22 23  1  0
 23 24  2  0
 24 25  1  0
 25 26  2  0
  8  4  1  0
 26 17  1  0
 26 21  1  0
M  END
>  <ref_pdb>  (107) 
A3305a

>  <tags>  (107) 
{'fragmenstein_placed', 'openbind_a71ev2a_c1_fragmenstein'}

>  <distance_score>  (107) 
0.992498

>  <energy_score>  (107) 
-49.272529

>  <inchikey>  (107) 
UMYBGOBPHOVEQB-UHFFFAOYSA-N

>  <alias>  (107) 
C[C@@H](Cc1cocn1)N[C@@](O)(CC(=O)NO)c1nn(C)c2ccccc12

>  <smiles>  (107) 
C191875-P174

>  <HIPPO Pose ID>  (107) 
53461

>  <ref_mols>  (107) 
A3963b,A3371a

>  <HIPPO Compound ID>  (107) 
267601

$$$$
C[C@H](NC(=O)c1nn(C)c2ccccc12)C(F)(F)c1cocn1
     RDKit          3D

 23 25  0  0  0  0  0  0  0  0999 V2000
    9.6810   15.9783   21.0758 C   0  0  0  0  0  0  0  0  0  0  0  0
   10.5650   14.7374   21.0356 C   0  0  2  0  0  0  0  0  0  0  0  0
    9.9909   13.6823   21.8628 N   0  0  0  0  0  0  0  0  0  0  0  0
    9.2820   13.7549   23.2233 C   0  0  0  0  0  0  0  0  0  0  0  0
    8.9741   14.6764   23.8664 O   0  0  0  0  0  0  0  0  0  0  0  0
    8.9409   12.3761   23.6289 C   0  0  0  0  0  0  0  0  0  0  0  0
    9.4612   11.3171   22.9781 N   0  0  0  0  0  0  0  0  0  0  0  0
    8.8779   10.2505   23.5472 N   0  0  0  0  0  0  0  0  0  0  0  0
    9.1822    8.9316   23.0408 C   0  0  0  0  0  0  0  0  0  0  0  0
    7.9967   10.5764   24.5464 C   0  0  0  0  0  0  0  0  0  0  0  0
    7.1655    9.7995   25.3555 C   0  0  0  0  0  0  0  0  0  0  0  0
    6.3489   10.4514   26.2821 C   0  0  0  0  0  0  0  0  0  0  0  0
    6.3675   11.8382   26.3965 C   0  0  0  0  0  0  0  0  0  0  0  0
    7.2030   12.6082   25.5797 C   0  0  0  0  0  0  0  0  0  0  0  0
    8.0301   11.9642   24.6386 C   0  0  0  0  0  0  0  0  0  0  0  0
   12.0290   14.9909   21.4466 C   0  0  0  0  0  0  0  0  0  0  0  0
   12.0320   15.4000   22.7466 F   0  0  0  0  0  0  0  0  0  0  0  0
   12.6745   13.7863   21.4654 F   0  0  0  0  0  0  0  0  0  0  0  0
   12.7553   15.9537   20.5755 C   0  0  0  0  0  0  0  0  0  0  0  0
   13.5586   17.0112   20.9370 C   0  0  0  0  0  0  0  0  0  0  0  0
   13.9910   17.6352   19.8065 O   0  0  0  0  0  0  0  0  0  0  0  0
   13.4407   16.8971   18.8020 C   0  0  0  0  0  0  0  0  0  0  0  0
   12.6971   15.8893   19.1978 N   0  0  0  0  0  0  0  0  0  0  0  0
  2  1  1  1
  2  3  1  0
  3  4  1  0
  4  5  2  0
  4  6  1  0
  6  7  2  0
  7  8  1  0
  8  9  1  0
  8 10  1  0
 10 11  2  0
 11 12  1  0
 12 13  2  0
 13 14  1  0
 14 15  2  0
  2 16  1  0
 16 17  1  0
 16 18  1  0
 16 19  1  0
 19 20  2  0
 20 21  1  0
 21 22  1  0
 22 23  2  0
 15  6  1  0
 23 19  1  0
 15 10  1  0
M  END
>  <ref_pdb>  (108) 
A3305a

>  <tags>  (108) 
{'fragmenstein_placed', 'openbind_a71ev2a_c1_fragmenstein'}

>  <distance_score>  (108) 
0.857136

>  <energy_score>  (108) 
-36.044317

>  <inchikey>  (108) 
DBZQESMMSHHCLU-UHFFFAOYSA-N

>  <alias>  (108) 
C[C@H](NC(=O)c1nn(C)c2ccccc12)C(F)(F)c1cocn1

>  <smiles>  (108) 
C191901-P174

>  <HIPPO Pose ID>  (108) 
53476

>  <ref_mols>  (108) 
A3371a,A4320a

>  <HIPPO Compound ID>  (108) 
263008

$$$$
C[C@@H](Cc1ncoc1N)N(C)C(O)(O)c1nn(C)c2ccccc12
     RDKit          3D

 24 26  0  0  0  0  0  0  0  0999 V2000
   10.2854   16.1837   21.4082 C   0  0  0  0  0  0  0  0  0  0  0  0
   11.0807   14.8662   21.4503 C   0  0  1  0  0  0  0  0  0  0  0  0
   12.6043   15.1449   21.3162 C   0  0  0  0  0  0  0  0  0  0  0  0
   13.0741   16.0901   20.2759 C   0  0  0  0  0  0  0  0  0  0  0  0
   12.8712   15.8495   18.9440 N   0  0  0  0  0  0  0  0  0  0  0  0
   13.4967   16.8476   18.3589 C   0  0  0  0  0  0  0  0  0  0  0  0
   14.0817   17.7471   19.1919 O   0  0  0  0  0  0  0  0  0  0  0  0
   13.8394   17.2292   20.4163 C   0  0  0  0  0  0  0  0  0  0  0  0
   14.3862   17.8840   21.4434 N   0  0  0  0  0  0  0  0  0  0  0  0
   10.7842   13.9506   22.5881 N   0  0  0  0  0  0  0  0  0  0  0  0
   11.9017   13.3391   23.2907 C   0  0  0  0  0  0  0  0  0  0  0  0
    9.5275   13.8950   23.2964 C   0  0  0  0  0  0  0  0  0  0  0  0
    8.4736   14.5106   22.5981 O   0  0  0  0  0  0  0  0  0  0  0  0
    9.7068   14.7028   24.4415 O   0  0  0  0  0  0  0  0  0  0  0  0
    9.1036   12.4473   23.6580 C   0  0  0  0  0  0  0  0  0  0  0  0
    9.5588   11.3672   22.9948 N   0  0  0  0  0  0  0  0  0  0  0  0
    8.9210   10.3219   23.5367 N   0  0  0  0  0  0  0  0  0  0  0  0
    9.1876    8.9956   23.0273 C   0  0  0  0  0  0  0  0  0  0  0  0
    8.0437   10.6707   24.5298 C   0  0  0  0  0  0  0  0  0  0  0  0
    7.1737    9.9135   25.3202 C   0  0  0  0  0  0  0  0  0  0  0  0
    6.3742   10.5873   26.2448 C   0  0  0  0  0  0  0  0  0  0  0  0
    6.4491   11.9714   26.3755 C   0  0  0  0  0  0  0  0  0  0  0  0
    7.3291   12.7188   25.5821 C   0  0  0  0  0  0  0  0  0  0  0  0
    8.1410   12.0557   24.6405 C   0  0  0  0  0  0  0  0  0  0  0  0
  2  1  1  1
  2  3  1  0
  3  4  1  0
  4  5  1  0
  5  6  2  0
  6  7  1  0
  7  8  1  0
  8  9  1  0
  2 10  1  0
 10 11  1  0
 10 12  1  0
 12 13  1  0
 12 14  1  0
 12 15  1  0
 15 16  2  0
 16 17  1  0
 17 18  1  0
 17 19  1  0
 19 20  2  0
 20 21  1  0
 21 22  2  0
 22 23  1  0
 23 24  2  0
  8  4  2  0
 24 15  1  0
 24 19  1  0
M  END
>  <ref_pdb>  (109) 
A3305a

>  <tags>  (109) 
{'fragmenstein_placed', 'openbind_a71ev2a_c1_fragmenstein'}

>  <distance_score>  (109) 
0.916061

>  <energy_score>  (109) 
-52.337565

>  <inchikey>  (109) 
AMUKTQNSOMQCIB-UHFFFAOYSA-N

>  <alias>  (109) 
C[C@@H](Cc1ncoc1N)N(C)C(O)(O)c1nn(C)c2ccccc12

>  <smiles>  (109) 
C191960-P174

>  <HIPPO Pose ID>  (109) 
53494

>  <ref_mols>  (109) 
A4476a,A3371a

>  <HIPPO Compound ID>  (109) 
265627

$$$$
C#C[C@H](N[C@@H](C)Cc1cocn1)c1nn(C)c2ccccc12
     RDKit          3D

 22 24  0  0  0  0  0  0  0  0999 V2000
    9.6751   15.4199   24.8976 C   0  0  0  0  0  0  0  0  0  0  0  0
    9.8869   14.5268   24.1280 C   0  0  0  0  0  0  0  0  0  0  0  0
   10.1973   13.4338   23.2150 C   0  0  2  0  0  0  0  0  0  0  0  0
    9.8897   13.7413   21.8168 N   0  0  0  0  0  0  0  0  0  0  0  0
   10.6105   14.8519   21.1533 C   0  0  1  0  0  0  0  0  0  0  0  0
    9.8385   16.1660   21.3139 C   0  0  0  0  0  0  0  0  0  0  0  0
   12.1164   14.9702   21.4760 C   0  0  0  0  0  0  0  0  0  0  0  0
   12.8270   15.9331   20.5945 C   0  0  0  0  0  0  0  0  0  0  0  0
   13.5361   17.0663   20.9177 C   0  0  0  0  0  0  0  0  0  0  0  0
   13.9582   17.6543   19.7641 O   0  0  0  0  0  0  0  0  0  0  0  0
   13.4913   16.8184   18.7935 C   0  0  0  0  0  0  0  0  0  0  0  0
   12.8304   15.7714   19.2322 N   0  0  0  0  0  0  0  0  0  0  0  0
    9.4507   12.1606   23.5886 C   0  0  0  0  0  0  0  0  0  0  0  0
    9.8815   11.0181   23.0306 N   0  0  0  0  0  0  0  0  0  0  0  0
    9.0620   10.0715   23.4960 N   0  0  0  0  0  0  0  0  0  0  0  0
    9.1921    8.7326   22.9774 C   0  0  0  0  0  0  0  0  0  0  0  0
    8.1663   10.5257   24.4253 C   0  0  0  0  0  0  0  0  0  0  0  0
    7.2128    9.8612   25.2047 C   0  0  0  0  0  0  0  0  0  0  0  0
    6.4028   10.6194   26.0482 C   0  0  0  0  0  0  0  0  0  0  0  0
    6.5301   12.0023   26.0894 C   0  0  0  0  0  0  0  0  0  0  0  0
    7.4913   12.6562   25.3050 C   0  0  0  0  0  0  0  0  0  0  0  0
    8.3485   11.9074   24.4704 C   0  0  0  0  0  0  0  0  0  0  0  0
  1  2  3  0
  3  2  1  1
  3  4  1  0
  4  5  1  0
  5  6  1  1
  5  7  1  0
  7  8  1  0
  8  9  2  0
  9 10  1  0
 10 11  1  0
 11 12  2  0
  3 13  1  0
 13 14  2  0
 14 15  1  0
 15 16  1  0
 15 17  1  0
 17 18  2  0
 18 19  1  0
 19 20  2  0
 20 21  1  0
 21 22  2  0
 12  8  1  0
 22 13  1  0
 22 17  1  0
M  END
>  <ref_pdb>  (110) 
A3305a

>  <tags>  (110) 
{'fragmenstein_placed', 'openbind_a71ev2a_c1_fragmenstein'}

>  <distance_score>  (110) 
0.947009

>  <energy_score>  (110) 
-38.696402

>  <inchikey>  (110) 
PVWWIGZYJBKIAA-UHFFFAOYSA-N

>  <alias>  (110) 
C#C[C@H](N[C@@H](C)Cc1cocn1)c1nn(C)c2ccccc12

>  <smiles>  (110) 
C192018-P174

>  <HIPPO Pose ID>  (110) 
53507

>  <ref_mols>  (110) 
A4786a,A3371a

>  <HIPPO Compound ID>  (110) 
192018

$$$$
CCC[C@@]1(C)NCO[C@H]1N
     RDKit          3D

 10 10  0  0  0  0  0  0  0  0999 V2000
   10.9369   12.9043   23.8484 C   0  0  0  0  0  0  0  0  0  0  0  0
   11.7585   14.0811   23.3494 C   0  0  0  0  0  0  0  0  0  0  0  0
   11.7962   14.3114   21.8397 C   0  0  0  0  0  0  0  0  0  0  0  0
   10.5289   14.8635   21.1765 C   0  0  1  0  0  0  0  0  0  0  0  0
    9.2359   14.2505   21.7574 C   0  0  0  0  0  0  0  0  0  0  0  0
   10.4085   16.3172   21.2297 N   0  0  0  0  0  0  0  0  0  0  0  0
    9.4573   16.5984   20.1703 C   0  0  0  0  0  0  0  0  0  0  0  0
    9.5486   15.5674   19.1816 O   0  0  0  0  0  0  0  0  0  0  0  0
   10.5480   14.6666   19.6482 C   0  0  1  0  0  0  0  0  0  0  0  0
   11.7417   14.8852   18.8766 N   0  0  0  0  0  0  0  0  0  0  0  0
  1  2  1  0
  2  3  1  0
  3  4  1  0
  4  5  1  1
  4  6  1  0
  6  7  1  0
  7  8  1  0
  8  9  1  0
  9 10  1  6
  9  4  1  0
M  END
>  <ref_pdb>  (111) 
A3305a

>  <tags>  (111) 
{'fragmenstein_placed', 'openbind_a71ev2a_c1_fragmenstein'}

>  <distance_score>  (111) 
0.669809

>  <energy_score>  (111) 
-13.230177

>  <inchikey>  (111) 
DGEPUJVYPZIWMK-UHFFFAOYSA-N

>  <alias>  (111) 
CCC[C@@]1(C)NCO[C@H]1N

>  <smiles>  (111) 
C265854-P176

>  <HIPPO Pose ID>  (111) 
53818

>  <ref_mols>  (111) 
A3392a,A4571a

>  <HIPPO Compound ID>  (111) 
226288

$$$$
O=C(CN1CCCC1)c1ccccc1C(=O)NCCc1cocn1
     RDKit          3D

 24 26  0  0  0  0  0  0  0  0999 V2000
    8.9881   14.4085   26.3341 O   0  0  0  0  0  0  0  0  0  0  0  0
    8.3639   13.8670   25.4248 C   0  0  0  0  0  0  0  0  0  0  0  0
    7.0638   14.4572   24.8954 C   0  0  0  0  0  0  0  0  0  0  0  0
    6.7958   14.0153   23.5088 N   0  0  0  0  0  0  0  0  0  0  0  0
    7.6820   14.6777   22.5516 C   0  0  0  0  0  0  0  0  0  0  0  0
    7.0570   16.0299   22.3514 C   0  0  0  0  0  0  0  0  0  0  0  0
    5.5767   15.8676   22.6382 C   0  0  0  0  0  0  0  0  0  0  0  0
    5.4471   14.4413   23.0985 C   0  0  0  0  0  0  0  0  0  0  0  0
    8.7493   12.5379   24.9229 C   0  0  0  0  0  0  0  0  0  0  0  0
    7.8602   11.4885   25.1925 C   0  0  0  0  0  0  0  0  0  0  0  0
    8.0767   10.2395   24.6276 C   0  0  0  0  0  0  0  0  0  0  0  0
    9.1352   10.0569   23.7444 C   0  0  0  0  0  0  0  0  0  0  0  0
   10.0144   11.1077   23.4731 C   0  0  0  0  0  0  0  0  0  0  0  0
    9.8677   12.3441   24.1078 C   0  0  0  0  0  0  0  0  0  0  0  0
   10.9766   13.3441   24.0499 C   0  0  0  0  0  0  0  0  0  0  0  0
   11.3155   13.8195   25.0541 O   0  0  0  0  0  0  0  0  0  0  0  0
   11.5309   13.5149   22.6355 N   0  0  0  0  0  0  0  0  0  0  0  0
   12.5637   14.3815   22.1350 C   0  0  0  0  0  0  0  0  0  0  0  0
   12.6204   14.5141   20.6257 C   0  0  0  0  0  0  0  0  0  0  0  0
   11.4438   15.2120   20.0636 C   0  0  0  0  0  0  0  0  0  0  0  0
   11.0221   15.2838   18.7604 C   0  0  0  0  0  0  0  0  0  0  0  0
    9.9674   16.1413   18.7066 O   0  0  0  0  0  0  0  0  0  0  0  0
    9.8347   16.5813   19.9839 C   0  0  0  0  0  0  0  0  0  0  0  0
   10.6402   16.0078   20.8427 N   0  0  0  0  0  0  0  0  0  0  0  0
  1  2  2  0
  2  3  1  0
  3  4  1  0
  4  5  1  0
  5  6  1  0
  6  7  1  0
  7  8  1  0
  2  9  1  0
  9 10  2  0
 10 11  1  0
 11 12  2  0
 12 13  1  0
 13 14  2  0
 14 15  1  0
 15 16  2  0
 15 17  1  0
 17 18  1  0
 18 19  1  0
 19 20  1  0
 20 21  2  0
 21 22  1  0
 22 23  1  0
 23 24  2  0
  8  4  1  0
 14  9  1  0
 24 20  1  0
M  END
>  <ref_pdb>  (112) 
A3305a

>  <tags>  (112) 
{'fragmenstein_placed', 'openbind_a71ev2a_c1_fragmenstein'}

>  <distance_score>  (112) 
0.861328

>  <energy_score>  (112) 
-14.489257

>  <inchikey>  (112) 
KINPTNKBZKLBEK-UHFFFAOYSA-N

>  <alias>  (112) 
O=C(CN1CCCC1)c1ccccc1C(=O)NCCc1cocn1

>  <smiles>  (112) 
C266916-P179

>  <HIPPO Pose ID>  (112) 
54413

>  <ref_mols>  (112) 
A3410a,A0375b

>  <HIPPO Compound ID>  (112) 
211420

$$$$
O=C(NCCc1cocn1)c1cccc(Br)c1
     RDKit          3D

 17 18  0  0  0  0  0  0  0  0999 V2000
   11.5979   14.2867   25.0835 O   0  0  0  0  0  0  0  0  0  0  0  0
   11.2049   13.7391   24.1359 C   0  0  0  0  0  0  0  0  0  0  0  0
   11.7103   13.7654   22.6964 N   0  0  0  0  0  0  0  0  0  0  0  0
   12.7499   14.5428   22.0876 C   0  0  0  0  0  0  0  0  0  0  0  0
   12.6861   14.5480   20.5715 C   0  0  0  0  0  0  0  0  0  0  0  0
   11.4708   15.2214   20.0555 C   0  0  0  0  0  0  0  0  0  0  0  0
   11.0328   15.3533   18.7623 C   0  0  0  0  0  0  0  0  0  0  0  0
    9.9275   16.1481   18.7718 O   0  0  0  0  0  0  0  0  0  0  0  0
    9.7691   16.4809   20.0794 C   0  0  0  0  0  0  0  0  0  0  0  0
   10.6240   15.9105   20.8907 N   0  0  0  0  0  0  0  0  0  0  0  0
    9.9844   12.9068   24.2458 C   0  0  0  0  0  0  0  0  0  0  0  0
    9.9334   11.6037   23.7403 C   0  0  0  0  0  0  0  0  0  0  0  0
    8.8334   10.7962   24.0226 C   0  0  0  0  0  0  0  0  0  0  0  0
    7.7693   11.3135   24.7599 C   0  0  0  0  0  0  0  0  0  0  0  0
    7.7983   12.6407   25.1861 C   0  0  0  0  0  0  0  0  0  0  0  0
    6.3326   13.3840   26.0986 Br  0  0  0  0  0  0  0  0  0  0  0  0
    8.9070   13.4387   24.9490 C   0  0  0  0  0  0  0  0  0  0  0  0
  1  2  2  0
  2  3  1  0
  3  4  1  0
  4  5  1  0
  5  6  1  0
  6  7  2  0
  7  8  1  0
  8  9  1  0
  9 10  2  0
  2 11  1  0
 11 12  2  0
 12 13  1  0
 13 14  2  0
 14 15  1  0
 15 16  1  0
 15 17  2  0
 10  6  1  0
 17 11  1  0
M  END
>  <ref_pdb>  (113) 
A3305a

>  <tags>  (113) 
{'fragmenstein_placed', 'openbind_a71ev2a_c1_fragmenstein'}

>  <distance_score>  (113) 
0.579785

>  <energy_score>  (113) 
-1.494524

>  <inchikey>  (113) 
MRPHOJGAONEVOP-UHFFFAOYSA-N

>  <alias>  (113) 
O=C(NCCc1cocn1)c1cccc(Br)c1

>  <smiles>  (113) 
C266917-P179

>  <HIPPO Pose ID>  (113) 
54414

>  <ref_mols>  (113) 
A0387a,A0443a,A3410a

>  <HIPPO Compound ID>  (113) 
265269

$$$$
O=C(NCCc1cocn1)c1cccc(Cl)c1
     RDKit          3D

 17 18  0  0  0  0  0  0  0  0999 V2000
   11.1409   14.2354   25.1334 O   0  0  0  0  0  0  0  0  0  0  0  0
   10.8494   13.6498   24.1689 C   0  0  0  0  0  0  0  0  0  0  0  0
   11.4896   13.6481   22.7740 N   0  0  0  0  0  0  0  0  0  0  0  0
   12.5687   14.4380   22.2383 C   0  0  0  0  0  0  0  0  0  0  0  0
   12.6057   14.5277   20.7183 C   0  0  0  0  0  0  0  0  0  0  0  0
   11.4249   15.2164   20.1477 C   0  0  0  0  0  0  0  0  0  0  0  0
   11.0281   15.3319   18.8382 C   0  0  0  0  0  0  0  0  0  0  0  0
    9.9427   16.1537   18.7995 O   0  0  0  0  0  0  0  0  0  0  0  0
    9.7554   16.5164   20.0953 C   0  0  0  0  0  0  0  0  0  0  0  0
   10.5732   15.9430   20.9421 N   0  0  0  0  0  0  0  0  0  0  0  0
    9.7024   12.6976   24.2685 C   0  0  0  0  0  0  0  0  0  0  0  0
    9.7572   11.4302   23.6764 C   0  0  0  0  0  0  0  0  0  0  0  0
    8.7969   10.4710   23.9991 C   0  0  0  0  0  0  0  0  0  0  0  0
    7.7787   10.7786   24.9024 C   0  0  0  0  0  0  0  0  0  0  0  0
    7.7025   12.0518   25.4643 C   0  0  0  0  0  0  0  0  0  0  0  0
    6.4909   12.3794   26.6500 Cl  0  0  0  0  0  0  0  0  0  0  0  0
    8.6505   13.0194   25.1392 C   0  0  0  0  0  0  0  0  0  0  0  0
  1  2  2  0
  2  3  1  0
  3  4  1  0
  4  5  1  0
  5  6  1  0
  6  7  2  0
  7  8  1  0
  8  9  1  0
  9 10  2  0
  2 11  1  0
 11 12  2  0
 12 13  1  0
 13 14  2  0
 14 15  1  0
 15 16  1  0
 15 17  2  0
 10  6  1  0
 17 11  1  0
M  END
>  <ref_pdb>  (114) 
A3305a

>  <tags>  (114) 
{'fragmenstein_placed', 'openbind_a71ev2a_c1_fragmenstein'}

>  <distance_score>  (114) 
0.552673

>  <energy_score>  (114) 
-1.607781

>  <inchikey>  (114) 
ZFHNXAYAVKXHKP-UHFFFAOYSA-N

>  <alias>  (114) 
O=C(NCCc1cocn1)c1cccc(Cl)c1

>  <smiles>  (114) 
C266919-P179

>  <HIPPO Pose ID>  (114) 
54415

>  <ref_mols>  (114) 
A0437a,A3410a

>  <HIPPO Compound ID>  (114) 
265924

$$$$
Cc1ccccc1C(O)(O)NCNCc1cocn1
     RDKit          3D

 19 20  0  0  0  0  0  0  0  0999 V2000
    8.3117   14.3870   25.3580 C   0  0  0  0  0  0  0  0  0  0  0  0
    8.5888   13.0079   24.8096 C   0  0  0  0  0  0  0  0  0  0  0  0
    7.8047   11.9521   25.3087 C   0  0  0  0  0  0  0  0  0  0  0  0
    8.0126   10.6418   24.8903 C   0  0  0  0  0  0  0  0  0  0  0  0
    9.0038   10.3642   23.9607 C   0  0  0  0  0  0  0  0  0  0  0  0
    9.7877   11.3986   23.4480 C   0  0  0  0  0  0  0  0  0  0  0  0
    9.6129   12.7358   23.8571 C   0  0  0  0  0  0  0  0  0  0  0  0
   10.4940   13.8441   23.2761 C   0  0  0  0  0  0  0  0  0  0  0  0
   11.0356   14.4853   24.4102 O   0  0  0  0  0  0  0  0  0  0  0  0
    9.6896   14.6959   22.5118 O   0  0  0  0  0  0  0  0  0  0  0  0
   11.6162   13.4151   22.4700 N   0  0  0  0  0  0  0  0  0  0  0  0
   12.4607   14.5254   22.0664 C   0  0  0  0  0  0  0  0  0  0  0  0
   12.9056   14.4062   20.7015 N   0  0  0  0  0  0  0  0  0  0  0  0
   11.9462   14.6233   19.6242 C   0  0  0  0  0  0  0  0  0  0  0  0
   10.9549   15.6934   19.7677 C   0  0  0  0  0  0  0  0  0  0  0  0
    9.9161   15.9590   18.9238 C   0  0  0  0  0  0  0  0  0  0  0  0
    9.2939   17.0857   19.3425 O   0  0  0  0  0  0  0  0  0  0  0  0
    9.9121   17.3780   20.4991 C   0  0  0  0  0  0  0  0  0  0  0  0
   10.9273   16.6009   20.7817 N   0  0  0  0  0  0  0  0  0  0  0  0
  1  2  1  0
  2  3  2  0
  3  4  1  0
  4  5  2  0
  5  6  1  0
  6  7  2  0
  7  8  1  0
  8  9  1  0
  8 10  1  0
  8 11  1  0
 11 12  1  0
 12 13  1  0
 13 14  1  0
 14 15  1  0
 15 16  2  0
 16 17  1  0
 17 18  1  0
 18 19  2  0
  7  2  1  0
 19 15  1  0
M  END
>  <ref_pdb>  (115) 
A3305a

>  <tags>  (115) 
{'fragmenstein_placed', 'openbind_a71ev2a_c1_fragmenstein'}

>  <distance_score>  (115) 
0.87236

>  <energy_score>  (115) 
-35.358923

>  <inchikey>  (115) 
QYCKRLPOQMCSGI-UHFFFAOYSA-N

>  <alias>  (115) 
Cc1ccccc1C(O)(O)NCNCc1cocn1

>  <smiles>  (115) 
C267117-P179

>  <HIPPO Pose ID>  (115) 
54491

>  <ref_mols>  (115) 
A3410a,A4207a

>  <HIPPO Compound ID>  (115) 
264563

$$$$
COCC(=O)Nc1c(Cl)cc(C)cc1C(=O)c1cccc(C(N)(N)O)c1
     RDKit          3D

 26 27  0  0  0  0  0  0  0  0999 V2000
    4.2420   16.6131   26.7379 C   0  0  0  0  0  0  0  0  0  0  0  0
    5.2005   15.5639   26.6225 O   0  0  0  0  0  0  0  0  0  0  0  0
    6.4737   16.1024   26.2970 C   0  0  0  0  0  0  0  0  0  0  0  0
    7.5387   15.0585   25.9294 C   0  0  0  0  0  0  0  0  0  0  0  0
    8.6689   15.3380   25.8214 O   0  0  0  0  0  0  0  0  0  0  0  0
    6.8041   13.7193   25.6577 N   0  0  0  0  0  0  0  0  0  0  0  0
    7.2761   12.5189   25.1255 C   0  0  0  0  0  0  0  0  0  0  0  0
    6.8222   11.2868   25.5751 C   0  0  0  0  0  0  0  0  0  0  0  0
    5.6520   11.1771   26.8399 Cl  0  0  0  0  0  0  0  0  0  0  0  0
    7.3732   10.1053   25.0585 C   0  0  0  0  0  0  0  0  0  0  0  0
    8.4033   10.1312   24.1084 C   0  0  0  0  0  0  0  0  0  0  0  0
    9.0200    8.8839   23.5523 C   0  0  0  0  0  0  0  0  0  0  0  0
    8.8134   11.3595   23.6116 C   0  0  0  0  0  0  0  0  0  0  0  0
    8.2265   12.5343   24.0955 C   0  0  0  0  0  0  0  0  0  0  0  0
    8.3044   13.7057   23.2156 C   0  0  0  0  0  0  0  0  0  0  0  0
    7.2449   14.1920   22.8274 O   0  0  0  0  0  0  0  0  0  0  0  0
    9.5694   14.1427   22.6221 C   0  0  0  0  0  0  0  0  0  0  0  0
   10.7980   14.0069   23.2697 C   0  0  0  0  0  0  0  0  0  0  0  0
   11.9543   14.3595   22.5885 C   0  0  0  0  0  0  0  0  0  0  0  0
   11.8690   14.8455   21.2816 C   0  0  0  0  0  0  0  0  0  0  0  0
   10.6265   15.0030   20.6291 C   0  0  0  0  0  0  0  0  0  0  0  0
   10.4895   15.7055   19.3020 C   0  0  0  0  0  0  0  0  0  0  0  0
   11.6533   15.6207   18.5128 N   0  0  0  0  0  0  0  0  0  0  0  0
   10.1769   17.0659   19.5335 N   0  0  0  0  0  0  0  0  0  0  0  0
    9.4473   15.3293   18.4879 O   0  0  0  0  0  0  0  0  0  0  0  0
    9.4792   14.6528   21.3285 C   0  0  0  0  0  0  0  0  0  0  0  0
  1  2  1  0
  2  3  1  0
  3  4  1  0
  4  5  2  0
  4  6  1  0
  6  7  1  0
  7  8  2  0
  8  9  1  0
  8 10  1  0
 10 11  2  0
 11 12  1  0
 11 13  1  0
 13 14  2  0
 14 15  1  0
 15 16  2  0
 15 17  1  0
 17 18  2  0
 18 19  1  0
 19 20  2  0
 20 21  1  0
 21 22  1  0
 22 23  1  0
 22 24  1  0
 22 25  1  0
 21 26  2  0
 14  7  1  0
 26 17  1  0
M  END
>  <ref_pdb>  (116) 
A3483a

>  <tags>  (116) 
{'fragmenstein_placed', 'openbind_a71ev2a_c1_fragmenstein'}

>  <distance_score>  (116) 
0.666791

>  <energy_score>  (116) 
-31.983193

>  <inchikey>  (116) 
PSIYEGSIAUUUKH-UHFFFAOYSA-N

>  <alias>  (116) 
COCC(=O)Nc1c(Cl)cc(C)cc1C(=O)c1cccc(C(N)(N)O)c1

>  <smiles>  (116) 
C190639-P188

>  <HIPPO Pose ID>  (116) 
55680

>  <ref_mols>  (116) 
A4559a,A3488a

>  <HIPPO Compound ID>  (116) 
176894

$$$$
COCC(=O)Nc1c(Cl)cc(CS)cc1C(=O)[C@H](C)C[C@H](C)[C@@](C)(N)O
     RDKit          3D

 26 26  0  0  0  0  0  0  0  0999 V2000
    4.4745   16.7849   25.8404 C   0  0  0  0  0  0  0  0  0  0  0  0
    4.6671   15.7050   26.7512 O   0  0  0  0  0  0  0  0  0  0  0  0
    5.9651   15.7397   27.3146 C   0  0  0  0  0  0  0  0  0  0  0  0
    7.0182   15.0817   26.4186 C   0  0  0  0  0  0  0  0  0  0  0  0
    8.0367   15.5934   26.1511 O   0  0  0  0  0  0  0  0  0  0  0  0
    6.4849   13.6533   26.0821 N   0  0  0  0  0  0  0  0  0  0  0  0
    7.0417   12.6363   25.2936 C   0  0  0  0  0  0  0  0  0  0  0  0
    6.7883   11.2945   25.6237 C   0  0  0  0  0  0  0  0  0  0  0  0
    5.6854   10.9083   26.9014 Cl  0  0  0  0  0  0  0  0  0  0  0  0
    7.5160   10.2406   25.0276 C   0  0  0  0  0  0  0  0  0  0  0  0
    8.4650   10.5079   24.0482 C   0  0  0  0  0  0  0  0  0  0  0  0
    9.5245    9.6157   23.4824 C   0  0  0  0  0  0  0  0  0  0  0  0
    9.0086    8.0534   22.9455 S   0  0  0  0  0  0  0  0  0  0  0  0
    8.5341   11.7998   23.5929 C   0  0  0  0  0  0  0  0  0  0  0  0
    7.9018   12.8644   24.2290 C   0  0  0  0  0  0  0  0  0  0  0  0
    8.1032   14.1488   23.5522 C   0  0  0  0  0  0  0  0  0  0  0  0
    7.1156   14.8085   23.2576 O   0  0  0  0  0  0  0  0  0  0  0  0
    9.5225   14.4449   23.0774 C   0  0  2  0  0  0  0  0  0  0  0  0
   10.4729   14.8369   24.1909 C   0  0  0  0  0  0  0  0  0  0  0  0
    9.4712   15.1370   21.7235 C   0  0  0  0  0  0  0  0  0  0  0  0
   10.7521   15.6396   21.0505 C   0  0  2  0  0  0  0  0  0  0  0  0
   10.3005   16.0986   19.6386 C   0  0  0  0  0  0  0  0  0  0  0  0
   12.0531   14.7915   21.0164 C   0  0  1  0  0  0  0  0  0  0  0  0
   12.1772   13.6362   21.9804 C   0  0  0  0  0  0  0  0  0  0  0  0
   12.3282   14.2888   19.6906 N   0  0  0  0  0  0  0  0  0  0  0  0
   13.1195   15.6454   21.3814 O   0  0  0  0  0  0  0  0  0  0  0  0
  1  2  1  0
  2  3  1  0
  3  4  1  0
  4  5  2  0
  4  6  1  0
  6  7  1  0
  7  8  2  0
  8  9  1  0
  8 10  1  0
 10 11  2  0
 11 12  1  0
 12 13  1  0
 11 14  1  0
 14 15  2  0
 15 16  1  0
 16 17  2  0
 16 18  1  0
 18 19  1  1
 18 20  1  0
 20 21  1  0
 21 22  1  6
 21 23  1  0
 23 24  1  1
 23 25  1  0
 23 26  1  0
 15  7  1  0
M  END
>  <ref_pdb>  (117) 
A3483a

>  <tags>  (117) 
{'fragmenstein_placed', 'openbind_a71ev2a_c1_fragmenstein'}

>  <distance_score>  (117) 
0.891606

>  <energy_score>  (117) 
-20.441719

>  <inchikey>  (117) 
ZKVDGUXVNAFIAR-UHFFFAOYSA-N

>  <alias>  (117) 
COCC(=O)Nc1c(Cl)cc(CS)cc1C(=O)[C@H](C)C[C@H](C)[C@@](C)(N)O

>  <smiles>  (117) 
C190706-P188

>  <HIPPO Pose ID>  (117) 
55724

>  <ref_mols>  (117) 
A4943b,A3488a

>  <HIPPO Compound ID>  (117) 
191305

$$$$
COCC(=O)Nc1c(CCBr)cc(C)cc1C(=O)c1cccc([C@H](N)N=O)c1
     RDKit          3D

 28 29  0  0  0  0  0  0  0  0999 V2000
    4.1892   16.7817   26.6779 C   0  0  0  0  0  0  0  0  0  0  0  0
    5.1591   15.7401   26.6102 O   0  0  0  0  0  0  0  0  0  0  0  0
    6.4530   16.2910   26.3933 C   0  0  0  0  0  0  0  0  0  0  0  0
    7.5373   15.2355   26.1355 C   0  0  0  0  0  0  0  0  0  0  0  0
    8.6809   15.4841   26.1476 O   0  0  0  0  0  0  0  0  0  0  0  0
    6.7968   13.9146   25.7801 N   0  0  0  0  0  0  0  0  0  0  0  0
    7.2877   12.7064   25.2944 C   0  0  0  0  0  0  0  0  0  0  0  0
    6.7747   11.4902   25.7471 C   0  0  0  0  0  0  0  0  0  0  0  0
    5.6756   11.3862   26.7861 C   0  0  0  0  0  0  0  0  0  0  0  0
    5.7792   12.2819   28.0188 C   0  0  0  0  0  0  0  0  0  0  0  0
    4.9097   11.4188   29.5408 Br  0  0  0  0  0  0  0  0  0  0  0  0
    7.2972   10.3002   25.1855 C   0  0  0  0  0  0  0  0  0  0  0  0
    8.3361   10.3042   24.2407 C   0  0  0  0  0  0  0  0  0  0  0  0
    8.9065    9.0434   23.6621 C   0  0  0  0  0  0  0  0  0  0  0  0
    8.8147   11.5242   23.7868 C   0  0  0  0  0  0  0  0  0  0  0  0
    8.2812   12.7107   24.2998 C   0  0  0  0  0  0  0  0  0  0  0  0
    8.5046   13.9231   23.5025 C   0  0  0  0  0  0  0  0  0  0  0  0
    7.5193   14.5318   23.0925 O   0  0  0  0  0  0  0  0  0  0  0  0
    9.8358   14.2713   22.9981 C   0  0  0  0  0  0  0  0  0  0  0  0
   11.0170   14.1051   23.7081 C   0  0  0  0  0  0  0  0  0  0  0  0
   12.2277   14.3306   23.0520 C   0  0  0  0  0  0  0  0  0  0  0  0
   12.2621   14.7025   21.7027 C   0  0  0  0  0  0  0  0  0  0  0  0
   11.0774   14.8292   20.9888 C   0  0  0  0  0  0  0  0  0  0  0  0
   10.9638   14.9796   19.5022 C   0  0  2  0  0  0  0  0  0  0  0  0
   12.1347   14.7923   18.6729 N   0  0  0  0  0  0  0  0  0  0  0  0
   10.1928   16.1873   19.1614 N   0  0  0  0  0  0  0  0  0  0  0  0
    9.4417   15.9471   18.2130 O   0  0  0  0  0  0  0  0  0  0  0  0
    9.8657   14.6602   21.6693 C   0  0  0  0  0  0  0  0  0  0  0  0
  1  2  1  0
  2  3  1  0
  3  4  1  0
  4  5  2  0
  4  6  1  0
  6  7  1  0
  7  8  2  0
  8  9  1  0
  9 10  1  0
 10 11  1  0
  8 12  1  0
 12 13  2  0
 13 14  1  0
 13 15  1  0
 15 16  2  0
 16 17  1  0
 17 18  2  0
 17 19  1  0
 19 20  2  0
 20 21  1  0
 21 22  2  0
 22 23  1  0
 23 24  1  0
 24 25  1  6
 24 26  1  0
 26 27  2  0
 23 28  2  0
 16  7  1  0
 28 19  1  0
M  END
>  <ref_pdb>  (118) 
A3483a

>  <tags>  (118) 
{'fragmenstein_placed', 'openbind_a71ev2a_c1_fragmenstein'}

>  <distance_score>  (118) 
0.96925

>  <energy_score>  (118) 
-43.228092

>  <inchikey>  (118) 
FNNHSCZUTYNJDJ-UHFFFAOYSA-N

>  <alias>  (118) 
COCC(=O)Nc1c(CCBr)cc(C)cc1C(=O)c1cccc([C@H](N)N=O)c1

>  <smiles>  (118) 
C190716-P188

>  <HIPPO Pose ID>  (118) 
55730

>  <ref_mols>  (118) 
A3488a,A5022b

>  <HIPPO Compound ID>  (118) 
193826

$$$$
N#Cc1cccc(NC(O)(O)N2CCC[C@H](C(N)(O)O)C2)c1
     RDKit          3D

 22 23  0  0  0  0  0  0  0  0999 V2000
    5.5682   11.5817   26.8416 N   0  0  0  0  0  0  0  0  0  0  0  0
    6.3201   11.3766   25.9805 C   0  0  0  0  0  0  0  0  0  0  0  0
    7.2915   11.0359   24.9836 C   0  0  0  0  0  0  0  0  0  0  0  0
    7.4275    9.6964   24.6223 C   0  0  0  0  0  0  0  0  0  0  0  0
    8.3793    9.3229   23.6864 C   0  0  0  0  0  0  0  0  0  0  0  0
    9.1953   10.2884   23.1142 C   0  0  0  0  0  0  0  0  0  0  0  0
    9.0929   11.6411   23.4636 C   0  0  0  0  0  0  0  0  0  0  0  0
   10.0452   12.4860   22.9397 N   0  0  0  0  0  0  0  0  0  0  0  0
   10.5340   13.7364   23.4164 C   0  0  0  0  0  0  0  0  0  0  0  0
   10.4891   13.6830   24.8180 O   0  0  0  0  0  0  0  0  0  0  0  0
   11.9060   13.6409   23.1399 O   0  0  0  0  0  0  0  0  0  0  0  0
    9.9786   14.9829   22.9610 N   0  0  0  0  0  0  0  0  0  0  0  0
   10.5855   16.1548   23.5948 C   0  0  0  0  0  0  0  0  0  0  0  0
   11.9819   16.5110   23.0864 C   0  0  0  0  0  0  0  0  0  0  0  0
   12.0199   16.6076   21.5685 C   0  0  0  0  0  0  0  0  0  0  0  0
   11.3495   15.4019   20.8681 C   0  0  2  0  0  0  0  0  0  0  0  0
   11.3186   15.6137   19.3437 C   0  0  0  0  0  0  0  0  0  0  0  0
   10.5864   14.6850   18.5794 N   0  0  0  0  0  0  0  0  0  0  0  0
   10.8016   16.8593   19.0108 O   0  0  0  0  0  0  0  0  0  0  0  0
   12.5962   15.5260   18.8066 O   0  0  0  0  0  0  0  0  0  0  0  0
    9.9655   15.1570   21.4937 C   0  0  0  0  0  0  0  0  0  0  0  0
    8.1249   12.0045   24.4059 C   0  0  0  0  0  0  0  0  0  0  0  0
  1  2  3  0
  2  3  1  0
  3  4  2  0
  4  5  1  0
  5  6  2  0
  6  7  1  0
  7  8  1  0
  8  9  1  0
  9 10  1  0
  9 11  1  0
  9 12  1  0
 12 13  1  0
 13 14  1  0
 14 15  1  0
 15 16  1  0
 16 17  1  6
 17 18  1  0
 17 19  1  0
 17 20  1  0
 16 21  1  0
  7 22  2  0
 22  3  1  0
 21 12  1  0
M  END
>  <ref_pdb>  (119) 
A3483a

>  <tags>  (119) 
{'fragmenstein_placed', 'openbind_a71ev2a_c1_fragmenstein'}

>  <distance_score>  (119) 
0.568673

>  <energy_score>  (119) 
-37.691074

>  <inchikey>  (119) 
IKIXKFUOGRZPFW-UHFFFAOYSA-N

>  <alias>  (119) 
N#Cc1cccc(NC(O)(O)N2CCC[C@H](C(N)(O)O)C2)c1

>  <smiles>  (119) 
C191452-P191

>  <HIPPO Pose ID>  (119) 
56101

>  <ref_mols>  (119) 
A0310a,A3509b

>  <HIPPO Compound ID>  (119) 
191001

$$$$
CC1=NC=C(N[C@@H](C)Cc2cocn2)C=Cc2ccc(Cc3cc(C)no3)cc21
     RDKit          3D

 29 32  0  0  0  0  0  0  0  0999 V2000
    3.2946   13.4494   26.5747 C   0  0  0  0  0  0  0  0  0  0  0  0
    4.3982   12.8598   27.4336 C   0  0  0  0  0  0  0  0  0  0  0  0
    4.1952   12.9074   28.7134 N   0  0  0  0  0  0  0  0  0  0  0  0
    5.1426   12.4626   29.5893 C   0  0  0  0  0  0  0  0  0  0  0  0
    5.5392   11.1925   29.8068 C   0  0  0  0  0  0  0  0  0  0  0  0
    6.3658   10.8366   30.8749 N   0  0  0  0  0  0  0  0  0  0  0  0
    6.0722   11.2587   32.2631 C   0  0  1  0  0  0  0  0  0  0  0  0
    5.4258   10.0986   33.0235 C   0  0  0  0  0  0  0  0  0  0  0  0
    7.3203   11.8370   32.9518 C   0  0  0  0  0  0  0  0  0  0  0  0
    8.4793   10.9151   33.0799 C   0  0  0  0  0  0  0  0  0  0  0  0
    9.7531   11.0501   32.5755 C   0  0  0  0  0  0  0  0  0  0  0  0
   10.4810    9.9641   32.9527 O   0  0  0  0  0  0  0  0  0  0  0  0
    9.6063    9.2348   33.6982 C   0  0  0  0  0  0  0  0  0  0  0  0
    8.4093    9.7618   33.8262 N   0  0  0  0  0  0  0  0  0  0  0  0
    5.0921   10.1016   28.9529 C   0  0  0  0  0  0  0  0  0  0  0  0
    5.2536    9.9893   27.6229 C   0  0  0  0  0  0  0  0  0  0  0  0
    5.9149   10.9569   26.7354 C   0  0  0  0  0  0  0  0  0  0  0  0
    6.8781   10.4959   25.8136 C   0  0  0  0  0  0  0  0  0  0  0  0
    7.5105   11.3664   24.9112 C   0  0  0  0  0  0  0  0  0  0  0  0
    7.1732   12.7213   24.9016 C   0  0  0  0  0  0  0  0  0  0  0  0
    7.5592   13.6605   23.7869 C   0  0  0  0  0  0  0  0  0  0  0  0
    8.9794   13.8697   23.4354 C   0  0  0  0  0  0  0  0  0  0  0  0
    9.5508   14.1727   22.2244 C   0  0  0  0  0  0  0  0  0  0  0  0
   10.8638   14.5632   22.5379 C   0  0  0  0  0  0  0  0  0  0  0  0
   11.8389   15.1634   21.6005 C   0  0  0  0  0  0  0  0  0  0  0  0
   11.1170   14.4118   23.8464 N   0  0  0  0  0  0  0  0  0  0  0  0
    9.9154   13.9872   24.4126 O   0  0  0  0  0  0  0  0  0  0  0  0
    6.2230   13.1822   25.8266 C   0  0  0  0  0  0  0  0  0  0  0  0
    5.5773   12.3122   26.7096 C   0  0  0  0  0  0  0  0  0  0  0  0
  1  2  1  0
  2  3  2  3
  3  4  1  0
  4  5  2  3
  5  6  1  0
  6  7  1  0
  7  8  1  1
  7  9  1  0
  9 10  1  0
 10 11  2  0
 11 12  1  0
 12 13  1  0
 13 14  2  0
  5 15  1  0
 15 16  2  3
 16 17  1  0
 17 18  2  0
 18 19  1  0
 19 20  2  0
 20 21  1  0
 21 22  1  0
 22 23  2  0
 23 24  1  0
 24 25  1  0
 24 26  2  0
 26 27  1  0
 20 28  1  0
 28 29  2  0
 29  2  1  0
 14 10  1  0
 29 17  1  0
 27 22  1  0
M  END
>  <ref_pdb>  (120) 
A3483a

>  <tags>  (120) 
{'fragmenstein_placed', 'openbind_a71ev2a_c1_fragmenstein'}

>  <distance_score>  (120) 
0.991166

>  <energy_score>  (120) 
-102.727399

>  <inchikey>  (120) 
XEWCIHXKBKXNHS-UHFFFAOYSA-N

>  <alias>  (120) 
CC1=NC=C(N[C@@H](C)Cc2cocn2)C=Cc2ccc(Cc3cc(C)no3)cc21

>  <smiles>  (120) 
C191893-P192

>  <HIPPO Pose ID>  (120) 
56424

>  <ref_mols>  (120) 
A3510a,A4998a

>  <HIPPO Compound ID>  (120) 
192498

$$$$
C[C@@H]1C[C@]2(CN1C1=NCc3cccc4c3c1nn4C)NCO[C@H]2N
     RDKit          3D

 24 28  0  0  0  0  0  0  0  0999 V2000
   12.1357   14.4339   24.3575 C   0  0  0  0  0  0  0  0  0  0  0  0
   11.4605   14.2372   23.0222 C   0  0  2  0  0  0  0  0  0  0  0  0
   11.8171   15.3088   21.9761 C   0  0  0  0  0  0  0  0  0  0  0  0
   10.6137   15.3091   20.9781 C   0  0  2  0  0  0  0  0  0  0  0  0
    9.6407   14.3239   21.6527 C   0  0  0  0  0  0  0  0  0  0  0  0
   10.0189   14.3916   23.0665 N   0  0  0  0  0  0  0  0  0  0  0  0
    9.1758   13.8652   24.0044 C   0  0  0  0  0  0  0  0  0  0  0  0
    8.5190   14.6326   24.8244 N   0  0  0  0  0  0  0  0  0  0  0  0
    7.4548   14.1201   25.7451 C   0  0  0  0  0  0  0  0  0  0  0  0
    7.2065   12.6389   25.7205 C   0  0  0  0  0  0  0  0  0  0  0  0
    6.2955   11.9020   26.4771 C   0  0  0  0  0  0  0  0  0  0  0  0
    6.2252   10.5058   26.3280 C   0  0  0  0  0  0  0  0  0  0  0  0
    7.0497    9.8061   25.4230 C   0  0  0  0  0  0  0  0  0  0  0  0
    7.9564   10.5594   24.6844 C   0  0  0  0  0  0  0  0  0  0  0  0
    8.0017   11.9190   24.8472 C   0  0  0  0  0  0  0  0  0  0  0  0
    8.9746   12.4210   23.9997 C   0  0  0  0  0  0  0  0  0  0  0  0
    9.5763   11.4382   23.3183 N   0  0  0  0  0  0  0  0  0  0  0  0
    8.9270   10.3118   23.7405 N   0  0  0  0  0  0  0  0  0  0  0  0
    9.3301    9.0298   23.2113 C   0  0  0  0  0  0  0  0  0  0  0  0
   11.1149   14.8870   19.6584 N   0  0  0  0  0  0  0  0  0  0  0  0
   10.4619   15.7753   18.7272 C   0  0  0  0  0  0  0  0  0  0  0  0
   10.0816   16.9717   19.3672 O   0  0  0  0  0  0  0  0  0  0  0  0
    9.9178   16.6831   20.7437 C   0  0  1  0  0  0  0  0  0  0  0  0
    8.4979   16.7752   21.0050 N   0  0  0  0  0  0  0  0  0  0  0  0
  2  1  1  1
  2  3  1  0
  4  3  1  1
  4  5  1  0
  5  6  1  0
  6  7  1  0
  7  8  2  0
  8  9  1  0
  9 10  1  0
 10 11  2  0
 11 12  1  0
 12 13  2  0
 13 14  1  0
 14 15  2  0
 15 16  1  0
 16 17  2  0
 17 18  1  0
 18 19  1  0
  4 20  1  0
 20 21  1  0
 21 22  1  0
 22 23  1  0
 23 24  1  6
  6  2  1  0
 16  7  1  0
 23  4  1  0
 15 10  1  0
 18 14  1  0
M  END
>  <ref_pdb>  (121) 
A3483a

>  <tags>  (121) 
{'fragmenstein_placed', 'openbind_a71ev2a_c1_fragmenstein'}

>  <distance_score>  (121) 
0.659183

>  <energy_score>  (121) 
-23.143948

>  <inchikey>  (121) 
FTPLNKSHYLFOCK-UHFFFAOYSA-N

>  <alias>  (121) 
C[C@@H]1C[C@]2(CN1C1=NCc3cccc4c3c1nn4C)NCO[C@H]2N

>  <smiles>  (121) 
C191974-P193

>  <HIPPO Pose ID>  (121) 
56433

>  <ref_mols>  (121) 
A0387a,A3593a

>  <HIPPO Compound ID>  (121) 
166559

$$$$
C[C@@H]1C[C@]2(CN[C@H]1C(=O)[C@@H](N)c1nn(C)c3ccc(NS(C)(=O)=O)cc13)NCO[C@H]2N
     RDKit          3D

 31 34  0  0  0  0  0  0  0  0999 V2000
   11.6500   16.1517   27.0473 C   0  0  0  0  0  0  0  0  0  0  0  0
   12.0732   14.7164   26.8743 C   0  0  2  0  0  0  0  0  0  0  0  0
   13.4130   14.3612   27.6234 C   0  0  0  0  0  0  0  0  0  0  0  0
   14.2527   13.1172   27.1076 C   0  0  2  0  0  0  0  0  0  0  0  0
   13.9657   12.8927   25.5983 C   0  0  0  0  0  0  0  0  0  0  0  0
   12.5795   12.9699   25.1465 N   0  0  0  0  0  0  0  0  0  0  0  0
   11.9493   14.2781   25.3740 C   0  0  1  0  0  0  0  0  0  0  0  0
   10.4388   14.2352   24.9474 C   0  0  0  0  0  0  0  0  0  0  0  0
    9.5682   14.7396   25.6759 O   0  0  0  0  0  0  0  0  0  0  0  0
    9.9889   13.6384   23.6077 C   0  0  1  0  0  0  0  0  0  0  0  0
   11.1014   13.5517   22.6322 N   0  0  0  0  0  0  0  0  0  0  0  0
    9.3460   12.2907   23.8181 C   0  0  0  0  0  0  0  0  0  0  0  0
    9.8454   11.2114   23.2000 N   0  0  0  0  0  0  0  0  0  0  0  0
    9.0915   10.1871   23.6331 N   0  0  0  0  0  0  0  0  0  0  0  0
    9.3697    8.8628   23.1323 C   0  0  0  0  0  0  0  0  0  0  0  0
    8.1308   10.5596   24.5360 C   0  0  0  0  0  0  0  0  0  0  0  0
    7.1883    9.8278   25.2616 C   0  0  0  0  0  0  0  0  0  0  0  0
    6.3219   10.5244   26.1057 C   0  0  0  0  0  0  0  0  0  0  0  0
    6.4020   11.9097   26.2195 C   0  0  0  0  0  0  0  0  0  0  0  0
    5.4187   12.6910   26.9001 N   0  0  0  0  0  0  0  0  0  0  0  0
    4.7696   12.1136   28.3449 S   0  0  0  0  0  0  0  0  0  0  0  0
    4.4716   13.6470   29.1933 C   0  0  0  0  0  0  0  0  0  0  0  0
    5.7823   11.3899   29.0844 O   0  0  0  0  0  0  0  0  0  0  0  0
    3.4914   11.5137   28.0190 O   0  0  0  0  0  0  0  0  0  0  0  0
    7.3226   12.6310   25.4538 C   0  0  0  0  0  0  0  0  0  0  0  0
    8.2329   11.9436   24.6333 C   0  0  0  0  0  0  0  0  0  0  0  0
   14.0188   11.9822   28.0418 N   0  0  0  0  0  0  0  0  0  0  0  0
   14.8705   12.2892   29.1976 C   0  0  0  0  0  0  0  0  0  0  0  0
   15.9471   13.1098   28.7488 O   0  0  0  0  0  0  0  0  0  0  0  0
   15.8088   13.0742   27.3390 C   0  0  1  0  0  0  0  0  0  0  0  0
   16.4767   11.8502   26.8735 N   0  0  0  0  0  0  0  0  0  0  0  0
  2  1  1  6
  2  3  1  0
  4  3  1  1
  4  5  1  0
  5  6  1  0
  6  7  1  0
  7  8  1  1
  8  9  2  0
  8 10  1  0
 10 11  1  6
 10 12  1  0
 12 13  2  0
 13 14  1  0
 14 15  1  0
 14 16  1  0
 16 17  2  0
 17 18  1  0
 18 19  2  0
 19 20  1  0
 20 21  1  0
 21 22  1  0
 21 23  2  0
 21 24  2  0
 19 25  1  0
 25 26  2  0
  4 27  1  0
 27 28  1  0
 28 29  1  0
 29 30  1  0
 30 31  1  1
  7  2  1  0
 26 12  1  0
 30  4  1  0
 26 16  1  0
M  END
>  <ref_pdb>  (122) 
A3483a

>  <tags>  (122) 
{'fragmenstein_placed', 'openbind_a71ev2a_c1_fragmenstein'}

>  <distance_score>  (122) 
0.902601

>  <energy_score>  (122) 
-49.739215

>  <inchikey>  (122) 
GYHNELMRIHFZDX-UHFFFAOYSA-N

>  <alias>  (122) 
C[C@@H]1C[C@]2(CN[C@H]1C(=O)[C@@H](N)c1nn(C)c3ccc(NS(C)(=O)=O)cc13)NCO[C@H]2N

>  <smiles>  (122) 
C191976-P193

>  <HIPPO Pose ID>  (122) 
56434

>  <ref_mols>  (122) 
A3593a,A0443a

>  <HIPPO Compound ID>  (122) 
193333

$$$$
CN[C@@](O)(N[C@@H](C)Cc1ncoc1N)c1nn(C)c2ccccc12
     RDKit          3D

 24 26  0  0  0  0  0  0  0  0999 V2000
    7.4154   15.2007   23.9179 C   0  0  0  0  0  0  0  0  0  0  0  0
    8.7440   14.6882   24.2838 N   0  0  0  0  0  0  0  0  0  0  0  0
    9.1749   13.6395   23.3946 C   0  0  1  0  0  0  0  0  0  0  0  0
    8.7685   13.8853   22.0802 O   0  0  0  0  0  0  0  0  0  0  0  0
   10.6073   13.5246   23.4715 N   0  0  0  0  0  0  0  0  0  0  0  0
   11.5407   14.5695   23.1043 C   0  0  1  0  0  0  0  0  0  0  0  0
   12.7573   14.1631   23.9380 C   0  0  0  0  0  0  0  0  0  0  0  0
   11.9455   14.6762   21.6169 C   0  0  0  0  0  0  0  0  0  0  0  0
   10.9939   15.4434   20.7793 C   0  0  0  0  0  0  0  0  0  0  0  0
   10.1811   16.4011   21.3335 N   0  0  0  0  0  0  0  0  0  0  0  0
    9.5018   16.8720   20.3159 C   0  0  0  0  0  0  0  0  0  0  0  0
    9.7989   16.2970   19.1194 O   0  0  0  0  0  0  0  0  0  0  0  0
   10.7635   15.3893   19.4225 C   0  0  0  0  0  0  0  0  0  0  0  0
   11.2795   14.6997   18.3978 N   0  0  0  0  0  0  0  0  0  0  0  0
    8.7087   12.2559   23.8387 C   0  0  0  0  0  0  0  0  0  0  0  0
    9.2691   11.1982   23.2113 N   0  0  0  0  0  0  0  0  0  0  0  0
    8.6846   10.1308   23.7564 N   0  0  0  0  0  0  0  0  0  0  0  0
    9.0371    8.8302   23.2407 C   0  0  0  0  0  0  0  0  0  0  0  0
    7.7789   10.4472   24.7349 C   0  0  0  0  0  0  0  0  0  0  0  0
    6.9361    9.6628   25.5190 C   0  0  0  0  0  0  0  0  0  0  0  0
    6.1225   10.2809   26.4697 C   0  0  0  0  0  0  0  0  0  0  0  0
    6.1510   11.6568   26.6329 C   0  0  0  0  0  0  0  0  0  0  0  0
    6.9866   12.4399   25.8315 C   0  0  0  0  0  0  0  0  0  0  0  0
    7.8005   11.8339   24.8491 C   0  0  0  0  0  0  0  0  0  0  0  0
  1  2  1  0
  2  3  1  0
  3  4  1  6
  3  5  1  0
  5  6  1  0
  6  7  1  1
  6  8  1  0
  8  9  1  0
  9 10  1  0
 10 11  2  0
 11 12  1  0
 12 13  1  0
 13 14  1  0
  3 15  1  0
 15 16  2  0
 16 17  1  0
 17 18  1  0
 17 19  1  0
 19 20  2  0
 20 21  1  0
 21 22  2  0
 22 23  1  0
 23 24  2  0
 13  9  2  0
 24 15  1  0
 24 19  1  0
M  END
>  <ref_pdb>  (123) 
A3483a

>  <tags>  (123) 
{'fragmenstein_placed', 'openbind_a71ev2a_c1_fragmenstein'}

>  <distance_score>  (123) 
0.895722

>  <energy_score>  (123) 
-51.6425

>  <inchikey>  (123) 
KLIJUPNPMOMPIT-UHFFFAOYSA-N

>  <alias>  (123) 
CN[C@@](O)(N[C@@H](C)Cc1ncoc1N)c1nn(C)c2ccccc12

>  <smiles>  (123) 
C192125-P193

>  <HIPPO Pose ID>  (123) 
56471

>  <ref_mols>  (123) 
A3593a,A4403a

>  <HIPPO Compound ID>  (123) 
195109

$$$$
Cc1cccc([C@H](C)[C@H](N2CCC[C@@H](CF)C2)S(=O)(=O)NCc2ncc(C)o2)c1
     RDKit          3D

 29 31  0  0  0  0  0  0  0  0999 V2000
    9.8042   10.0800   23.2243 C   0  0  0  0  0  0  0  0  0  0  0  0
    8.9678   10.8855   24.1600 C   0  0  0  0  0  0  0  0  0  0  0  0
    8.1893   10.2070   25.0843 C   0  0  0  0  0  0  0  0  0  0  0  0
    7.3775   10.8634   25.9895 C   0  0  0  0  0  0  0  0  0  0  0  0
    7.3824   12.2393   26.0078 C   0  0  0  0  0  0  0  0  0  0  0  0
    8.1097   12.9634   25.0594 C   0  0  0  0  0  0  0  0  0  0  0  0
    7.9991   14.4674   24.9971 C   0  0  2  0  0  0  0  0  0  0  0  0
    8.2628   15.0943   26.3774 C   0  0  0  0  0  0  0  0  0  0  0  0
    6.6964   15.0389   24.3362 C   0  0  2  0  0  0  0  0  0  0  0  0
    5.4625   15.1068   25.1735 N   0  0  0  0  0  0  0  0  0  0  0  0
    4.8120   16.4074   25.2619 C   0  0  0  0  0  0  0  0  0  0  0  0
    3.4021   16.3598   25.8551 C   0  0  0  0  0  0  0  0  0  0  0  0
    3.3351   15.4852   27.1038 C   0  0  0  0  0  0  0  0  0  0  0  0
    4.1539   14.1872   26.9595 C   0  0  1  0  0  0  0  0  0  0  0  0
    3.3859   12.9885   27.4963 C   0  0  0  0  0  0  0  0  0  0  0  0
    2.2369   12.8181   26.7936 F   0  0  0  0  0  0  0  0  0  0  0  0
    4.6323   13.9738   25.5078 C   0  0  0  0  0  0  0  0  0  0  0  0
    6.6868   14.6083   22.5177 S   0  0  0  0  0  0  0  0  0  0  0  0
    6.6308   13.1850   22.2746 O   0  0  0  0  0  0  0  0  0  0  0  0
    7.7395   15.3690   21.8783 O   0  0  0  0  0  0  0  0  0  0  0  0
    5.2695   15.2624   21.9627 N   0  0  0  0  0  0  0  0  0  0  0  0
    4.0212   14.5475   22.1645 C   0  0  0  0  0  0  0  0  0  0  0  0
    3.3151   14.3554   20.8688 C   0  0  0  0  0  0  0  0  0  0  0  0
    2.3928   15.1197   20.3065 N   0  0  0  0  0  0  0  0  0  0  0  0
    2.0687   14.4356   19.1562 C   0  0  0  0  0  0  0  0  0  0  0  0
    2.8518   13.3133   19.0386 C   0  0  0  0  0  0  0  0  0  0  0  0
    3.0129   12.2586   18.0288 C   0  0  0  0  0  0  0  0  0  0  0  0
    3.6471   13.2426   20.1442 O   0  0  0  0  0  0  0  0  0  0  0  0
    8.9298   12.2747   24.1482 C   0  0  0  0  0  0  0  0  0  0  0  0
  1  2  1  0
  2  3  2  0
  3  4  1  0
  4  5  2  0
  5  6  1  0
  6  7  1  0
  7  8  1  1
  7  9  1  0
  9 10  1  1
 10 11  1  0
 11 12  1  0
 12 13  1  0
 13 14  1  0
 14 15  1  6
 15 16  1  0
 14 17  1  0
  9 18  1  0
 18 19  2  0
 18 20  2  0
 18 21  1  0
 21 22  1  0
 22 23  1  0
 23 24  2  0
 24 25  1  0
 25 26  2  0
 26 27  1  0
 26 28  1  0
  6 29  2  0
 29  2  1  0
 17 10  1  0
 28 23  1  0
M  END
>  <ref_pdb>  (124) 
A3483a

>  <tags>  (124) 
{'fragmenstein_placed', 'openbind_a71ev2a_c1_fragmenstein'}

>  <distance_score>  (124) 
0.554754

>  <energy_score>  (124) 
-2059.968216

>  <inchikey>  (124) 
HEQRNUOIDXZIGG-UHFFFAOYSA-N

>  <alias>  (124) 
Cc1cccc([C@H](C)[C@H](N2CCC[C@@H](CF)C2)S(=O)(=O)NCc2ncc(C)o2)c1

>  <smiles>  (124) 
C194109-P200

>  <HIPPO Pose ID>  (124) 
57629

>  <ref_mols>  (124) 
A3623a,A0487a

>  <HIPPO Compound ID>  (124) 
193306

$$$$
Cc1cccc([C@](C)(CS(=O)(=O)NCc2ncc(C)o2)N2CCC[C@@H](CCO)C2)c1
     RDKit          3D

 30 32  0  0  0  0  0  0  0  0999 V2000
    9.8755    9.5747   23.2535 C   0  0  0  0  0  0  0  0  0  0  0  0
    9.0509   10.4459   24.1303 C   0  0  0  0  0  0  0  0  0  0  0  0
    8.1734    9.9780   25.0669 C   0  0  0  0  0  0  0  0  0  0  0  0
    7.3124   10.8010   25.7831 C   0  0  0  0  0  0  0  0  0  0  0  0
    7.3498   12.1612   25.5646 C   0  0  0  0  0  0  0  0  0  0  0  0
    8.3014   12.6978   24.6914 C   0  0  0  0  0  0  0  0  0  0  0  0
    8.4689   14.2066   24.5059 C   0  0  2  0  0  0  0  0  0  0  0  0
    8.6117   14.7958   25.9697 C   0  0  0  0  0  0  0  0  0  0  0  0
    7.1196   14.8675   24.0436 C   0  0  0  0  0  0  0  0  0  0  0  0
    6.6626   14.7642   22.3425 S   0  0  0  0  0  0  0  0  0  0  0  0
    6.5986   13.3766   21.9394 O   0  0  0  0  0  0  0  0  0  0  0  0
    7.4526   15.7295   21.6117 O   0  0  0  0  0  0  0  0  0  0  0  0
    5.1405   15.4162   22.3299 N   0  0  0  0  0  0  0  0  0  0  0  0
    3.9701   14.5529   22.3628 C   0  0  0  0  0  0  0  0  0  0  0  0
    3.3837   14.3421   21.0105 C   0  0  0  0  0  0  0  0  0  0  0  0
    2.5067   15.1015   20.3733 N   0  0  0  0  0  0  0  0  0  0  0  0
    2.2272   14.3831   19.2327 C   0  0  0  0  0  0  0  0  0  0  0  0
    3.0054   13.2525   19.1860 C   0  0  0  0  0  0  0  0  0  0  0  0
    3.1935   12.1683   18.2099 C   0  0  0  0  0  0  0  0  0  0  0  0
    3.7479   13.2095   20.3324 O   0  0  0  0  0  0  0  0  0  0  0  0
    9.7343   14.5391   23.7585 N   0  0  0  0  0  0  0  0  0  0  0  0
   11.0083   14.2726   24.4594 C   0  0  0  0  0  0  0  0  0  0  0  0
   12.1968   14.0876   23.5135 C   0  0  0  0  0  0  0  0  0  0  0  0
   12.1774   15.1338   22.4040 C   0  0  0  0  0  0  0  0  0  0  0  0
   10.8471   15.1860   21.6675 C   0  0  1  0  0  0  0  0  0  0  0  0
   11.0089   14.9156   20.1784 C   0  0  0  0  0  0  0  0  0  0  0  0
    9.7823   15.3462   19.4007 C   0  0  0  0  0  0  0  0  0  0  0  0
    9.4901   16.7237   19.5579 O   0  0  0  0  0  0  0  0  0  0  0  0
    9.8664   14.2260   22.3193 C   0  0  0  0  0  0  0  0  0  0  0  0
    9.1394   11.8018   24.0194 C   0  0  0  0  0  0  0  0  0  0  0  0
  1  2  1  0
  2  3  2  0
  3  4  1  0
  4  5  2  0
  5  6  1  0
  6  7  1  0
  7  8  1  1
  7  9  1  0
  9 10  1  0
 10 11  2  0
 10 12  2  0
 10 13  1  0
 13 14  1  0
 14 15  1  0
 15 16  2  0
 16 17  1  0
 17 18  2  0
 18 19  1  0
 18 20  1  0
  7 21  1  0
 21 22  1  0
 22 23  1  0
 23 24  1  0
 24 25  1  0
 25 26  1  6
 26 27  1  0
 27 28  1  0
 25 29  1  0
  6 30  2  0
 30  2  1  0
 20 15  1  0
 29 21  1  0
M  END
>  <ref_pdb>  (125) 
A3483a

>  <tags>  (125) 
{'fragmenstein_placed', 'openbind_a71ev2a_c1_fragmenstein'}

>  <distance_score>  (125) 
0.76777

>  <energy_score>  (125) 
-66.576033

>  <inchikey>  (125) 
ICWVNBYGDBEEPQ-UHFFFAOYSA-N

>  <alias>  (125) 
Cc1cccc([C@](C)(CS(=O)(=O)NCc2ncc(C)o2)N2CCC[C@@H](CCO)C2)c1

>  <smiles>  (125) 
C194118-P200

>  <HIPPO Pose ID>  (125) 
57640

>  <ref_mols>  (125) 
A3623a,A0351a

>  <HIPPO Compound ID>  (125) 
192757

$$$$
Cc1cccc2c1NC(=O)[C@H]1C[C@@H](C(N)(O)O)CN1C(=O)NC2
     RDKit          3D

 23 25  0  0  0  0  0  0  0  0999 V2000
    6.2551   12.4183   25.8742 C   0  0  0  0  0  0  0  0  0  0  0  0
    7.3878   11.8121   25.0869 C   0  0  0  0  0  0  0  0  0  0  0  0
    7.3897   10.4134   24.9325 C   0  0  0  0  0  0  0  0  0  0  0  0
    8.3847    9.7874   24.2038 C   0  0  0  0  0  0  0  0  0  0  0  0
    9.4493   10.5427   23.7408 C   0  0  0  0  0  0  0  0  0  0  0  0
    9.5298   11.9351   23.9865 C   0  0  0  0  0  0  0  0  0  0  0  0
    8.4148   12.6034   24.5118 C   0  0  0  0  0  0  0  0  0  0  0  0
    8.2152   14.0101   24.5153 N   0  0  0  0  0  0  0  0  0  0  0  0
    8.5151   14.9791   23.5850 C   0  0  0  0  0  0  0  0  0  0  0  0
    7.8529   16.0164   23.6429 O   0  0  0  0  0  0  0  0  0  0  0  0
    9.5883   14.7827   22.5297 C   0  0  1  0  0  0  0  0  0  0  0  0
    9.3405   15.4426   21.1899 C   0  0  0  0  0  0  0  0  0  0  0  0
   10.7364   15.2216   20.5863 C   0  0  1  0  0  0  0  0  0  0  0  0
   10.9364   15.6857   19.1778 C   0  0  0  0  0  0  0  0  0  0  0  0
    9.9620   15.0627   18.3513 N   0  0  0  0  0  0  0  0  0  0  0  0
   10.7514   17.0474   19.0828 O   0  0  0  0  0  0  0  0  0  0  0  0
   12.1607   15.2879   18.6480 O   0  0  0  0  0  0  0  0  0  0  0  0
   11.5880   15.8427   21.6792 C   0  0  0  0  0  0  0  0  0  0  0  0
   10.9418   15.2746   22.8617 N   0  0  0  0  0  0  0  0  0  0  0  0
   11.7174   14.7548   23.8407 C   0  0  0  0  0  0  0  0  0  0  0  0
   12.8682   15.0744   24.1034 O   0  0  0  0  0  0  0  0  0  0  0  0
   11.1622   13.7421   24.5462 N   0  0  0  0  0  0  0  0  0  0  0  0
   10.8982   12.5384   23.8040 C   0  0  0  0  0  0  0  0  0  0  0  0
  1  2  1  0
  2  3  2  0
  3  4  1  0
  4  5  2  0
  5  6  1  0
  6  7  2  0
  7  8  1  0
  8  9  1  0
  9 10  2  0
  9 11  1  0
 11 12  1  6
 12 13  1  0
 13 14  1  6
 14 15  1  0
 14 16  1  0
 14 17  1  0
 13 18  1  0
 18 19  1  0
 19 20  1  0
 20 21  2  0
 20 22  1  0
 22 23  1  0
  7  2  1  0
 19 11  1  0
 23  6  1  0
M  END
>  <ref_pdb>  (126) 
A3685a

>  <tags>  (126) 
{'fragmenstein_placed', 'openbind_a71ev2a_c1_fragmenstein'}

>  <distance_score>  (126) 
0.865272

>  <energy_score>  (126) 
-174.858665

>  <inchikey>  (126) 
COCQDOCTWRSQRV-UHFFFAOYSA-N

>  <alias>  (126) 
Cc1cccc2c1NC(=O)[C@H]1C[C@@H](C(N)(O)O)CN1C(=O)NC2

>  <smiles>  (126) 
C279399-P208

>  <HIPPO Pose ID>  (126) 
58797

>  <ref_mols>  (126) 
A3706b,A2454a

>  <HIPPO Compound ID>  (126) 
279399

$$$$
COCC(=O)Nc1c(Cl)cc(C)cc1O[C@@]1(c2ncccc2O)CCC[C@H](C(F)F)C1
     RDKit          3D

 31 33  0  0  0  0  0  0  0  0999 V2000
    6.0594   16.0512   28.8834 C   0  0  0  0  0  0  0  0  0  0  0  0
    7.0156   15.1427   28.3516 O   0  0  0  0  0  0  0  0  0  0  0  0
    7.0663   15.2321   26.9389 C   0  0  0  0  0  0  0  0  0  0  0  0
    8.1202   14.3082   26.2847 C   0  0  0  0  0  0  0  0  0  0  0  0
    9.2719   14.4555   26.4540 O   0  0  0  0  0  0  0  0  0  0  0  0
    7.3469   13.2331   25.4461 N   0  0  0  0  0  0  0  0  0  0  0  0
    7.8147   12.1158   24.7565 C   0  0  0  0  0  0  0  0  0  0  0  0
    7.4073   10.8903   25.2795 C   0  0  0  0  0  0  0  0  0  0  0  0
    6.2009   10.7817   26.5223 Cl  0  0  0  0  0  0  0  0  0  0  0  0
    7.9884    9.7131   24.8277 C   0  0  0  0  0  0  0  0  0  0  0  0
    8.9885    9.7070   23.8725 C   0  0  0  0  0  0  0  0  0  0  0  0
    9.6633    8.4572   23.4262 C   0  0  0  0  0  0  0  0  0  0  0  0
    9.2963   10.9044   23.2699 C   0  0  0  0  0  0  0  0  0  0  0  0
    8.6473   12.0879   23.6273 C   0  0  0  0  0  0  0  0  0  0  0  0
    8.7657   12.9766   22.5827 O   0  0  0  0  0  0  0  0  0  0  0  0
    8.8419   14.3827   22.7855 C   0  0  1  0  0  0  0  0  0  0  0  0
    7.3781   14.8211   23.0966 C   0  0  0  0  0  0  0  0  0  0  0  0
    7.1309   15.8066   23.9812 N   0  0  0  0  0  0  0  0  0  0  0  0
    5.8317   16.1514   24.2047 C   0  0  0  0  0  0  0  0  0  0  0  0
    4.7259   15.5627   23.6375 C   0  0  0  0  0  0  0  0  0  0  0  0
    4.9545   14.5927   22.7028 C   0  0  0  0  0  0  0  0  0  0  0  0
    6.2735   14.2405   22.4217 C   0  0  0  0  0  0  0  0  0  0  0  0
    6.4121   13.2864   21.4639 O   0  0  0  0  0  0  0  0  0  0  0  0
   10.1831   14.4377   23.6069 C   0  0  0  0  0  0  0  0  0  0  0  0
   11.4431   14.0540   22.8091 C   0  0  0  0  0  0  0  0  0  0  0  0
   11.5935   14.8901   21.5488 C   0  0  0  0  0  0  0  0  0  0  0  0
   10.3467   14.7522   20.6887 C   0  0  2  0  0  0  0  0  0  0  0  0
   10.4700   15.4980   19.3706 C   0  0  0  0  0  0  0  0  0  0  0  0
    9.3076   15.3932   18.6884 F   0  0  0  0  0  0  0  0  0  0  0  0
   11.4280   14.8959   18.6215 F   0  0  0  0  0  0  0  0  0  0  0  0
    9.0933   15.1544   21.4510 C   0  0  0  0  0  0  0  0  0  0  0  0
  1  2  1  0
  2  3  1  0
  3  4  1  0
  4  5  2  0
  4  6  1  0
  6  7  1  0
  7  8  2  0
  8  9  1  0
  8 10  1  0
 10 11  2  0
 11 12  1  0
 11 13  1  0
 13 14  2  0
 14 15  1  0
 16 15  1  6
 16 17  1  0
 17 18  2  0
 18 19  1  0
 19 20  2  0
 20 21  1  0
 21 22  2  0
 22 23  1  0
 16 24  1  0
 24 25  1  0
 25 26  1  0
 26 27  1  0
 27 28  1  6
 28 29  1  0
 28 30  1  0
 27 31  1  0
 14  7  1  0
 31 16  1  0
 22 17  1  0
M  END
>  <ref_pdb>  (127) 
A3685a

>  <tags>  (127) 
{'fragmenstein_placed', 'openbind_a71ev2a_c1_fragmenstein'}

>  <distance_score>  (127) 
0.920332

>  <energy_score>  (127) 
-17.326639

>  <inchikey>  (127) 
YWPKEXDUKMIEPU-UHFFFAOYSA-N

>  <alias>  (127) 
COCC(=O)Nc1c(Cl)cc(C)cc1O[C@@]1(c2ncccc2O)CCC[C@H](C(F)F)C1

>  <smiles>  (127) 
C280132-P211

>  <HIPPO Pose ID>  (127) 
59537

>  <ref_mols>  (127) 
A4381a,A3522a

>  <HIPPO Compound ID>  (127) 
280132

$$$$
COCC(=O)Nc1c(Cl)cc(C)cc1N(Cc1ncccn1)N1CCC[C@H](CCO)C1
     RDKit          3D

 31 33  0  0  0  0  0  0  0  0999 V2000
    6.4393   16.0145   29.2347 C   0  0  0  0  0  0  0  0  0  0  0  0
    6.2895   16.6283   27.9682 O   0  0  0  0  0  0  0  0  0  0  0  0
    5.9802   15.6834   26.9597 C   0  0  0  0  0  0  0  0  0  0  0  0
    7.2001   14.8848   26.4452 C   0  0  0  0  0  0  0  0  0  0  0  0
    8.2992   15.2904   26.4664 O   0  0  0  0  0  0  0  0  0  0  0  0
    6.6236   13.5527   25.8653 N   0  0  0  0  0  0  0  0  0  0  0  0
    7.2462   12.5367   25.1390 C   0  0  0  0  0  0  0  0  0  0  0  0
    6.9869   11.2175   25.5410 C   0  0  0  0  0  0  0  0  0  0  0  0
    5.8521   10.8729   26.8052 Cl  0  0  0  0  0  0  0  0  0  0  0  0
    7.6978   10.1476   24.9999 C   0  0  0  0  0  0  0  0  0  0  0  0
    8.6719   10.3492   24.0376 C   0  0  0  0  0  0  0  0  0  0  0  0
    9.5002    9.2197   23.5017 C   0  0  0  0  0  0  0  0  0  0  0  0
    8.8790   11.6539   23.5995 C   0  0  0  0  0  0  0  0  0  0  0  0
    8.1490   12.7778   24.0890 C   0  0  0  0  0  0  0  0  0  0  0  0
    8.3550   14.0432   23.4731 N   0  0  0  0  0  0  0  0  0  0  0  0
    7.2102   14.9915   23.2830 C   0  0  0  0  0  0  0  0  0  0  0  0
    5.9058   14.4701   22.7041 C   0  0  0  0  0  0  0  0  0  0  0  0
    5.8879   13.7913   21.5345 N   0  0  0  0  0  0  0  0  0  0  0  0
    4.6675   13.5360   21.0123 C   0  0  0  0  0  0  0  0  0  0  0  0
    3.4825   13.8946   21.6046 C   0  0  0  0  0  0  0  0  0  0  0  0
    3.6045   14.5637   22.7928 C   0  0  0  0  0  0  0  0  0  0  0  0
    4.7880   14.8883   23.3435 N   0  0  0  0  0  0  0  0  0  0  0  0
    9.5285   14.1425   22.6760 N   0  0  0  0  0  0  0  0  0  0  0  0
   10.7383   14.2930   23.4887 C   0  0  0  0  0  0  0  0  0  0  0  0
   11.9933   14.2791   22.6333 C   0  0  0  0  0  0  0  0  0  0  0  0
   11.8808   15.2491   21.4688 C   0  0  0  0  0  0  0  0  0  0  0  0
   10.6319   14.8908   20.6543 C   0  0  2  0  0  0  0  0  0  0  0  0
   10.4317   15.6667   19.3577 C   0  0  0  0  0  0  0  0  0  0  0  0
   11.2610   15.0879   18.2337 C   0  0  0  0  0  0  0  0  0  0  0  0
   12.4781   14.5635   18.7030 O   0  0  0  0  0  0  0  0  0  0  0  0
    9.4188   15.0514   21.5427 C   0  0  0  0  0  0  0  0  0  0  0  0
  1  2  1  0
  2  3  1  0
  3  4  1  0
  4  5  2  0
  4  6  1  0
  6  7  1  0
  7  8  2  0
  8  9  1  0
  8 10  1  0
 10 11  2  0
 11 12  1  0
 11 13  1  0
 13 14  2  0
 14 15  1  0
 15 16  1  0
 16 17  1  0
 17 18  2  0
 18 19  1  0
 19 20  2  0
 20 21  1  0
 21 22  2  0
 15 23  1  0
 23 24  1  0
 24 25  1  0
 25 26  1  0
 26 27  1  0
 27 28  1  6
 28 29  1  0
 29 30  1  0
 27 31  1  0
 14  7  1  0
 22 17  1  0
 31 23  1  0
M  END
>  <ref_pdb>  (128) 
A3685a

>  <tags>  (128) 
{'fragmenstein_placed', 'openbind_a71ev2a_c1_fragmenstein'}

>  <distance_score>  (128) 
0.887582

>  <energy_score>  (128) 
-27.460806

>  <inchikey>  (128) 
TXMSFQQPVYLOJC-UHFFFAOYSA-N

>  <alias>  (128) 
COCC(=O)Nc1c(Cl)cc(C)cc1N(Cc1ncccn1)N1CCC[C@H](CCO)C1

>  <smiles>  (128) 
C280144-P211

>  <HIPPO Pose ID>  (128) 
59549

>  <ref_mols>  (128) 
A4283b,A3522a

>  <HIPPO Compound ID>  (128) 
280144

$$$$
Cc1cc(C#N)ccc1C(=O)C(=O)c1cncc(C(N)(O)O)c1
     RDKit          3D

 23 24  0  0  0  0  0  0  0  0999 V2000
    9.0825    9.8151   24.0316 C   0  0  0  0  0  0  0  0  0  0  0  0
    8.1812   10.6001   24.9498 C   0  0  0  0  0  0  0  0  0  0  0  0
    7.1960    9.9392   25.6926 C   0  0  0  0  0  0  0  0  0  0  0  0
    6.3017   10.6546   26.4978 C   0  0  0  0  0  0  0  0  0  0  0  0
    5.2592    9.9753   27.2038 C   0  0  0  0  0  0  0  0  0  0  0  0
    4.3893    9.4812   27.7897 N   0  0  0  0  0  0  0  0  0  0  0  0
    6.4029   12.0454   26.5957 C   0  0  0  0  0  0  0  0  0  0  0  0
    7.3921   12.7214   25.8869 C   0  0  0  0  0  0  0  0  0  0  0  0
    8.2730   11.9953   25.0795 C   0  0  0  0  0  0  0  0  0  0  0  0
    9.3119   12.7179   24.3436 C   0  0  0  0  0  0  0  0  0  0  0  0
   10.4874   12.4927   24.5794 O   0  0  0  0  0  0  0  0  0  0  0  0
    8.8885   13.6045   23.1990 C   0  0  0  0  0  0  0  0  0  0  0  0
    7.7887   13.3913   22.6943 O   0  0  0  0  0  0  0  0  0  0  0  0
    9.8441   14.5531   22.6077 C   0  0  0  0  0  0  0  0  0  0  0  0
   10.9753   15.0189   23.2589 C   0  0  0  0  0  0  0  0  0  0  0  0
   11.9580   15.7063   22.6394 N   0  0  0  0  0  0  0  0  0  0  0  0
   11.8066   15.9082   21.3009 C   0  0  0  0  0  0  0  0  0  0  0  0
   10.6953   15.5058   20.5582 C   0  0  0  0  0  0  0  0  0  0  0  0
   10.6651   15.5712   19.0551 C   0  0  0  0  0  0  0  0  0  0  0  0
   11.4507   14.5300   18.4890 N   0  0  0  0  0  0  0  0  0  0  0  0
   11.1329   16.7701   18.5884 O   0  0  0  0  0  0  0  0  0  0  0  0
    9.3939   15.4606   18.5112 O   0  0  0  0  0  0  0  0  0  0  0  0
    9.6779   14.8635   21.2629 C   0  0  0  0  0  0  0  0  0  0  0  0
  1  2  1  0
  2  3  2  0
  3  4  1  0
  4  5  1  0
  5  6  3  0
  4  7  2  0
  7  8  1  0
  8  9  2  0
  9 10  1  0
 10 11  2  0
 10 12  1  0
 12 13  2  0
 12 14  1  0
 14 15  2  0
 15 16  1  0
 16 17  2  0
 17 18  1  0
 18 19  1  0
 19 20  1  0
 19 21  1  0
 19 22  1  0
 18 23  2  0
  9  2  1  0
 23 14  1  0
M  END
>  <ref_pdb>  (129) 
A3685a

>  <tags>  (129) 
{'fragmenstein_placed', 'openbind_a71ev2a_c1_fragmenstein'}

>  <distance_score>  (129) 
0.690194

>  <energy_score>  (129) 
-31.363881

>  <inchikey>  (129) 
LLYQZULXQHKWJM-UHFFFAOYSA-N

>  <alias>  (129) 
Cc1cc(C#N)ccc1C(=O)C(=O)c1cncc(C(N)(O)O)c1

>  <smiles>  (129) 
C281589-P218

>  <HIPPO Pose ID>  (129) 
60395

>  <ref_mols>  (129) 
A3557b,A4921a

>  <HIPPO Compound ID>  (129) 
281589

$$$$
CCc1ccc(Cl)cc1C(=O)C(=O)c1cncc(C(N)(O)O)c1
     RDKit          3D

 23 24  0  0  0  0  0  0  0  0999 V2000
    5.5400   11.2488   27.1583 C   0  0  0  0  0  0  0  0  0  0  0  0
    6.6082   12.0280   26.4036 C   0  0  0  0  0  0  0  0  0  0  0  0
    7.5654   11.2234   25.5784 C   0  0  0  0  0  0  0  0  0  0  0  0
    7.4786    9.8359   25.5686 C   0  0  0  0  0  0  0  0  0  0  0  0
    8.3258    9.1023   24.7681 C   0  0  0  0  0  0  0  0  0  0  0  0
    9.2524    9.7103   23.9571 C   0  0  0  0  0  0  0  0  0  0  0  0
   10.2345    8.7121   23.0120 Cl  0  0  0  0  0  0  0  0  0  0  0  0
    9.3708   11.0828   23.9369 C   0  0  0  0  0  0  0  0  0  0  0  0
    8.5301   11.8395   24.7592 C   0  0  0  0  0  0  0  0  0  0  0  0
    8.6676   13.3063   24.6869 C   0  0  0  0  0  0  0  0  0  0  0  0
    8.7815   14.0121   25.6749 O   0  0  0  0  0  0  0  0  0  0  0  0
    8.6858   13.8821   23.2908 C   0  0  0  0  0  0  0  0  0  0  0  0
    7.7945   13.5273   22.5237 O   0  0  0  0  0  0  0  0  0  0  0  0
    9.8506   14.6504   22.8280 C   0  0  0  0  0  0  0  0  0  0  0  0
   10.8149   15.1660   23.6771 C   0  0  0  0  0  0  0  0  0  0  0  0
   11.9492   15.7537   23.2382 N   0  0  0  0  0  0  0  0  0  0  0  0
   12.1119   15.8361   21.8913 C   0  0  0  0  0  0  0  0  0  0  0  0
   11.2356   15.3014   20.9472 C   0  0  0  0  0  0  0  0  0  0  0  0
   11.5355   15.3607   19.4737 C   0  0  0  0  0  0  0  0  0  0  0  0
   10.8930   14.4155   18.6468 N   0  0  0  0  0  0  0  0  0  0  0  0
   11.0918   16.5901   19.0137 O   0  0  0  0  0  0  0  0  0  0  0  0
   12.8777   15.1925   19.1719 O   0  0  0  0  0  0  0  0  0  0  0  0
   10.0552   14.7533   21.4530 C   0  0  0  0  0  0  0  0  0  0  0  0
  1  2  1  0
  2  3  1  0
  3  4  2  0
  4  5  1  0
  5  6  2  0
  6  7  1  0
  6  8  1  0
  8  9  2  0
  9 10  1  0
 10 11  2  0
 10 12  1  0
 12 13  2  0
 12 14  1  0
 14 15  2  0
 15 16  1  0
 16 17  2  0
 17 18  1  0
 18 19  1  0
 19 20  1  0
 19 21  1  0
 19 22  1  0
 18 23  2  0
  9  3  1  0
 23 14  1  0
M  END
>  <ref_pdb>  (130) 
A3685a

>  <tags>  (130) 
{'fragmenstein_placed', 'openbind_a71ev2a_c1_fragmenstein'}

>  <distance_score>  (130) 
0.978692

>  <energy_score>  (130) 
-21.416565

>  <inchikey>  (130) 
HGTOZLYKKRRHCA-UHFFFAOYSA-N

>  <alias>  (130) 
CCc1ccc(Cl)cc1C(=O)C(=O)c1cncc(C(N)(O)O)c1

>  <smiles>  (130) 
C281613-P218

>  <HIPPO Pose ID>  (130) 
60402

>  <ref_mols>  (130) 
A3557b,A5015b

>  <HIPPO Compound ID>  (130) 
281613

$$$$
CCc1cc(Cl)ccc1C(=O)C(=O)c1cncc(C(N)(O)O)c1
     RDKit          3D

 23 24  0  0  0  0  0  0  0  0999 V2000
    9.2926    8.5840   23.4839 C   0  0  0  0  0  0  0  0  0  0  0  0
    9.3213   10.0394   23.8641 C   0  0  0  0  0  0  0  0  0  0  0  0
    8.2922   10.5718   24.8471 C   0  0  0  0  0  0  0  0  0  0  0  0
    7.3477    9.7949   25.5164 C   0  0  0  0  0  0  0  0  0  0  0  0
    6.3804   10.3943   26.3394 C   0  0  0  0  0  0  0  0  0  0  0  0
    5.1741    9.4370   27.0911 Cl  0  0  0  0  0  0  0  0  0  0  0  0
    6.3517   11.7705   26.5450 C   0  0  0  0  0  0  0  0  0  0  0  0
    7.2962   12.5653   25.9180 C   0  0  0  0  0  0  0  0  0  0  0  0
    8.2438   11.9567   25.0900 C   0  0  0  0  0  0  0  0  0  0  0  0
    9.2592   12.7915   24.4664 C   0  0  0  0  0  0  0  0  0  0  0  0
   10.4311   12.6358   24.7710 O   0  0  0  0  0  0  0  0  0  0  0  0
    8.8520   13.7029   23.3492 C   0  0  0  0  0  0  0  0  0  0  0  0
    7.7507   13.5300   22.8376 O   0  0  0  0  0  0  0  0  0  0  0  0
    9.8542   14.6005   22.7702 C   0  0  0  0  0  0  0  0  0  0  0  0
   10.9709   15.0751   23.4392 C   0  0  0  0  0  0  0  0  0  0  0  0
   11.9850   15.7206   22.8233 N   0  0  0  0  0  0  0  0  0  0  0  0
   11.8830   15.8728   21.4755 C   0  0  0  0  0  0  0  0  0  0  0  0
   10.7906   15.4502   20.7241 C   0  0  0  0  0  0  0  0  0  0  0  0
   10.7487   15.5170   19.2347 C   0  0  0  0  0  0  0  0  0  0  0  0
   11.4676   14.4695   18.6065 N   0  0  0  0  0  0  0  0  0  0  0  0
   11.1777   16.7126   18.7285 O   0  0  0  0  0  0  0  0  0  0  0  0
    9.4593   15.4297   18.7493 O   0  0  0  0  0  0  0  0  0  0  0  0
    9.7464   14.8375   21.4127 C   0  0  0  0  0  0  0  0  0  0  0  0
  1  2  1  0
  2  3  1  0
  3  4  2  0
  4  5  1  0
  5  6  1  0
  5  7  2  0
  7  8  1  0
  8  9  2  0
  9 10  1  0
 10 11  2  0
 10 12  1  0
 12 13  2  0
 12 14  1  0
 14 15  2  0
 15 16  1  0
 16 17  2  0
 17 18  1  0
 18 19  1  0
 19 20  1  0
 19 21  1  0
 19 22  1  0
 18 23  2  0
  9  3  1  0
 23 14  1  0
M  END
>  <ref_pdb>  (131) 
A3685a

>  <tags>  (131) 
{'fragmenstein_placed', 'openbind_a71ev2a_c1_fragmenstein'}

>  <distance_score>  (131) 
0.624155

>  <energy_score>  (131) 
-30.171853

>  <inchikey>  (131) 
BFUASKILTZIVFE-UHFFFAOYSA-N

>  <alias>  (131) 
CCc1cc(Cl)ccc1C(=O)C(=O)c1cncc(C(N)(O)O)c1

>  <smiles>  (131) 
C281688-P218

>  <HIPPO Pose ID>  (131) 
60418

>  <ref_mols>  (131) 
A3557b,A5608a

>  <HIPPO Compound ID>  (131) 
281688

$$$$
Cc1c(NC(=O)c2cc(C(N)(N)O)c[nH]c2=O)ccc2[nH]ccc12
     RDKit          3D

 24 26  0  0  0  0  0  0  0  0999 V2000
    9.8928   10.5335   23.2361 C   0  0  0  0  0  0  0  0  0  0  0  0
    9.0957   11.6212   23.9033 C   0  0  0  0  0  0  0  0  0  0  0  0
    9.2321   12.9760   23.5671 C   0  0  0  0  0  0  0  0  0  0  0  0
   10.3600   13.5218   23.0047 N   0  0  0  0  0  0  0  0  0  0  0  0
   11.8518   13.1487   23.1805 C   0  0  0  0  0  0  0  0  0  0  0  0
   12.3469   12.2732   23.7685 O   0  0  0  0  0  0  0  0  0  0  0  0
   12.5946   14.2200   22.4967 C   0  0  0  0  0  0  0  0  0  0  0  0
   12.2924   14.5007   21.2215 C   0  0  0  0  0  0  0  0  0  0  0  0
   12.8509   15.6566   20.5502 C   0  0  0  0  0  0  0  0  0  0  0  0
   12.5919   15.8079   19.0734 C   0  0  0  0  0  0  0  0  0  0  0  0
   11.2736   15.5075   18.6445 N   0  0  0  0  0  0  0  0  0  0  0  0
   12.8392   17.1193   18.6077 N   0  0  0  0  0  0  0  0  0  0  0  0
   13.4216   14.9396   18.4035 O   0  0  0  0  0  0  0  0  0  0  0  0
   13.6116   16.4976   21.2782 C   0  0  0  0  0  0  0  0  0  0  0  0
   13.9483   16.2060   22.5782 N   0  0  0  0  0  0  0  0  0  0  0  0
   13.6239   15.0152   23.1874 C   0  0  0  0  0  0  0  0  0  0  0  0
   14.1870   14.6151   24.1978 O   0  0  0  0  0  0  0  0  0  0  0  0
    8.2456   13.9113   23.8460 C   0  0  0  0  0  0  0  0  0  0  0  0
    7.1843   13.5788   24.6540 C   0  0  0  0  0  0  0  0  0  0  0  0
    7.1800   12.3247   25.2240 C   0  0  0  0  0  0  0  0  0  0  0  0
    6.3171   11.8004   26.1465 N   0  0  0  0  0  0  0  0  0  0  0  0
    6.5646   10.4711   26.2826 C   0  0  0  0  0  0  0  0  0  0  0  0
    7.5835   10.1562   25.4127 C   0  0  0  0  0  0  0  0  0  0  0  0
    8.0631   11.3343   24.8194 C   0  0  0  0  0  0  0  0  0  0  0  0
  1  2  1  0
  2  3  2  0
  3  4  1  0
  4  5  1  0
  5  6  2  0
  5  7  1  0
  7  8  2  0
  8  9  1  0
  9 10  1  0
 10 11  1  0
 10 12  1  0
 10 13  1  0
  9 14  2  0
 14 15  1  0
 15 16  1  0
 16 17  2  0
  3 18  1  0
 18 19  2  0
 19 20  1  0
 20 21  1  0
 21 22  1  0
 22 23  2  0
 23 24  1  0
 24  2  1  0
 16  7  1  0
 24 20  2  0
M  END
>  <ref_pdb>  (132) 
A3685a

>  <tags>  (132) 
{'fragmenstein_placed', 'openbind_a71ev2a_c1_fragmenstein'}

>  <distance_score>  (132) 
0.86273

>  <energy_score>  (132) 
-24.902098

>  <inchikey>  (132) 
UDRXOMVTXMZERG-UHFFFAOYSA-N

>  <alias>  (132) 
Cc1c(NC(=O)c2cc(C(N)(N)O)c[nH]c2=O)ccc2[nH]ccc12

>  <smiles>  (132) 
C281724-P219

>  <HIPPO Pose ID>  (132) 
60429

>  <ref_mols>  (132) 
A1209a,A3564a

>  <HIPPO Compound ID>  (132) 
281724

$$$$
Cc1cc2cc[nH]c2c(C)c1NC(=O)c1cc(C(N)(O)O)c[nH]c1=O
     RDKit          3D

 25 27  0  0  0  0  0  0  0  0999 V2000
   10.0885   10.1763   23.1234 C   0  0  0  0  0  0  0  0  0  0  0  0
    9.1784   11.0231   23.9700 C   0  0  0  0  0  0  0  0  0  0  0  0
    8.3271   10.3517   24.8599 C   0  0  0  0  0  0  0  0  0  0  0  0
    7.3569   11.0459   25.5891 C   0  0  0  0  0  0  0  0  0  0  0  0
    6.4185   10.6951   26.5989 C   0  0  0  0  0  0  0  0  0  0  0  0
    5.6671   11.8088   26.8763 C   0  0  0  0  0  0  0  0  0  0  0  0
    6.0374   12.7602   25.9720 N   0  0  0  0  0  0  0  0  0  0  0  0
    7.1633   12.3840   25.2834 C   0  0  0  0  0  0  0  0  0  0  0  0
    7.9594   13.1001   24.3699 C   0  0  0  0  0  0  0  0  0  0  0  0
    7.7116   14.5390   24.0448 C   0  0  0  0  0  0  0  0  0  0  0  0
    9.0651   12.4101   23.8333 C   0  0  0  0  0  0  0  0  0  0  0  0
   10.0545   13.1674   23.2070 N   0  0  0  0  0  0  0  0  0  0  0  0
   11.5970   13.0212   23.2272 C   0  0  0  0  0  0  0  0  0  0  0  0
   12.2721   12.2002   23.7075 O   0  0  0  0  0  0  0  0  0  0  0  0
   12.1799   14.1714   22.4856 C   0  0  0  0  0  0  0  0  0  0  0  0
   11.7517   14.4824   21.2497 C   0  0  0  0  0  0  0  0  0  0  0  0
   12.3377   15.5727   20.4772 C   0  0  0  0  0  0  0  0  0  0  0  0
   11.8145   15.8211   19.0774 C   0  0  0  0  0  0  0  0  0  0  0  0
   11.9546   14.6909   18.2209 N   0  0  0  0  0  0  0  0  0  0  0  0
   12.4737   16.9119   18.5112 O   0  0  0  0  0  0  0  0  0  0  0  0
   10.4443   16.0903   19.1923 O   0  0  0  0  0  0  0  0  0  0  0  0
   13.2961   16.3107   21.0661 C   0  0  0  0  0  0  0  0  0  0  0  0
   13.7502   16.0105   22.3250 N   0  0  0  0  0  0  0  0  0  0  0  0
   13.3456   14.9073   23.0382 C   0  0  0  0  0  0  0  0  0  0  0  0
   13.9419   14.5391   24.0437 O   0  0  0  0  0  0  0  0  0  0  0  0
  1  2  1  0
  2  3  2  0
  3  4  1  0
  4  5  1  0
  5  6  2  0
  6  7  1  0
  7  8  1  0
  8  9  1  0
  9 10  1  0
  9 11  2  0
 11 12  1  0
 12 13  1  0
 13 14  2  0
 13 15  1  0
 15 16  2  0
 16 17  1  0
 17 18  1  0
 18 19  1  0
 18 20  1  0
 18 21  1  0
 17 22  2  0
 22 23  1  0
 23 24  1  0
 24 25  2  0
 11  2  1  0
 24 15  1  0
  8  4  2  0
M  END
>  <ref_pdb>  (133) 
A3685a

>  <tags>  (133) 
{'fragmenstein_placed', 'openbind_a71ev2a_c1_fragmenstein'}

>  <distance_score>  (133) 
0.790552

>  <energy_score>  (133) 
-275.9443

>  <inchikey>  (133) 
IKWXEOHVJKYNLH-UHFFFAOYSA-N

>  <alias>  (133) 
Cc1cc2cc[nH]c2c(C)c1NC(=O)c1cc(C(N)(O)O)c[nH]c1=O

>  <smiles>  (133) 
C281810-P219

>  <HIPPO Pose ID>  (133) 
60452

>  <ref_mols>  (133) 
A3890a,A3564a

>  <HIPPO Compound ID>  (133) 
281810

$$$$
Cc1ccccc1NC(=O)c1cc(C(N)(O)O)c[nH]c1=O
     RDKit          3D

 21 22  0  0  0  0  0  0  0  0999 V2000
    9.9262   10.3525   23.2072 C   0  0  0  0  0  0  0  0  0  0  0  0
    9.0583   11.1957   24.1034 C   0  0  0  0  0  0  0  0  0  0  0  0
    8.1290   10.5272   24.9135 C   0  0  0  0  0  0  0  0  0  0  0  0
    7.1901   11.2229   25.6679 C   0  0  0  0  0  0  0  0  0  0  0  0
    7.1464   12.6074   25.5929 C   0  0  0  0  0  0  0  0  0  0  0  0
    8.0676   13.2949   24.8027 C   0  0  0  0  0  0  0  0  0  0  0  0
    9.0594   12.5986   24.1082 C   0  0  0  0  0  0  0  0  0  0  0  0
   10.0303   13.3532   23.4610 N   0  0  0  0  0  0  0  0  0  0  0  0
   11.5558   13.1211   23.3188 C   0  0  0  0  0  0  0  0  0  0  0  0
   12.2184   12.2224   23.6571 O   0  0  0  0  0  0  0  0  0  0  0  0
   12.1361   14.2570   22.5602 C   0  0  0  0  0  0  0  0  0  0  0  0
   11.6810   14.5555   21.3301 C   0  0  0  0  0  0  0  0  0  0  0  0
   12.2958   15.6008   20.5146 C   0  0  0  0  0  0  0  0  0  0  0  0
   11.7656   15.8364   19.1142 C   0  0  0  0  0  0  0  0  0  0  0  0
   11.8518   14.6840   18.2811 N   0  0  0  0  0  0  0  0  0  0  0  0
   12.4615   16.8863   18.5128 O   0  0  0  0  0  0  0  0  0  0  0  0
   10.4087   16.1694   19.2335 O   0  0  0  0  0  0  0  0  0  0  0  0
   13.3000   16.3102   21.0616 C   0  0  0  0  0  0  0  0  0  0  0  0
   13.7759   16.0208   22.3151 N   0  0  0  0  0  0  0  0  0  0  0  0
   13.3508   14.9466   23.0591 C   0  0  0  0  0  0  0  0  0  0  0  0
   13.9646   14.5667   24.0498 O   0  0  0  0  0  0  0  0  0  0  0  0
  1  2  1  0
  2  3  2  0
  3  4  1  0
  4  5  2  0
  5  6  1  0
  6  7  2  0
  7  8  1  0
  8  9  1  0
  9 10  2  0
  9 11  1  0
 11 12  2  0
 12 13  1  0
 13 14  1  0
 14 15  1  0
 14 16  1  0
 14 17  1  0
 13 18  2  0
 18 19  1  0
 19 20  1  0
 20 21  2  0
  7  2  1  0
 20 11  1  0
M  END
>  <ref_pdb>  (134) 
A3685a

>  <tags>  (134) 
{'fragmenstein_placed', 'openbind_a71ev2a_c1_fragmenstein'}

>  <distance_score>  (134) 
0.711609

>  <energy_score>  (134) 
-4.042991

>  <inchikey>  (134) 
RRXPKPIXQXLJJA-UHFFFAOYSA-N

>  <alias>  (134) 
Cc1ccccc1NC(=O)c1cc(C(N)(O)O)c[nH]c1=O

>  <smiles>  (134) 
C281819-P219

>  <HIPPO Pose ID>  (134) 
60453

>  <ref_mols>  (134) 
A3986a,A3564a,A4464a,A3968a

>  <HIPPO Compound ID>  (134) 
281819

$$$$
CCc1ccc(C)c(NC(=O)c2cc(C(N)(O)O)c[nH]c2=O)c1
     RDKit          3D

 23 24  0  0  0  0  0  0  0  0999 V2000
    5.6615   11.8240   27.5414 C   0  0  0  0  0  0  0  0  0  0  0  0
    6.2975   12.7487   26.5149 C   0  0  0  0  0  0  0  0  0  0  0  0
    7.3159   12.1552   25.5993 C   0  0  0  0  0  0  0  0  0  0  0  0
    7.4438   10.7831   25.4765 C   0  0  0  0  0  0  0  0  0  0  0  0
    8.4141   10.2638   24.6489 C   0  0  0  0  0  0  0  0  0  0  0  0
    9.2813   11.0734   23.9223 C   0  0  0  0  0  0  0  0  0  0  0  0
   10.1995   10.3612   22.9774 C   0  0  0  0  0  0  0  0  0  0  0  0
    9.1973   12.4571   24.0861 C   0  0  0  0  0  0  0  0  0  0  0  0
   10.1448   13.3246   23.5588 N   0  0  0  0  0  0  0  0  0  0  0  0
   11.6757   13.1551   23.3802 C   0  0  0  0  0  0  0  0  0  0  0  0
   12.3855   12.2928   23.7187 O   0  0  0  0  0  0  0  0  0  0  0  0
   12.2040   14.3067   22.6088 C   0  0  0  0  0  0  0  0  0  0  0  0
   11.7285   14.5777   21.3800 C   0  0  0  0  0  0  0  0  0  0  0  0
   12.3269   15.6112   20.5378 C   0  0  0  0  0  0  0  0  0  0  0  0
   11.7540   15.8349   19.1519 C   0  0  0  0  0  0  0  0  0  0  0  0
   11.8022   14.6769   18.3305 N   0  0  0  0  0  0  0  0  0  0  0  0
   12.4411   16.8715   18.5177 O   0  0  0  0  0  0  0  0  0  0  0  0
   10.4137   16.2294   19.2995 O   0  0  0  0  0  0  0  0  0  0  0  0
   13.3406   16.3326   21.0491 C   0  0  0  0  0  0  0  0  0  0  0  0
   13.8317   16.0758   22.3019 N   0  0  0  0  0  0  0  0  0  0  0  0
   13.4221   15.0157   23.0737 C   0  0  0  0  0  0  0  0  0  0  0  0
   14.0547   14.6650   24.0627 O   0  0  0  0  0  0  0  0  0  0  0  0
    8.1725   12.9969   24.8659 C   0  0  0  0  0  0  0  0  0  0  0  0
  1  2  1  0
  2  3  1  0
  3  4  2  0
  4  5  1  0
  5  6  2  0
  6  7  1  0
  6  8  1  0
  8  9  1  0
  9 10  1  0
 10 11  2  0
 10 12  1  0
 12 13  2  0
 13 14  1  0
 14 15  1  0
 15 16  1  0
 15 17  1  0
 15 18  1  0
 14 19  2  0
 19 20  1  0
 20 21  1  0
 21 22  2  0
  8 23  2  0
 23  3  1  0
 21 12  1  0
M  END
>  <ref_pdb>  (135) 
A3685a

>  <tags>  (135) 
{'fragmenstein_placed', 'openbind_a71ev2a_c1_fragmenstein'}

>  <distance_score>  (135) 
0.658067

>  <energy_score>  (135) 
-28.318177

>  <inchikey>  (135) 
YBNDHSOAPPIZOW-UHFFFAOYSA-N

>  <alias>  (135) 
CCc1ccc(C)c(NC(=O)c2cc(C(N)(O)O)c[nH]c2=O)c1

>  <smiles>  (135) 
C281832-P219

>  <HIPPO Pose ID>  (135) 
60461

>  <ref_mols>  (135) 
A3564a,A4035a

>  <HIPPO Compound ID>  (135) 
281832

$$$$
Cc1ccc(NC(=O)c2cc(C(N)(O)O)c[nH]c2=O)c(C)c1
     RDKit          3D

 22 23  0  0  0  0  0  0  0  0999 V2000
    6.2224   10.7127   26.6982 C   0  0  0  0  0  0  0  0  0  0  0  0
    7.1863   11.3682   25.7602 C   0  0  0  0  0  0  0  0  0  0  0  0
    7.2036   12.7538   25.6471 C   0  0  0  0  0  0  0  0  0  0  0  0
    8.1264   13.3886   24.8228 C   0  0  0  0  0  0  0  0  0  0  0  0
    9.0817   12.6422   24.1365 C   0  0  0  0  0  0  0  0  0  0  0  0
   10.0686   13.3634   23.4810 N   0  0  0  0  0  0  0  0  0  0  0  0
   11.5894   13.1002   23.3535 C   0  0  0  0  0  0  0  0  0  0  0  0
   12.2327   12.1971   23.7144 O   0  0  0  0  0  0  0  0  0  0  0  0
   12.1839   14.2176   22.5821 C   0  0  0  0  0  0  0  0  0  0  0  0
   11.7191   14.4995   21.3529 C   0  0  0  0  0  0  0  0  0  0  0  0
   12.3290   15.5289   20.5180 C   0  0  0  0  0  0  0  0  0  0  0  0
   11.7556   15.7659   19.1351 C   0  0  0  0  0  0  0  0  0  0  0  0
   11.8796   14.6556   18.2541 N   0  0  0  0  0  0  0  0  0  0  0  0
   12.3503   16.8892   18.5622 O   0  0  0  0  0  0  0  0  0  0  0  0
   10.3871   16.0453   19.2839 O   0  0  0  0  0  0  0  0  0  0  0  0
   13.3362   16.2473   21.0466 C   0  0  0  0  0  0  0  0  0  0  0  0
   13.8127   15.9835   22.3063 N   0  0  0  0  0  0  0  0  0  0  0  0
   13.3941   14.9191   23.0698 C   0  0  0  0  0  0  0  0  0  0  0  0
   14.0084   14.5576   24.0666 O   0  0  0  0  0  0  0  0  0  0  0  0
    9.0320   11.2416   24.1587 C   0  0  0  0  0  0  0  0  0  0  0  0
    9.8647   10.3599   23.2653 C   0  0  0  0  0  0  0  0  0  0  0  0
    8.0882   10.6219   24.9964 C   0  0  0  0  0  0  0  0  0  0  0  0
  1  2  1  0
  2  3  2  0
  3  4  1  0
  4  5  2  0
  5  6  1  0
  6  7  1  0
  7  8  2  0
  7  9  1  0
  9 10  2  0
 10 11  1  0
 11 12  1  0
 12 13  1  0
 12 14  1  0
 12 15  1  0
 11 16  2  0
 16 17  1  0
 17 18  1  0
 18 19  2  0
  5 20  1  0
 20 21  1  0
 20 22  2  0
 22  2  1  0
 18  9  1  0
M  END
>  <ref_pdb>  (136) 
A3685a

>  <tags>  (136) 
{'fragmenstein_placed', 'openbind_a71ev2a_c1_fragmenstein'}

>  <distance_score>  (136) 
0.614132

>  <energy_score>  (136) 
-34.000478

>  <inchikey>  (136) 
GMQJBEZLPWHVRH-UHFFFAOYSA-N

>  <alias>  (136) 
Cc1ccc(NC(=O)c2cc(C(N)(O)O)c[nH]c2=O)c(C)c1

>  <smiles>  (136) 
C281841-P219

>  <HIPPO Pose ID>  (136) 
60464

>  <ref_mols>  (136) 
A4304a,A3564a

>  <HIPPO Compound ID>  (136) 
281841

$$$$
COc1ccccc1[C@H](NC(=O)OC(C)(C)C)C(=O)N1CCC[C@H](C(N)(O)O)C1
     RDKit          3D

 29 30  0  0  0  0  0  0  0  0999 V2000
    9.3346    9.6233   23.6579 C   0  0  0  0  0  0  0  0  0  0  0  0
    9.0542   10.9315   24.1481 O   0  0  0  0  0  0  0  0  0  0  0  0
    7.9068   11.0975   24.8802 C   0  0  0  0  0  0  0  0  0  0  0  0
    7.0598   10.0476   25.2448 C   0  0  0  0  0  0  0  0  0  0  0  0
    5.8918   10.2872   25.9698 C   0  0  0  0  0  0  0  0  0  0  0  0
    5.5476   11.5825   26.3260 C   0  0  0  0  0  0  0  0  0  0  0  0
    6.3830   12.6364   25.9732 C   0  0  0  0  0  0  0  0  0  0  0  0
    7.5885   12.4104   25.2786 C   0  0  0  0  0  0  0  0  0  0  0  0
    8.5309   13.5630   24.9966 C   0  0  2  0  0  0  0  0  0  0  0  0
    8.6427   14.4542   26.1430 N   0  0  0  0  0  0  0  0  0  0  0  0
    9.7094   14.7094   27.0069 C   0  0  0  0  0  0  0  0  0  0  0  0
   10.7858   14.2090   27.0848 O   0  0  0  0  0  0  0  0  0  0  0  0
    9.2751   15.7199   27.8014 O   0  0  0  0  0  0  0  0  0  0  0  0
   10.1411   16.3685   28.7674 C   0  0  0  0  0  0  0  0  0  0  0  0
    9.2754   17.4812   29.3765 C   0  0  0  0  0  0  0  0  0  0  0  0
   11.3521   17.0093   28.0836 C   0  0  0  0  0  0  0  0  0  0  0  0
   10.5591   15.4027   29.8776 C   0  0  0  0  0  0  0  0  0  0  0  0
    8.0879   14.4993   23.8313 C   0  0  0  0  0  0  0  0  0  0  0  0
    7.0306   15.0762   23.8709 O   0  0  0  0  0  0  0  0  0  0  0  0
    9.1570   14.5770   22.8783 N   0  0  0  0  0  0  0  0  0  0  0  0
   10.1525   15.6324   23.3010 C   0  0  0  0  0  0  0  0  0  0  0  0
   11.5710   15.2097   22.9506 C   0  0  0  0  0  0  0  0  0  0  0  0
   11.7763   15.5603   21.5066 C   0  0  0  0  0  0  0  0  0  0  0  0
   10.5441   15.1053   20.7126 C   0  0  2  0  0  0  0  0  0  0  0  0
   10.5101   15.7762   19.3296 C   0  0  0  0  0  0  0  0  0  0  0  0
   11.6218   15.4115   18.5142 N   0  0  0  0  0  0  0  0  0  0  0  0
   10.5330   17.1532   19.4682 O   0  0  0  0  0  0  0  0  0  0  0  0
    9.3916   15.5237   18.5638 O   0  0  0  0  0  0  0  0  0  0  0  0
    9.2569   15.3288   21.5448 C   0  0  0  0  0  0  0  0  0  0  0  0
  1  2  1  0
  2  3  1  0
  3  4  2  0
  4  5  1  0
  5  6  2  0
  6  7  1  0
  7  8  2  0
  8  9  1  0
  9 10  1  1
 10 11  1  0
 11 12  2  0
 11 13  1  0
 13 14  1  0
 14 15  1  0
 14 16  1  0
 14 17  1  0
  9 18  1  0
 18 19  2  0
 18 20  1  0
 20 21  1  0
 21 22  1  0
 22 23  1  0
 23 24  1  0
 24 25  1  6
 25 26  1  0
 25 27  1  0
 25 28  1  0
 24 29  1  0
  8  3  1  0
 29 20  1  0
M  END
>  <ref_pdb>  (137) 
A3849a

>  <tags>  (137) 
{'fragmenstein_placed', 'openbind_a71ev2a_c1_fragmenstein'}

>  <distance_score>  (137) 
0.737867

>  <energy_score>  (137) 
-0.622762

>  <inchikey>  (137) 
DSTCSFXWPPZMMG-UHFFFAOYSA-N

>  <alias>  (137) 
COc1ccccc1[C@H](NC(=O)OC(C)(C)C)C(=O)N1CCC[C@H](C(N)(O)O)C1

>  <smiles>  (137) 
C221199-P231

>  <HIPPO Pose ID>  (137) 
62257

>  <ref_mols>  (137) 
A4018b,A3884a

>  <HIPPO Compound ID>  (137) 
221199

$$$$
COc1ccccc1[C@H](NC(=O)OC(C)(C)C)[C@@]1(O)CC(=O)[C@H]2C[C@@H](C(N)(O)O)CN[C@@H]21
     RDKit          3D

 32 34  0  0  0  0  0  0  0  0999 V2000
    9.4337    9.5795   23.6074 C   0  0  0  0  0  0  0  0  0  0  0  0
    9.1243   10.8787   24.1152 O   0  0  0  0  0  0  0  0  0  0  0  0
    8.0128   10.9934   24.9074 C   0  0  0  0  0  0  0  0  0  0  0  0
    7.1126    9.9461   25.1246 C   0  0  0  0  0  0  0  0  0  0  0  0
    5.9708   10.1224   25.9051 C   0  0  0  0  0  0  0  0  0  0  0  0
    5.7395   11.3361   26.5256 C   0  0  0  0  0  0  0  0  0  0  0  0
    6.6510   12.3719   26.3550 C   0  0  0  0  0  0  0  0  0  0  0  0
    7.7823   12.2409   25.5188 C   0  0  0  0  0  0  0  0  0  0  0  0
    8.6981   13.4347   25.2709 C   0  0  2  0  0  0  0  0  0  0  0  0
    8.7634   14.3177   26.4184 N   0  0  0  0  0  0  0  0  0  0  0  0
    9.9194   14.6792   27.3108 C   0  0  0  0  0  0  0  0  0  0  0  0
   11.0020   14.2786   27.3343 O   0  0  0  0  0  0  0  0  0  0  0  0
    9.4111   15.6717   28.0748 O   0  0  0  0  0  0  0  0  0  0  0  0
   10.2495   16.4381   28.9639 C   0  0  0  0  0  0  0  0  0  0  0  0
    9.3338   17.5580   29.4764 C   0  0  0  0  0  0  0  0  0  0  0  0
   11.4273   17.0724   28.2198 C   0  0  0  0  0  0  0  0  0  0  0  0
   10.7004   15.5683   30.1356 C   0  0  0  0  0  0  0  0  0  0  0  0
    8.3409   14.3343   24.0497 C   0  0  1  0  0  0  0  0  0  0  0  0
    8.8929   15.6593   24.2353 O   0  0  0  0  0  0  0  0  0  0  0  0
    8.9256   13.8514   22.7300 C   0  0  0  0  0  0  0  0  0  0  0  0
    8.0125   14.5456   21.7503 C   0  0  0  0  0  0  0  0  0  0  0  0
    8.2256   14.5709   20.5518 O   0  0  0  0  0  0  0  0  0  0  0  0
    6.8147   15.1792   22.3916 C   0  0  1  0  0  0  0  0  0  0  0  0
    5.4653   14.9698   21.7311 C   0  0  0  0  0  0  0  0  0  0  0  0
    4.3766   15.5491   22.6621 C   0  0  1  0  0  0  0  0  0  0  0  0
    2.9738   15.4066   22.0356 C   0  0  0  0  0  0  0  0  0  0  0  0
    1.8791   15.7846   22.8724 N   0  0  0  0  0  0  0  0  0  0  0  0
    2.9050   16.2417   20.9092 O   0  0  0  0  0  0  0  0  0  0  0  0
    2.7317   14.0982   21.6278 O   0  0  0  0  0  0  0  0  0  0  0  0
    4.5085   14.9613   24.0798 C   0  0  0  0  0  0  0  0  0  0  0  0
    5.8771   15.1011   24.6245 N   0  0  0  0  0  0  0  0  0  0  0  0
    6.8255   14.4354   23.7188 C   0  0  2  0  0  0  0  0  0  0  0  0
  1  2  1  0
  2  3  1  0
  3  4  2  0
  4  5  1  0
  5  6  2  0
  6  7  1  0
  7  8  2  0
  8  9  1  0
  9 10  1  1
 10 11  1  0
 11 12  2  0
 11 13  1  0
 13 14  1  0
 14 15  1  0
 14 16  1  0
 14 17  1  0
  9 18  1  0
 18 19  1  1
 18 20  1  0
 20 21  1  0
 21 22  2  0
 21 23  1  0
 23 24  1  6
 24 25  1  0
 25 26  1  6
 26 27  1  0
 26 28  1  0
 26 29  1  0
 25 30  1  0
 30 31  1  0
 32 31  1  1
  8  3  1  0
 32 18  1  0
 32 23  1  0
M  END
>  <ref_pdb>  (138) 
A3849a

>  <tags>  (138) 
{'fragmenstein_placed', 'openbind_a71ev2a_c1_fragmenstein'}

>  <distance_score>  (138) 
0.952274

>  <energy_score>  (138) 
-70.337646

>  <inchikey>  (138) 
STZMCMOCSSQOIY-UHFFFAOYSA-N

>  <alias>  (138) 
COc1ccccc1[C@H](NC(=O)OC(C)(C)C)[C@@]1(O)CC(=O)[C@H]2C[C@@H](C(N)(O)O)CN[C@@H]21

>  <smiles>  (138) 
C221321-P231

>  <HIPPO Pose ID>  (138) 
62380

>  <ref_mols>  (138) 
A5283a,A3884a

>  <HIPPO Compound ID>  (138) 
221321

$$$$
Cc1[nH]c(C2=CN[C@@H]3[C@H](C(N)(O)O)CC(=O)N23)c2c(C)cccc12
     RDKit          3D

 24 27  0  0  0  0  0  0  0  0999 V2000
    5.5846   14.6809   27.5109 C   0  0  0  0  0  0  0  0  0  0  0  0
    6.4146   13.9342   26.5356 C   0  0  0  0  0  0  0  0  0  0  0  0
    7.2297   14.5841   25.6244 N   0  0  0  0  0  0  0  0  0  0  0  0
    7.7769   13.6822   24.7334 C   0  0  0  0  0  0  0  0  0  0  0  0
    8.2291   14.1874   23.5101 C   0  0  0  0  0  0  0  0  0  0  0  0
    7.5554   14.0013   22.3686 C   0  0  0  0  0  0  0  0  0  0  0  0
    8.2720   14.5227   21.3198 N   0  0  0  0  0  0  0  0  0  0  0  0
    9.2511   15.4502   21.8602 C   0  0  2  0  0  0  0  0  0  0  0  0
   10.6704   15.4415   21.3768 C   0  0  2  0  0  0  0  0  0  0  0  0
   10.9381   15.4004   19.8894 C   0  0  0  0  0  0  0  0  0  0  0  0
   10.4552   14.3282   19.1484 N   0  0  0  0  0  0  0  0  0  0  0  0
   10.4124   16.5209   19.2334 O   0  0  0  0  0  0  0  0  0  0  0  0
   12.3084   15.2577   19.6955 O   0  0  0  0  0  0  0  0  0  0  0  0
   11.3573   14.3883   22.2240 C   0  0  0  0  0  0  0  0  0  0  0  0
   10.6116   14.4932   23.5252 C   0  0  0  0  0  0  0  0  0  0  0  0
   11.0905   14.1617   24.5972 O   0  0  0  0  0  0  0  0  0  0  0  0
    9.3307   14.9899   23.2620 N   0  0  0  0  0  0  0  0  0  0  0  0
    7.5125   12.4234   25.2282 C   0  0  0  0  0  0  0  0  0  0  0  0
    7.9480   11.1898   24.7261 C   0  0  0  0  0  0  0  0  0  0  0  0
    9.0275   10.9368   23.7311 C   0  0  0  0  0  0  0  0  0  0  0  0
    7.2357   10.1346   25.3537 C   0  0  0  0  0  0  0  0  0  0  0  0
    6.2308   10.3124   26.3663 C   0  0  0  0  0  0  0  0  0  0  0  0
    5.8588   11.5633   26.9013 C   0  0  0  0  0  0  0  0  0  0  0  0
    6.5519   12.5901   26.2736 C   0  0  0  0  0  0  0  0  0  0  0  0
  1  2  1  0
  2  3  1  0
  3  4  1  0
  4  5  1  0
  5  6  2  0
  6  7  1  0
  8  7  1  6
  8  9  1  0
  9 10  1  6
 10 11  1  0
 10 12  1  0
 10 13  1  0
  9 14  1  0
 14 15  1  0
 15 16  2  0
 15 17  1  0
  4 18  2  0
 18 19  1  0
 19 20  1  0
 19 21  2  0
 21 22  1  0
 22 23  2  0
 23 24  1  0
 24  2  2  0
 17  5  1  0
 24 18  1  0
 17  8  1  0
M  END
>  <ref_pdb>  (139) 
A3849a

>  <tags>  (139) 
{'fragmenstein_placed', 'openbind_a71ev2a_c1_fragmenstein'}

>  <distance_score>  (139) 
0.75301

>  <energy_score>  (139) 
-45.832556

>  <inchikey>  (139) 
ZDVGWIGLQNXIPC-UHFFFAOYSA-N

>  <alias>  (139) 
Cc1[nH]c(C2=CN[C@@H]3[C@H](C(N)(O)O)CC(=O)N23)c2c(C)cccc12

>  <smiles>  (139) 
C221713-P233

>  <HIPPO Pose ID>  (139) 
62739

>  <ref_mols>  (139) 
A3890a,A4829a

>  <HIPPO Compound ID>  (139) 
221713

$$$$
CCC[C@@H](O)c1cc([C@@H](C)O)c[nH]1
     RDKit          3D

 13 13  0  0  0  0  0  0  0  0999 V2000
   11.1770   15.2365   23.9757 C   0  0  0  0  0  0  0  0  0  0  0  0
    9.9138   14.5517   23.4931 C   0  0  0  0  0  0  0  0  0  0  0  0
    9.3284   13.6394   24.5745 C   0  0  0  0  0  0  0  0  0  0  0  0
    8.1228   12.8589   24.0494 C   0  0  1  0  0  0  0  0  0  0  0  0
    8.5354   11.8169   23.1748 O   0  0  0  0  0  0  0  0  0  0  0  0
    7.3618   12.1840   25.1419 C   0  0  0  0  0  0  0  0  0  0  0  0
    6.6139   12.7133   26.1732 C   0  0  0  0  0  0  0  0  0  0  0  0
    5.9342   11.6452   26.8272 C   0  0  0  0  0  0  0  0  0  0  0  0
    4.9201   11.7799   27.9231 C   0  0  1  0  0  0  0  0  0  0  0  0
    5.5437   11.7813   29.3111 C   0  0  0  0  0  0  0  0  0  0  0  0
    4.1670   12.9845   27.7767 O   0  0  0  0  0  0  0  0  0  0  0  0
    6.3471   10.4838   26.1999 C   0  0  0  0  0  0  0  0  0  0  0  0
    7.2297   10.8152   25.2061 N   0  0  0  0  0  0  0  0  0  0  0  0
  1  2  1  0
  2  3  1  0
  3  4  1  0
  4  5  1  6
  4  6  1  0
  6  7  2  0
  7  8  1  0
  8  9  1  0
  9 10  1  1
  9 11  1  0
  8 12  2  0
 12 13  1  0
 13  6  1  0
M  END
>  <ref_pdb>  (140) 
A3992b

>  <tags>  (140) 
{'fragmenstein_placed', 'openbind_a71ev2a_c1_fragmenstein'}

>  <distance_score>  (140) 
0.745016

>  <energy_score>  (140) 
-17.677629

>  <inchikey>  (140) 
WECSMDFTHCGFKA-UHFFFAOYSA-N

>  <alias>  (140) 
CCC[C@@H](O)c1cc([C@@H](C)O)c[nH]1

>  <smiles>  (140) 
C177719-P268

>  <HIPPO Pose ID>  (140) 
67648

>  <ref_mols>  (140) 
A4018a,A4309b

>  <HIPPO Compound ID>  (140) 
177719

$$$$
CN1NC[C@]2(NCCCCN(C[C@H]3C[S@@H](O)[C@@H](N)N3)C2=O)c2cccnc21
     RDKit          3D

 27 30  0  0  0  0  0  0  0  0999 V2000
    9.1022    9.0696   23.6686 C   0  0  0  0  0  0  0  0  0  0  0  0
    8.9208   10.4366   24.1483 N   0  0  0  0  0  0  0  0  0  0  0  0
    9.7256   11.4340   23.5932 N   0  0  0  0  0  0  0  0  0  0  0  0
    9.7060   12.6481   24.4113 C   0  0  0  0  0  0  0  0  0  0  0  0
    8.2792   13.2073   24.7016 C   0  0  1  0  0  0  0  0  0  0  0  0
    8.1080   14.2900   25.7051 N   0  0  0  0  0  0  0  0  0  0  0  0
    9.1736   14.7928   26.5173 C   0  0  0  0  0  0  0  0  0  0  0  0
    9.7738   16.0734   25.9979 C   0  0  0  0  0  0  0  0  0  0  0  0
   10.1634   15.9274   24.5415 C   0  0  0  0  0  0  0  0  0  0  0  0
    8.9308   15.9879   23.6235 C   0  0  0  0  0  0  0  0  0  0  0  0
    8.6880   14.8159   22.8147 N   0  0  0  0  0  0  0  0  0  0  0  0
    8.8186   14.9354   21.3695 C   0  0  0  0  0  0  0  0  0  0  0  0
    9.7783   15.9882   20.7685 C   0  0  1  0  0  0  0  0  0  0  0  0
   11.1062   16.1435   21.5100 C   0  0  0  0  0  0  0  0  0  0  0  0
   12.2626   15.2784   20.5950 S   0  0  1  0  0  4  0  0  0  0  0  0
   11.9308   13.7831   21.1606 O   0  0  0  0  0  0  0  0  0  0  0  0
   11.3837   15.4034   19.0862 C   0  0  1  0  0  0  0  0  0  0  0  0
   11.4712   14.1987   18.3573 N   0  0  0  0  0  0  0  0  0  0  0  0
    9.9997   15.5616   19.3801 N   0  0  0  0  0  0  0  0  0  0  0  0
    7.9226   13.7296   23.2780 C   0  0  0  0  0  0  0  0  0  0  0  0
    7.1934   13.1029   22.5029 O   0  0  0  0  0  0  0  0  0  0  0  0
    7.4018   12.0428   25.1764 C   0  0  0  0  0  0  0  0  0  0  0  0
    6.2701   12.2686   25.9890 C   0  0  0  0  0  0  0  0  0  0  0  0
    5.5746   11.2112   26.5393 C   0  0  0  0  0  0  0  0  0  0  0  0
    5.9910    9.9465   26.2086 C   0  0  0  0  0  0  0  0  0  0  0  0
    7.0332    9.6803   25.3961 N   0  0  0  0  0  0  0  0  0  0  0  0
    7.7513   10.7156   24.8840 C   0  0  0  0  0  0  0  0  0  0  0  0
  1  2  1  0
  2  3  1  0
  3  4  1  0
  5  4  1  6
  5  6  1  0
  6  7  1  0
  7  8  1  0
  8  9  1  0
  9 10  1  0
 10 11  1  0
 11 12  1  0
 13 12  1  1
 13 14  1  0
 14 15  1  0
 15 16  1  1
 15 17  1  0
 17 18  1  6
 17 19  1  0
 11 20  1  0
 20 21  2  0
  5 22  1  0
 22 23  2  0
 23 24  1  0
 24 25  2  0
 25 26  1  0
 26 27  2  0
 27  2  1  0
 20  5  1  0
 27 22  1  0
 19 13  1  0
M  END
>  <ref_pdb>  (141) 
A3992b

>  <tags>  (141) 
{'fragmenstein_placed', 'openbind_a71ev2a_c1_fragmenstein'}

>  <distance_score>  (141) 
0.967835

>  <energy_score>  (141) 
-97.593978

>  <inchikey>  (141) 
RLOZHVQZKVTLPH-UHFFFAOYSA-N

>  <alias>  (141) 
CN1NC[C@]2(NCCCCN(C[C@H]3C[S@@H](O)[C@@H](N)N3)C2=O)c2cccnc21

>  <smiles>  (141) 
C179389-P274

>  <HIPPO Pose ID>  (141) 
68546

>  <ref_mols>  (141) 
A4031a,A4914a

>  <HIPPO Compound ID>  (141) 
179389

$$$$
C[C@H]1CN([C@@H]2CNNc3cccc4c3[C@@H]2CC4)C[C@@]2(C1)NCO[C@H]2N
     RDKit          3D

 25 29  0  0  0  0  0  0  0  0999 V2000
   12.5299   15.0354   24.5239 C   0  0  0  0  0  0  0  0  0  0  0  0
   11.5006   14.8935   23.4341 C   0  0  1  0  0  0  0  0  0  0  0  0
   10.1298   15.0934   24.0569 C   0  0  0  0  0  0  0  0  0  0  0  0
    9.1638   14.7026   23.0522 N   0  0  0  0  0  0  0  0  0  0  0  0
    7.8784   14.3261   23.6210 C   0  0  2  0  0  0  0  0  0  0  0  0
    7.2006   15.3313   24.5903 C   0  0  0  0  0  0  0  0  0  0  0  0
    7.1575   14.9557   26.0079 N   0  0  0  0  0  0  0  0  0  0  0  0
    6.1123   14.0236   26.2309 N   0  0  0  0  0  0  0  0  0  0  0  0
    6.4646   12.6652   26.1285 C   0  0  0  0  0  0  0  0  0  0  0  0
    5.7722   11.7191   26.8951 C   0  0  0  0  0  0  0  0  0  0  0  0
    6.0390   10.3469   26.7751 C   0  0  0  0  0  0  0  0  0  0  0  0
    7.0390    9.9001   25.9154 C   0  0  0  0  0  0  0  0  0  0  0  0
    7.7372   10.8246   25.1751 C   0  0  0  0  0  0  0  0  0  0  0  0
    7.3779   12.1822   25.2105 C   0  0  0  0  0  0  0  0  0  0  0  0
    7.9593   12.8317   23.9989 C   0  0  2  0  0  0  0  0  0  0  0  0
    9.2599   11.9951   23.8411 C   0  0  0  0  0  0  0  0  0  0  0  0
    8.8250   10.5591   24.1769 C   0  0  0  0  0  0  0  0  0  0  0  0
    9.1400   15.5933   21.8823 C   0  0  0  0  0  0  0  0  0  0  0  0
   10.5232   15.5828   21.1942 C   0  0  1  0  0  0  0  0  0  0  0  0
   11.6341   15.8786   22.2568 C   0  0  0  0  0  0  0  0  0  0  0  0
   10.8217   14.3170   20.5282 N   0  0  0  0  0  0  0  0  0  0  0  0
   11.9120   14.6608   19.6320 C   0  0  0  0  0  0  0  0  0  0  0  0
   11.8603   16.0646   19.4088 O   0  0  0  0  0  0  0  0  0  0  0  0
   10.6035   16.4524   19.9229 C   0  0  1  0  0  0  0  0  0  0  0  0
    9.7065   16.1393   18.8214 N   0  0  0  0  0  0  0  0  0  0  0  0
  2  1  1  1
  2  3  1  0
  3  4  1  0
  5  4  1  1
  5  6  1  0
  6  7  1  0
  7  8  1  0
  8  9  1  0
  9 10  2  0
 10 11  1  0
 11 12  2  0
 12 13  1  0
 13 14  2  0
 14 15  1  0
 15 16  1  1
 16 17  1  0
  4 18  1  0
 19 18  1  1
 19 20  1  0
 19 21  1  0
 21 22  1  0
 22 23  1  0
 23 24  1  0
 24 25  1  6
 20  2  1  0
 15  5  1  0
 24 19  1  0
 14  9  1  0
 17 13  1  0
M  END
>  <ref_pdb>  (142) 
A3992b

>  <tags>  (142) 
{'fragmenstein_placed', 'openbind_a71ev2a_c1_fragmenstein'}

>  <distance_score>  (142) 
0.926361

>  <energy_score>  (142) 
-34.144868

>  <inchikey>  (142) 
XPWAJQFGOMMBQE-UHFFFAOYSA-N

>  <alias>  (142) 
C[C@H]1CN([C@@H]2CNNc3cccc4c3[C@@H]2CC4)C[C@@]2(C1)NCO[C@H]2N

>  <smiles>  (142) 
C180463-P279

>  <HIPPO Pose ID>  (142) 
69030

>  <ref_mols>  (142) 
A4554a,A4606b,A4035b

>  <HIPPO Compound ID>  (142) 
180463

$$$$
COc1ccccc1[C@H](CN1C[C@@H]([C@H](N)N=O)CC1=O)N=O
     RDKit          3D

 22 23  0  0  0  0  0  0  0  0999 V2000
    5.8551   11.2782   26.7982 C   0  0  0  0  0  0  0  0  0  0  0  0
    6.7284   11.9546   25.9131 O   0  0  0  0  0  0  0  0  0  0  0  0
    7.5794   11.2544   25.1260 C   0  0  0  0  0  0  0  0  0  0  0  0
    7.7026    9.8802   25.1946 C   0  0  0  0  0  0  0  0  0  0  0  0
    8.6006    9.1917   24.3808 C   0  0  0  0  0  0  0  0  0  0  0  0
    9.3795    9.8273   23.4621 C   0  0  0  0  0  0  0  0  0  0  0  0
    9.2461   11.1860   23.3790 C   0  0  0  0  0  0  0  0  0  0  0  0
    8.3656   11.9384   24.1999 C   0  0  0  0  0  0  0  0  0  0  0  0
    8.4164   13.4399   23.9935 C   0  0  2  0  0  0  0  0  0  0  0  0
    9.8601   13.8924   24.2433 C   0  0  0  0  0  0  0  0  0  0  0  0
   10.5190   14.4152   23.0524 N   0  0  0  0  0  0  0  0  0  0  0  0
   10.8331   13.6621   21.8862 C   0  0  0  0  0  0  0  0  0  0  0  0
   11.5802   14.5977   20.9480 C   0  0  1  0  0  0  0  0  0  0  0  0
   10.6522   15.0302   19.8076 C   0  0  2  0  0  0  0  0  0  0  0  0
   11.3194   14.9783   18.5121 N   0  0  0  0  0  0  0  0  0  0  0  0
    9.8621   16.2593   20.0828 N   0  0  0  0  0  0  0  0  0  0  0  0
    8.9431   16.0564   20.8860 O   0  0  0  0  0  0  0  0  0  0  0  0
   12.1576   15.6366   21.8988 C   0  0  0  0  0  0  0  0  0  0  0  0
   11.4554   15.3857   23.2008 C   0  0  0  0  0  0  0  0  0  0  0  0
   11.6692   15.8910   24.2864 O   0  0  0  0  0  0  0  0  0  0  0  0
    7.4056   14.2886   24.7100 N   0  0  0  0  0  0  0  0  0  0  0  0
    7.7626   14.6638   25.8340 O   0  0  0  0  0  0  0  0  0  0  0  0
  1  2  1  0
  2  3  1  0
  3  4  2  0
  4  5  1  0
  5  6  2  0
  6  7  1  0
  7  8  2  0
  8  9  1  0
  9 10  1  1
 10 11  1  0
 11 12  1  0
 13 12  1  1
 13 14  1  0
 14 15  1  6
 14 16  1  0
 16 17  2  0
 13 18  1  0
 18 19  1  0
 19 20  2  0
  9 21  1  0
 21 22  2  0
  8  3  1  0
 19 11  1  0
M  END
>  <ref_pdb>  (143) 
A4202b

>  <tags>  (143) 
{'fragmenstein_placed', 'openbind_a71ev2a_c1_fragmenstein'}

>  <distance_score>  (143) 
0.953452

>  <energy_score>  (143) 
-14.726643

>  <inchikey>  (143) 
MLUYARBKPLLQGO-UHFFFAOYSA-N

>  <alias>  (143) 
COc1ccccc1[C@H](CN1C[C@@H]([C@H](N)N=O)CC1=O)N=O

>  <smiles>  (143) 
C158067-P285

>  <HIPPO Pose ID>  (143) 
69715

>  <ref_mols>  (143) 
A4295a,A1068a

>  <HIPPO Compound ID>  (143) 
160667

$$$$
COc1ccccc1[C@@H](O)CN1C[C@@H]([C@H](N)N=O)CC1=O
     RDKit          3D

 21 22  0  0  0  0  0  0  0  0999 V2000
    9.3201    9.6054   23.5309 C   0  0  0  0  0  0  0  0  0  0  0  0
    8.7931   10.9047   23.7604 O   0  0  0  0  0  0  0  0  0  0  0  0
    7.9280   11.1322   24.7969 C   0  0  0  0  0  0  0  0  0  0  0  0
    7.2812   10.1508   25.5336 C   0  0  0  0  0  0  0  0  0  0  0  0
    6.3278   10.4875   26.5004 C   0  0  0  0  0  0  0  0  0  0  0  0
    6.0511   11.8172   26.7787 C   0  0  0  0  0  0  0  0  0  0  0  0
    6.6962   12.8110   26.0547 C   0  0  0  0  0  0  0  0  0  0  0  0
    7.6151   12.4805   25.0444 C   0  0  0  0  0  0  0  0  0  0  0  0
    8.2055   13.5405   24.1458 C   0  0  1  0  0  0  0  0  0  0  0  0
    7.6638   14.8307   24.4382 O   0  0  0  0  0  0  0  0  0  0  0  0
    9.7275   13.6004   24.2967 C   0  0  0  0  0  0  0  0  0  0  0  0
   10.3686   14.2361   23.1620 N   0  0  0  0  0  0  0  0  0  0  0  0
   10.3189   13.7001   21.8461 C   0  0  0  0  0  0  0  0  0  0  0  0
   11.4000   14.4290   21.0345 C   0  0  1  0  0  0  0  0  0  0  0  0
   10.8198   14.8384   19.6750 C   0  0  2  0  0  0  0  0  0  0  0  0
   11.7160   14.8388   18.5259 N   0  0  0  0  0  0  0  0  0  0  0  0
    9.8529   15.9771   19.7863 N   0  0  0  0  0  0  0  0  0  0  0  0
    9.8204   16.6937   18.7778 O   0  0  0  0  0  0  0  0  0  0  0  0
   11.9355   15.5113   21.9647 C   0  0  0  0  0  0  0  0  0  0  0  0
   11.3572   15.1543   23.3092 C   0  0  0  0  0  0  0  0  0  0  0  0
   11.6618   15.5942   24.4036 O   0  0  0  0  0  0  0  0  0  0  0  0
  1  2  1  0
  2  3  1  0
  3  4  2  0
  4  5  1  0
  5  6  2  0
  6  7  1  0
  7  8  2  0
  8  9  1  0
  9 10  1  1
  9 11  1  0
 11 12  1  0
 12 13  1  0
 14 13  1  1
 14 15  1  0
 15 16  1  6
 15 17  1  0
 17 18  2  0
 14 19  1  0
 19 20  1  0
 20 21  2  0
  8  3  1  0
 20 12  1  0
M  END
>  <ref_pdb>  (144) 
A4202b

>  <tags>  (144) 
{'fragmenstein_placed', 'openbind_a71ev2a_c1_fragmenstein'}

>  <distance_score>  (144) 
0.551808

>  <energy_score>  (144) 
-21.597945

>  <inchikey>  (144) 
KWOAKLTZEAWRKW-UHFFFAOYSA-N

>  <alias>  (144) 
COc1ccccc1[C@@H](O)CN1C[C@@H]([C@H](N)N=O)CC1=O

>  <smiles>  (144) 
C158086-P285

>  <HIPPO Pose ID>  (144) 
69735

>  <ref_mols>  (144) 
A3186a,A4295a

>  <HIPPO Compound ID>  (144) 
157476

$$$$
COc1ccccc1[C@@H](CN1C[C@@H]([C@@H](N)N=O)C(F)(F)C1=O)N=O
     RDKit          3D

 24 25  0  0  0  0  0  0  0  0999 V2000
    9.1136    9.5842   23.8318 C   0  0  0  0  0  0  0  0  0  0  0  0
    8.4396   10.8360   23.9319 O   0  0  0  0  0  0  0  0  0  0  0  0
    7.6992   11.1497   25.0373 C   0  0  0  0  0  0  0  0  0  0  0  0
    6.9704   10.2127   25.7594 C   0  0  0  0  0  0  0  0  0  0  0  0
    6.0968   10.5963   26.7793 C   0  0  0  0  0  0  0  0  0  0  0  0
    5.9446   11.9366   27.0954 C   0  0  0  0  0  0  0  0  0  0  0  0
    6.6616   12.8901   26.3827 C   0  0  0  0  0  0  0  0  0  0  0  0
    7.5448   12.5131   25.3503 C   0  0  0  0  0  0  0  0  0  0  0  0
    8.2253   13.6184   24.5681 C   0  0  1  0  0  0  0  0  0  0  0  0
    9.7063   13.3226   24.2911 C   0  0  0  0  0  0  0  0  0  0  0  0
   10.3298   14.1038   23.2539 N   0  0  0  0  0  0  0  0  0  0  0  0
   10.1747   13.8187   21.8538 C   0  0  0  0  0  0  0  0  0  0  0  0
   11.3981   14.4120   21.1974 C   0  0  1  0  0  0  0  0  0  0  0  0
   11.2383   14.9887   19.8005 C   0  0  1  0  0  0  0  0  0  0  0  0
   11.5436   14.0163   18.7696 N   0  0  0  0  0  0  0  0  0  0  0  0
    9.9533   15.6880   19.5193 N   0  0  0  0  0  0  0  0  0  0  0  0
    9.6018   16.4828   20.3958 O   0  0  0  0  0  0  0  0  0  0  0  0
   11.9165   15.4436   22.1803 C   0  0  0  0  0  0  0  0  0  0  0  0
   13.2645   15.3705   22.2254 F   0  0  0  0  0  0  0  0  0  0  0  0
   11.6386   16.6980   21.8008 F   0  0  0  0  0  0  0  0  0  0  0  0
   11.2992   15.0345   23.5032 C   0  0  0  0  0  0  0  0  0  0  0  0
   11.5943   15.3797   24.6393 O   0  0  0  0  0  0  0  0  0  0  0  0
    7.4374   13.9005   23.3314 N   0  0  0  0  0  0  0  0  0  0  0  0
    6.9566   15.0389   23.3222 O   0  0  0  0  0  0  0  0  0  0  0  0
  1  2  1  0
  2  3  1  0
  3  4  2  0
  4  5  1  0
  5  6  2  0
  6  7  1  0
  7  8  2  0
  8  9  1  0
  9 10  1  6
 10 11  1  0
 11 12  1  0
 13 12  1  1
 13 14  1  0
 14 15  1  6
 14 16  1  0
 16 17  2  0
 13 18  1  0
 18 19  1  0
 18 20  1  0
 18 21  1  0
 21 22  2  0
  9 23  1  0
 23 24  2  0
  8  3  1  0
 21 11  1  0
M  END
>  <ref_pdb>  (145) 
A4202b

>  <tags>  (145) 
{'fragmenstein_placed', 'openbind_a71ev2a_c1_fragmenstein'}

>  <distance_score>  (145) 
0.792837

>  <energy_score>  (145) 
-25.966927

>  <inchikey>  (145) 
BQNACJRNYISVSZ-UHFFFAOYSA-N

>  <alias>  (145) 
COc1ccccc1[C@@H](CN1C[C@@H]([C@@H](N)N=O)C(F)(F)C1=O)N=O

>  <smiles>  (145) 
C158096-P285

>  <HIPPO Pose ID>  (145) 
69742

>  <ref_mols>  (145) 
A3264a,A4295a

>  <HIPPO Compound ID>  (145) 
160793

$$$$
COc1ccccc1C(O)(O)CN1C[C@@H](C(=O)NO)CC1=O
     RDKit          3D

 22 23  0  0  0  0  0  0  0  0999 V2000
    9.3128    9.5047   23.5003 C   0  0  0  0  0  0  0  0  0  0  0  0
    9.0773   10.8249   23.9725 O   0  0  0  0  0  0  0  0  0  0  0  0
    8.1068   11.1300   24.8806 C   0  0  0  0  0  0  0  0  0  0  0  0
    7.3092   10.1738   25.5045 C   0  0  0  0  0  0  0  0  0  0  0  0
    6.2934   10.5341   26.3937 C   0  0  0  0  0  0  0  0  0  0  0  0
    6.0750   11.8675   26.6920 C   0  0  0  0  0  0  0  0  0  0  0  0
    6.8807   12.8331   26.1019 C   0  0  0  0  0  0  0  0  0  0  0  0
    7.9049   12.4924   25.1873 C   0  0  0  0  0  0  0  0  0  0  0  0
    8.7318   13.6343   24.6119 C   0  0  0  0  0  0  0  0  0  0  0  0
    7.8365   14.7072   24.3169 O   0  0  0  0  0  0  0  0  0  0  0  0
    9.6151   14.0922   25.6329 O   0  0  0  0  0  0  0  0  0  0  0  0
    9.5115   13.2816   23.3319 C   0  0  0  0  0  0  0  0  0  0  0  0
    9.9652   14.4519   22.5996 N   0  0  0  0  0  0  0  0  0  0  0  0
    9.7155   14.5542   21.1921 C   0  0  0  0  0  0  0  0  0  0  0  0
   11.0885   14.7505   20.6108 C   0  0  1  0  0  0  0  0  0  0  0  0
   11.0508   15.1153   19.1343 C   0  0  0  0  0  0  0  0  0  0  0  0
   11.6906   14.5014   18.3754 O   0  0  0  0  0  0  0  0  0  0  0  0
   10.1033   16.3123   18.9062 N   0  0  0  0  0  0  0  0  0  0  0  0
    9.6884   16.9192   17.7341 O   0  0  0  0  0  0  0  0  0  0  0  0
   11.7516   15.6421   21.6479 C   0  0  0  0  0  0  0  0  0  0  0  0
   11.1822   15.0454   22.9149 C   0  0  0  0  0  0  0  0  0  0  0  0
   11.6607   15.0523   24.0381 O   0  0  0  0  0  0  0  0  0  0  0  0
  1  2  1  0
  2  3  1  0
  3  4  2  0
  4  5  1  0
  5  6  2  0
  6  7  1  0
  7  8  2  0
  8  9  1  0
  9 10  1  0
  9 11  1  0
  9 12  1  0
 12 13  1  0
 13 14  1  0
 14 15  1  0
 15 16  1  6
 16 17  2  0
 16 18  1  0
 18 19  1  0
 15 20  1  0
 20 21  1  0
 21 22  2  0
  8  3  1  0
 21 13  1  0
M  END
>  <ref_pdb>  (146) 
A4202b

>  <tags>  (146) 
{'fragmenstein_placed', 'openbind_a71ev2a_c1_fragmenstein'}

>  <distance_score>  (146) 
0.680135

>  <energy_score>  (146) 
-18.902314

>  <inchikey>  (146) 
YVPORMJUNHFFRP-UHFFFAOYSA-N

>  <alias>  (146) 
COc1ccccc1C(O)(O)CN1C[C@@H](C(=O)NO)CC1=O

>  <smiles>  (146) 
C158145-P285

>  <HIPPO Pose ID>  (146) 
69784

>  <ref_mols>  (146) 
A3992a,A4295a

>  <HIPPO Compound ID>  (146) 
159094

$$$$
CC[C@@H](OC)c1cccc(/C(C)=[S@H](/C)=O)c1
     RDKit          3D

 16 16  0  0  0  0  0  0  0  0999 V2000
   10.0290   14.5518   22.8121 C   0  0  0  0  0  0  0  0  0  0  0  0
    9.0368   13.4934   23.2754 C   0  0  0  0  0  0  0  0  0  0  0  0
    8.9930   13.3567   24.8071 C   0  0  1  0  0  0  0  0  0  0  0  0
    8.6424   14.5744   25.4850 O   0  0  0  0  0  0  0  0  0  0  0  0
    7.4611   15.2177   25.0228 C   0  0  0  0  0  0  0  0  0  0  0  0
    8.1455   12.1950   25.3074 C   0  0  0  0  0  0  0  0  0  0  0  0
    8.3470   10.8920   24.8504 C   0  0  0  0  0  0  0  0  0  0  0  0
    7.5871    9.8371   25.3626 C   0  0  0  0  0  0  0  0  0  0  0  0
    6.5758   10.0614   26.2981 C   0  0  0  0  0  0  0  0  0  0  0  0
    6.3850   11.3483   26.7678 C   0  0  0  0  0  0  0  0  0  0  0  0
    5.3270   11.6915   27.7351 C   0  0  0  0  0  0  0  0  0  0  0  0
    5.3862   10.9931   29.0730 C   0  0  0  0  0  0  0  0  0  0  0  0
    4.2056   12.9284   27.1555 S   0  0  2  0  0  6  0  0  0  0  0  0
    4.6537   14.4262   27.9248 C   0  0  0  0  0  0  0  0  0  0  0  0
    2.8664   12.5120   28.0177 O   0  0  0  0  0  0  0  0  0  0  0  0
    7.1882   12.3864   26.3122 C   0  0  0  0  0  0  0  0  0  0  0  0
  1  2  1  0
  3  2  1  6
  3  4  1  0
  4  5  1  0
  3  6  1  0
  6  7  2  0
  7  8  1  0
  8  9  2  0
  9 10  1  0
 10 11  1  0
 11 12  1  0
 11 13  2  0
 13 14  1  1
 13 15  2  0
 10 16  2  0
 16  6  1  0
M  END
>  <ref_pdb>  (147) 
A4202b

>  <tags>  (147) 
{'fragmenstein_placed', 'openbind_a71ev2a_c1_fragmenstein'}

>  <distance_score>  (147) 
0.844218

>  <energy_score>  (147) 
-54.18568

>  <inchikey>  (147) 
VMAHPGKKKWPAJU-UHFFFAOYSA-N

>  <alias>  (147) 
CC[C@@H](OC)c1cccc(/C(C)=[S@H](/C)=O)c1

>  <smiles>  (147) 
C158808-P287

>  <HIPPO Pose ID>  (147) 
70192

>  <ref_mols>  (147) 
A4836a,A4303b

>  <HIPPO Compound ID>  (147) 
155988

$$$$
CC[C@@H](OC)c1cccc(/C(C)=[S@@H](\C)=O)c1
     RDKit          3D

 16 16  0  0  0  0  0  0  0  0999 V2000
    9.7675   14.7842   22.6825 C   0  0  0  0  0  0  0  0  0  0  0  0
    8.7486   13.7835   23.2092 C   0  0  0  0  0  0  0  0  0  0  0  0
    8.8432   13.6124   24.7299 C   0  0  1  0  0  0  0  0  0  0  0  0
    8.5273   14.8743   25.3343 O   0  0  0  0  0  0  0  0  0  0  0  0
    8.9343   14.9907   26.6836 C   0  0  0  0  0  0  0  0  0  0  0  0
    7.9211   12.5068   25.2031 C   0  0  0  0  0  0  0  0  0  0  0  0
    8.2348   11.1781   24.9243 C   0  0  0  0  0  0  0  0  0  0  0  0
    7.4034   10.1712   25.3873 C   0  0  0  0  0  0  0  0  0  0  0  0
    6.2970   10.4686   26.1910 C   0  0  0  0  0  0  0  0  0  0  0  0
    6.0077   11.7791   26.5403 C   0  0  0  0  0  0  0  0  0  0  0  0
    5.0179   12.0935   27.6223 C   0  0  0  0  0  0  0  0  0  0  0  0
    5.0032   11.1612   28.8301 C   0  0  0  0  0  0  0  0  0  0  0  0
    4.0514   13.5803   27.5519 S   0  0  1  0  0  6  0  0  0  0  0  0
    5.0930   14.9316   27.9175 C   0  0  0  0  0  0  0  0  0  0  0  0
    3.8318   13.7614   25.9383 O   0  0  0  0  0  0  0  0  0  0  0  0
    6.7694   12.7864   25.9595 C   0  0  0  0  0  0  0  0  0  0  0  0
  1  2  1  0
  3  2  1  6
  3  4  1  0
  4  5  1  0
  3  6  1  0
  6  7  2  0
  7  8  1  0
  8  9  2  0
  9 10  1  0
 10 11  1  0
 11 12  1  0
 11 13  2  0
 13 14  1  6
 13 15  2  0
 10 16  2  0
 16  6  1  0
M  END
>  <ref_pdb>  (148) 
A4202b

>  <tags>  (148) 
{'fragmenstein_placed', 'openbind_a71ev2a_c1_fragmenstein'}

>  <distance_score>  (148) 
0.962683

>  <energy_score>  (148) 
-49.219761

>  <inchikey>  (148) 
VMRRETVEFLYQLB-UHFFFAOYSA-N

>  <alias>  (148) 
CC[C@@H](OC)c1cccc(/C(C)=[S@@H](\C)=O)c1

>  <smiles>  (148) 
C158808-P481

>  <HIPPO Pose ID>  (148) 
70193

>  <ref_mols>  (148) 
A4836a,A4303b

>  <HIPPO Compound ID>  (148) 
160224

$$$$
COc1c(C(F)(F)F)ccc(SC)c1NC(O)(O)N1CC[C@H](O)[C@]2(CNNN2)C1
     RDKit          3D

 29 31  0  0  0  0  0  0  0  0999 V2000
    5.5964   14.3691   25.3745 C   0  0  0  0  0  0  0  0  0  0  0  0
    6.5403   13.7100   26.2299 O   0  0  0  0  0  0  0  0  0  0  0  0
    6.7118   12.3959   25.8525 C   0  0  0  0  0  0  0  0  0  0  0  0
    5.9269   11.4098   26.4594 C   0  0  0  0  0  0  0  0  0  0  0  0
    4.9027   11.7273   27.5081 C   0  0  0  0  0  0  0  0  0  0  0  0
    4.1795   10.6254   27.8785 F   0  0  0  0  0  0  0  0  0  0  0  0
    3.9732   12.6390   27.1202 F   0  0  0  0  0  0  0  0  0  0  0  0
    5.4581   12.1899   28.6613 F   0  0  0  0  0  0  0  0  0  0  0  0
    6.1634   10.0791   26.1217 C   0  0  0  0  0  0  0  0  0  0  0  0
    7.1803    9.7409   25.2371 C   0  0  0  0  0  0  0  0  0  0  0  0
    7.9982   10.7072   24.6506 C   0  0  0  0  0  0  0  0  0  0  0  0
    9.4180   10.1516   23.7079 S   0  0  0  0  0  0  0  0  0  0  0  0
    9.0678    8.5024   23.1204 C   0  0  0  0  0  0  0  0  0  0  0  0
    7.7755   12.0764   24.9631 C   0  0  0  0  0  0  0  0  0  0  0  0
    8.6232   13.1454   24.5461 N   0  0  0  0  0  0  0  0  0  0  0  0
    8.6694   13.5307   23.1537 C   0  0  0  0  0  0  0  0  0  0  0  0
    9.4113   12.5756   22.4972 O   0  0  0  0  0  0  0  0  0  0  0  0
    7.3509   13.5196   22.6747 O   0  0  0  0  0  0  0  0  0  0  0  0
    9.2576   14.8019   22.7946 N   0  0  0  0  0  0  0  0  0  0  0  0
   10.5940   14.8912   23.3794 C   0  0  0  0  0  0  0  0  0  0  0  0
   11.2907   16.1914   23.0207 C   0  0  0  0  0  0  0  0  0  0  0  0
   11.0595   16.6977   21.5962 C   0  0  2  0  0  0  0  0  0  0  0  0
   10.0032   17.6526   21.5408 O   0  0  0  0  0  0  0  0  0  0  0  0
   10.6563   15.5624   20.6854 C   0  0  1  0  0  0  0  0  0  0  0  0
   10.3633   16.0270   19.2486 C   0  0  0  0  0  0  0  0  0  0  0  0
   11.3383   15.3253   18.4183 N   0  0  0  0  0  0  0  0  0  0  0  0
   11.6964   14.1966   19.1788 N   0  0  0  0  0  0  0  0  0  0  0  0
   11.8044   14.6417   20.5242 N   0  0  0  0  0  0  0  0  0  0  0  0
    9.3562   14.9439   21.2991 C   0  0  0  0  0  0  0  0  0  0  0  0
  1  2  1  0
  2  3  1  0
  3  4  2  0
  4  5  1  0
  5  6  1  0
  5  7  1  0
  5  8  1  0
  4  9  1  0
  9 10  2  0
 10 11  1  0
 11 12  1  0
 12 13  1  0
 11 14  2  0
 14 15  1  0
 15 16  1  0
 16 17  1  0
 16 18  1  0
 16 19  1  0
 19 20  1  0
 20 21  1  0
 21 22  1  0
 22 23  1  1
 22 24  1  0
 24 25  1  6
 25 26  1  0
 26 27  1  0
 27 28  1  0
 24 29  1  0
 14  3  1  0
 29 19  1  0
 28 24  1  0
M  END
>  <ref_pdb>  (149) 
A4202b

>  <tags>  (149) 
{'fragmenstein_placed', 'openbind_a71ev2a_c1_fragmenstein'}

>  <distance_score>  (149) 
0.636911

>  <energy_score>  (149) 
-65.870554

>  <inchikey>  (149) 
QTGYCYOMZYQVEP-UHFFFAOYSA-N

>  <alias>  (149) 
COc1c(C(F)(F)F)ccc(SC)c1NC(O)(O)N1CC[C@H](O)[C@]2(CNNN2)C1

>  <smiles>  (149) 
C160734-P294

>  <HIPPO Pose ID>  (149) 
71075

>  <ref_mols>  (149) 
A1148a,A4310a

>  <HIPPO Compound ID>  (149) 
162058

$$$$
CSc1cccc(C(C)(C)C)c1NC(O)(O)N1CC[C@H](O)[C@@]2(CNNN2)C1
     RDKit          3D

 27 29  0  0  0  0  0  0  0  0999 V2000
   10.7397   12.2006   24.5675 C   0  0  0  0  0  0  0  0  0  0  0  0
    9.6713   10.8640   23.8688 S   0  0  0  0  0  0  0  0  0  0  0  0
    8.1676   11.1460   24.7791 C   0  0  0  0  0  0  0  0  0  0  0  0
    7.6224    9.9740   25.3110 C   0  0  0  0  0  0  0  0  0  0  0  0
    6.5620   10.0438   26.1838 C   0  0  0  0  0  0  0  0  0  0  0  0
    6.0605   11.2873   26.5398 C   0  0  0  0  0  0  0  0  0  0  0  0
    6.5675   12.5042   26.0156 C   0  0  0  0  0  0  0  0  0  0  0  0
    5.9602   13.8326   26.5470 C   0  0  0  0  0  0  0  0  0  0  0  0
    4.7965   13.6204   27.5575 C   0  0  0  0  0  0  0  0  0  0  0  0
    7.0227   14.6368   27.3362 C   0  0  0  0  0  0  0  0  0  0  0  0
    5.3466   14.6793   25.4104 C   0  0  0  0  0  0  0  0  0  0  0  0
    7.6253   12.4291   25.0589 C   0  0  0  0  0  0  0  0  0  0  0  0
    8.2064   13.5862   24.5171 N   0  0  0  0  0  0  0  0  0  0  0  0
    8.1965   14.0183   23.1393 C   0  0  0  0  0  0  0  0  0  0  0  0
    8.9232   13.1802   22.3282 O   0  0  0  0  0  0  0  0  0  0  0  0
    6.8703   13.9462   22.7135 O   0  0  0  0  0  0  0  0  0  0  0  0
    8.7058   15.3583   22.9394 N   0  0  0  0  0  0  0  0  0  0  0  0
    9.9930   15.6000   23.6107 C   0  0  0  0  0  0  0  0  0  0  0  0
   11.2544   15.3544   22.7889 C   0  0  0  0  0  0  0  0  0  0  0  0
   11.2516   16.1925   21.5266 C   0  0  2  0  0  0  0  0  0  0  0  0
   11.2376   17.5557   21.8776 O   0  0  0  0  0  0  0  0  0  0  0  0
   10.0399   15.8024   20.6907 C   0  0  2  0  0  0  0  0  0  0  0  0
   10.3935   14.5002   20.0216 C   0  0  0  0  0  0  0  0  0  0  0  0
   10.8553   14.8385   18.6799 N   0  0  0  0  0  0  0  0  0  0  0  0
   10.4328   16.1603   18.4301 N   0  0  0  0  0  0  0  0  0  0  0  0
    9.7717   16.6764   19.5492 N   0  0  0  0  0  0  0  0  0  0  0  0
    8.7255   15.8140   21.5324 C   0  0  0  0  0  0  0  0  0  0  0  0
  1  2  1  0
  2  3  1  0
  3  4  2  0
  4  5  1  0
  5  6  2  0
  6  7  1  0
  7  8  1  0
  8  9  1  0
  8 10  1  0
  8 11  1  0
  7 12  2  0
 12 13  1  0
 13 14  1  0
 14 15  1  0
 14 16  1  0
 14 17  1  0
 17 18  1  0
 18 19  1  0
 19 20  1  0
 20 21  1  1
 20 22  1  0
 22 23  1  6
 23 24  1  0
 24 25  1  0
 25 26  1  0
 22 27  1  0
 12  3  1  0
 27 17  1  0
 26 22  1  0
M  END
>  <ref_pdb>  (150) 
A4202b

>  <tags>  (150) 
{'fragmenstein_placed', 'openbind_a71ev2a_c1_fragmenstein'}

>  <distance_score>  (150) 
0.886381

>  <energy_score>  (150) 
-74.486685

>  <inchikey>  (150) 
UWUWVBJAARDSSL-UHFFFAOYSA-N

>  <alias>  (150) 
CSc1cccc(C(C)(C)C)c1NC(O)(O)N1CC[C@H](O)[C@@]2(CNNN2)C1

>  <smiles>  (150) 
C161236-P296

>  <HIPPO Pose ID>  (150) 
71485

>  <ref_mols>  (150) 
A4311a,A0487a

>  <HIPPO Compound ID>  (150) 
161860

$$$$
Cc1cc2c3c(c1)[C@](O)(N1C[C@@H](C(N)(O)O)CCC1=O)CN3CO2
     RDKit          3D

 24 27  0  0  0  0  0  0  0  0999 V2000
    9.8687    9.3256   22.8974 C   0  0  0  0  0  0  0  0  0  0  0  0
    9.1400   10.4162   23.6149 C   0  0  0  0  0  0  0  0  0  0  0  0
    8.1673   10.1378   24.6078 C   0  0  0  0  0  0  0  0  0  0  0  0
    7.5590   11.1925   25.2457 C   0  0  0  0  0  0  0  0  0  0  0  0
    7.9329   12.4517   24.9337 C   0  0  0  0  0  0  0  0  0  0  0  0
    8.6561   12.7360   23.8238 C   0  0  0  0  0  0  0  0  0  0  0  0
    9.3721   11.7390   23.2081 C   0  0  0  0  0  0  0  0  0  0  0  0
    8.2578   14.1015   23.3833 C   0  0  2  0  0  0  0  0  0  0  0  0
    7.2985   13.8750   22.3281 O   0  0  0  0  0  0  0  0  0  0  0  0
    9.4187   14.8110   22.8733 N   0  0  0  0  0  0  0  0  0  0  0  0
    9.4883   15.1463   21.4437 C   0  0  0  0  0  0  0  0  0  0  0  0
   10.8842   15.0278   20.8404 C   0  0  1  0  0  0  0  0  0  0  0  0
   10.9569   15.5242   19.3838 C   0  0  0  0  0  0  0  0  0  0  0  0
   10.2406   14.7727   18.4372 N   0  0  0  0  0  0  0  0  0  0  0  0
   10.4189   16.7955   19.2018 O   0  0  0  0  0  0  0  0  0  0  0  0
   12.2669   15.4174   18.9523 O   0  0  0  0  0  0  0  0  0  0  0  0
   11.8779   15.7719   21.7336 C   0  0  0  0  0  0  0  0  0  0  0  0
   11.8492   15.2140   23.1363 C   0  0  0  0  0  0  0  0  0  0  0  0
   10.4711   15.0535   23.7372 C   0  0  0  0  0  0  0  0  0  0  0  0
   10.3571   15.0461   24.9645 O   0  0  0  0  0  0  0  0  0  0  0  0
    7.4291   14.6089   24.6714 C   0  0  0  0  0  0  0  0  0  0  0  0
    7.3116   13.4920   25.6494 N   0  0  0  0  0  0  0  0  0  0  0  0
    6.1495   12.7048   26.0506 C   0  0  0  0  0  0  0  0  0  0  0  0
    6.4914   11.2549   26.0939 O   0  0  0  0  0  0  0  0  0  0  0  0
  1  2  1  0
  2  3  2  0
  3  4  1  0
  4  5  2  0
  5  6  1  0
  6  7  2  0
  6  8  1  0
  8  9  1  6
  8 10  1  0
 10 11  1  0
 11 12  1  0
 12 13  1  6
 13 14  1  0
 13 15  1  0
 13 16  1  0
 12 17  1  0
 17 18  1  0
 18 19  1  0
 19 20  2  0
  8 21  1  0
 21 22  1  0
 22 23  1  0
 23 24  1  0
  7  2  1  0
 19 10  1  0
 24  4  1  0
 22  5  1  0
M  END
>  <ref_pdb>  (151) 
A4315a

>  <tags>  (151) 
{'fragmenstein_placed', 'openbind_a71ev2a_c1_fragmenstein'}

>  <distance_score>  (151) 
0.668809

>  <energy_score>  (151) 
-35.834377

>  <inchikey>  (151) 
DYCQCBXGYZVPKZ-UHFFFAOYSA-N

>  <alias>  (151) 
Cc1cc2c3c(c1)[C@](O)(N1C[C@@H](C(N)(O)O)CCC1=O)CN3CO2

>  <smiles>  (151) 
C171861-P299

>  <HIPPO Pose ID>  (151) 
72126

>  <ref_mols>  (151) 
A4315a,A4745a

>  <HIPPO Compound ID>  (151) 
171861

$$$$
Cc1nc2c3c(cccc3n1)CC(=O)[C@H]1[C@H](C[C@@H](N)N=O)CCCN21
     RDKit          3D

 25 28  0  0  0  0  0  0  0  0999 V2000
   10.3864    8.5726   23.5205 C   0  0  0  0  0  0  0  0  0  0  0  0
    9.5101    9.7176   23.8947 C   0  0  0  0  0  0  0  0  0  0  0  0
    9.9837   10.8507   23.4143 N   0  0  0  0  0  0  0  0  0  0  0  0
    9.4451   11.9758   23.8452 C   0  0  0  0  0  0  0  0  0  0  0  0
    8.2862   12.0368   24.6076 C   0  0  0  0  0  0  0  0  0  0  0  0
    7.5680   13.2422   24.8630 C   0  0  0  0  0  0  0  0  0  0  0  0
    6.5371   13.2342   25.8012 C   0  0  0  0  0  0  0  0  0  0  0  0
    6.1952   12.0404   26.4201 C   0  0  0  0  0  0  0  0  0  0  0  0
    6.8562   10.8563   26.0678 C   0  0  0  0  0  0  0  0  0  0  0  0
    7.8966   10.8125   25.1388 C   0  0  0  0  0  0  0  0  0  0  0  0
    8.5099    9.6509   24.7920 N   0  0  0  0  0  0  0  0  0  0  0  0
    7.8927   14.5132   24.0949 C   0  0  0  0  0  0  0  0  0  0  0  0
    8.3190   14.2222   22.6527 C   0  0  0  0  0  0  0  0  0  0  0  0
    7.4684   14.0798   21.7687 O   0  0  0  0  0  0  0  0  0  0  0  0
    9.8033   13.8299   22.4312 C   0  0  1  0  0  0  0  0  0  0  0  0
   10.8148   14.9567   22.1031 C   0  0  2  0  0  0  0  0  0  0  0  0
   11.7139   14.6595   20.8511 C   0  0  0  0  0  0  0  0  0  0  0  0
   11.1944   15.0159   19.4439 C   0  0  1  0  0  0  0  0  0  0  0  0
   11.2487   13.9283   18.4954 N   0  0  0  0  0  0  0  0  0  0  0  0
    9.9531   15.8108   19.4391 N   0  0  0  0  0  0  0  0  0  0  0  0
    9.0392   15.2393   20.0237 O   0  0  0  0  0  0  0  0  0  0  0  0
   11.7472   15.2596   23.2765 C   0  0  0  0  0  0  0  0  0  0  0  0
   12.2790   14.1149   24.1098 C   0  0  0  0  0  0  0  0  0  0  0  0
   11.6270   12.8381   23.7218 C   0  0  0  0  0  0  0  0  0  0  0  0
   10.2130   13.1274   23.6589 N   0  0  0  0  0  0  0  0  0  0  0  0
  1  2  1  0
  2  3  2  0
  3  4  1  0
  4  5  2  0
  5  6  1  0
  6  7  2  0
  7  8  1  0
  8  9  2  0
  9 10  1  0
 10 11  2  0
  6 12  1  0
 12 13  1  0
 13 14  2  0
 15 13  1  1
 15 16  1  0
 16 17  1  6
 17 18  1  0
 18 19  1  6
 18 20  1  0
 20 21  2  0
 16 22  1  0
 22 23  1  0
 23 24  1  0
 24 25  1  0
 11  2  1  0
 25 15  1  0
 25  4  1  0
 10  5  1  0
M  END
>  <ref_pdb>  (152) 
A4344a

>  <tags>  (152) 
{'fragmenstein_placed', 'openbind_a71ev2a_c1_fragmenstein'}

>  <distance_score>  (152) 
0.848077

>  <energy_score>  (152) 
-40.133076

>  <inchikey>  (152) 
LGZDDTPAQWOQRS-UHFFFAOYSA-N

>  <alias>  (152) 
Cc1nc2c3c(cccc3n1)CC(=O)[C@H]1[C@H](C[C@@H](N)N=O)CCCN21

>  <smiles>  (152) 
C238995-P322

>  <HIPPO Pose ID>  (152) 
75349

>  <ref_mols>  (152) 
A4351a,A3221a

>  <HIPPO Compound ID>  (152) 
238995

$$$$
N[C@H](C[C@H]1CCCN2c3ncnc4cc(C(F)(F)F)cc(c34)CC(=O)[C@@H]12)N=O
     RDKit          3D

 28 31  0  0  0  0  0  0  0  0999 V2000
   11.1196   14.3495   18.7434 N   0  0  0  0  0  0  0  0  0  0  0  0
   10.6400   15.3165   19.7161 C   0  0  2  0  0  0  0  0  0  0  0  0
   11.5060   15.3729   20.9689 C   0  0  0  0  0  0  0  0  0  0  0  0
   11.4635   14.2479   21.9968 C   0  0  1  0  0  0  0  0  0  0  0  0
   12.2731   14.7581   23.1733 C   0  0  0  0  0  0  0  0  0  0  0  0
   12.3572   13.8279   24.3603 C   0  0  0  0  0  0  0  0  0  0  0  0
   11.3449   12.7149   24.4294 C   0  0  0  0  0  0  0  0  0  0  0  0
   10.4814   12.5388   23.2644 N   0  0  0  0  0  0  0  0  0  0  0  0
    9.4871   11.6226   23.5532 C   0  0  0  0  0  0  0  0  0  0  0  0
    9.9475   10.4132   23.2990 N   0  0  0  0  0  0  0  0  0  0  0  0
    9.4290    9.4409   23.9933 C   0  0  0  0  0  0  0  0  0  0  0  0
    8.4434    9.5648   24.8919 N   0  0  0  0  0  0  0  0  0  0  0  0
    7.9116   10.7755   25.0704 C   0  0  0  0  0  0  0  0  0  0  0  0
    6.9308   10.9378   26.0461 C   0  0  0  0  0  0  0  0  0  0  0  0
    6.3155   12.1677   26.3149 C   0  0  0  0  0  0  0  0  0  0  0  0
    5.3232   12.3078   27.4367 C   0  0  0  0  0  0  0  0  0  0  0  0
    5.4277   13.5002   28.0867 F   0  0  0  0  0  0  0  0  0  0  0  0
    4.0299   12.2137   27.0276 F   0  0  0  0  0  0  0  0  0  0  0  0
    5.4783   11.3556   28.4018 F   0  0  0  0  0  0  0  0  0  0  0  0
    6.6167   13.2441   25.4865 C   0  0  0  0  0  0  0  0  0  0  0  0
    7.5877   13.1054   24.4850 C   0  0  0  0  0  0  0  0  0  0  0  0
    8.3267   11.8806   24.3379 C   0  0  0  0  0  0  0  0  0  0  0  0
    7.8156   14.2429   23.5150 C   0  0  0  0  0  0  0  0  0  0  0  0
    9.2874   14.5103   23.5128 C   0  0  0  0  0  0  0  0  0  0  0  0
    9.7860   14.9877   24.5382 O   0  0  0  0  0  0  0  0  0  0  0  0
   10.1193   13.7147   22.5087 C   0  0  1  0  0  0  0  0  0  0  0  0
    9.2191   15.2200   20.1008 N   0  0  0  0  0  0  0  0  0  0  0  0
    8.9015   15.9773   21.0255 O   0  0  0  0  0  0  0  0  0  0  0  0
  2  1  1  6
  2  3  1  0
  4  3  1  6
  4  5  1  0
  5  6  1  0
  6  7  1  0
  7  8  1  0
  8  9  1  0
  9 10  1  0
 10 11  2  0
 11 12  1  0
 12 13  2  0
 13 14  1  0
 14 15  2  0
 15 16  1  0
 16 17  1  0
 16 18  1  0
 16 19  1  0
 15 20  1  0
 20 21  2  0
 21 22  1  0
 21 23  1  0
 23 24  1  0
 24 25  2  0
 26 24  1  1
  2 27  1  0
 27 28  2  0
 26  4  1  0
 26  8  1  0
 22  9  2  0
 22 13  1  0
M  END
>  <ref_pdb>  (153) 
A4344a

>  <tags>  (153) 
{'fragmenstein_placed', 'openbind_a71ev2a_c1_fragmenstein'}

>  <distance_score>  (153) 
0.741604

>  <energy_score>  (153) 
-27.806188

>  <inchikey>  (153) 
VFBUMSUYWJXJKD-UHFFFAOYSA-N

>  <alias>  (153) 
N[C@H](C[C@H]1CCCN2c3ncnc4cc(C(F)(F)F)cc(c34)CC(=O)[C@@H]12)N=O

>  <smiles>  (153) 
C239025-P322

>  <HIPPO Pose ID>  (153) 
75418

>  <ref_mols>  (153) 
A4351a,A4489b

>  <HIPPO Compound ID>  (153) 
239025

$$$$
N[C@@H](C[C@@H]1CCCN2c3ncnc4cccc(c34)C(=O)[C@H]12)N=O
     RDKit          3D

 23 26  0  0  0  0  0  0  0  0999 V2000
   11.0989   14.3534   18.8004 N   0  0  0  0  0  0  0  0  0  0  0  0
   10.3751   14.7658   19.9990 C   0  0  1  0  0  0  0  0  0  0  0  0
   11.3283   14.6485   21.1492 C   0  0  0  0  0  0  0  0  0  0  0  0
   10.6840   15.0435   22.4893 C   0  0  2  0  0  0  0  0  0  0  0  0
   11.8635   15.2228   23.4388 C   0  0  0  0  0  0  0  0  0  0  0  0
   12.1652   14.0263   24.3387 C   0  0  0  0  0  0  0  0  0  0  0  0
   11.7080   12.7396   23.7078 C   0  0  0  0  0  0  0  0  0  0  0  0
   10.3193   12.8182   23.2682 N   0  0  0  0  0  0  0  0  0  0  0  0
    9.5390   11.7644   23.6891 C   0  0  0  0  0  0  0  0  0  0  0  0
   10.0530   10.5609   23.5306 N   0  0  0  0  0  0  0  0  0  0  0  0
    9.4215    9.5775   24.1347 C   0  0  0  0  0  0  0  0  0  0  0  0
    8.3752    9.7111   24.9714 N   0  0  0  0  0  0  0  0  0  0  0  0
    7.8419   10.9328   25.0950 C   0  0  0  0  0  0  0  0  0  0  0  0
    6.7758   11.2222   25.9475 C   0  0  0  0  0  0  0  0  0  0  0  0
    6.1746   12.4944   25.9664 C   0  0  0  0  0  0  0  0  0  0  0  0
    6.5893   13.4806   25.0646 C   0  0  0  0  0  0  0  0  0  0  0  0
    7.6694   13.1967   24.2428 C   0  0  0  0  0  0  0  0  0  0  0  0
    8.3382   11.9771   24.3413 C   0  0  0  0  0  0  0  0  0  0  0  0
    8.2052   14.0496   23.1479 C   0  0  0  0  0  0  0  0  0  0  0  0
    7.4774   14.4874   22.2767 O   0  0  0  0  0  0  0  0  0  0  0  0
    9.7250   14.1377   23.2537 C   0  0  2  0  0  0  0  0  0  0  0  0
    9.8027   16.1248   19.9474 N   0  0  0  0  0  0  0  0  0  0  0  0
    9.3748   16.3879   18.8275 O   0  0  0  0  0  0  0  0  0  0  0  0
  2  1  1  6
  2  3  1  0
  4  3  1  6
  4  5  1  0
  5  6  1  0
  6  7  1  0
  7  8  1  0
  8  9  1  0
  9 10  2  0
 10 11  1  0
 11 12  2  0
 12 13  1  0
 13 14  2  0
 14 15  1  0
 15 16  2  0
 16 17  1  0
 17 18  2  0
 17 19  1  0
 19 20  2  0
 21 19  1  6
  2 22  1  0
 22 23  2  0
 21  4  1  0
 21  8  1  0
 18  9  1  0
 18 13  1  0
M  END
>  <ref_pdb>  (154) 
A4344a

>  <tags>  (154) 
{'fragmenstein_placed', 'openbind_a71ev2a_c1_fragmenstein'}

>  <distance_score>  (154) 
0.927359

>  <energy_score>  (154) 
-0.406854

>  <inchikey>  (154) 
CKEHPFRKAUOUOY-UHFFFAOYSA-N

>  <alias>  (154) 
N[C@@H](C[C@@H]1CCCN2c3ncnc4cccc(c34)C(=O)[C@H]12)N=O

>  <smiles>  (154) 
C239119-P322

>  <HIPPO Pose ID>  (154) 
75423

>  <ref_mols>  (154) 
A4351a,A4514a

>  <HIPPO Compound ID>  (154) 
239119

$$$$
Cc1cc(S(=O)(=O)N2CC[C@@H](O)[C@@]3(CNNN3)C2)c2[nH]ccc2c1
     RDKit          3D

 24 27  0  0  0  0  0  0  0  0999 V2000
    9.7654    9.8374   23.1061 C   0  0  0  0  0  0  0  0  0  0  0  0
    8.9515   10.7804   23.9248 C   0  0  0  0  0  0  0  0  0  0  0  0
    9.0738   12.1624   23.7997 C   0  0  0  0  0  0  0  0  0  0  0  0
    8.2657   13.0217   24.5594 C   0  0  0  0  0  0  0  0  0  0  0  0
    8.3842   14.7818   24.4064 S   0  0  0  0  0  0  0  0  0  0  0  0
    7.1434   15.1970   23.7948 O   0  0  0  0  0  0  0  0  0  0  0  0
    8.8038   15.2845   25.7001 O   0  0  0  0  0  0  0  0  0  0  0  0
    9.6541   15.0216   23.3224 N   0  0  0  0  0  0  0  0  0  0  0  0
   11.0080   15.0392   23.9095 C   0  0  0  0  0  0  0  0  0  0  0  0
   12.0199   14.8088   22.8098 C   0  0  0  0  0  0  0  0  0  0  0  0
   11.8791   15.8130   21.6662 C   0  0  1  0  0  0  0  0  0  0  0  0
   12.7644   15.3967   20.6362 O   0  0  0  0  0  0  0  0  0  0  0  0
   10.4131   15.9470   21.1503 C   0  0  2  0  0  0  0  0  0  0  0  0
    9.9508   14.8078   20.2694 C   0  0  0  0  0  0  0  0  0  0  0  0
   10.4829   15.1280   18.9581 N   0  0  0  0  0  0  0  0  0  0  0  0
   10.4450   16.5394   18.8935 N   0  0  0  0  0  0  0  0  0  0  0  0
   10.2840   17.0823   20.2163 N   0  0  0  0  0  0  0  0  0  0  0  0
    9.4616   16.1132   22.3383 C   0  0  0  0  0  0  0  0  0  0  0  0
    7.3136   12.4467   25.4150 C   0  0  0  0  0  0  0  0  0  0  0  0
    6.3454   13.0280   26.2049 N   0  0  0  0  0  0  0  0  0  0  0  0
    5.6447   12.0611   26.8769 C   0  0  0  0  0  0  0  0  0  0  0  0
    6.1431   10.8387   26.4938 C   0  0  0  0  0  0  0  0  0  0  0  0
    7.1916   11.0734   25.5713 C   0  0  0  0  0  0  0  0  0  0  0  0
    8.0399   10.2436   24.8329 C   0  0  0  0  0  0  0  0  0  0  0  0
  1  2  1  0
  2  3  2  0
  3  4  1  0
  4  5  1  0
  5  6  2  0
  5  7  2  0
  5  8  1  0
  8  9  1  0
  9 10  1  0
 10 11  1  0
 11 12  1  6
 11 13  1  0
 13 14  1  6
 14 15  1  0
 15 16  1  0
 16 17  1  0
 13 18  1  0
  4 19  2  0
 19 20  1  0
 20 21  1  0
 21 22  2  0
 22 23  1  0
 23 24  2  0
 24  2  1  0
 18  8  1  0
 23 19  1  0
 17 13  1  0
M  END
>  <ref_pdb>  (155) 
A4214a

>  <tags>  (155) 
{'fragmenstein_placed', 'openbind_a71ev2a_c1_fragmenstein'}

>  <distance_score>  (155) 
0.809685

>  <energy_score>  (155) 
-56.084598

>  <inchikey>  (155) 
SZTVCGMPBPILDP-UHFFFAOYSA-N

>  <alias>  (155) 
Cc1cc(S(=O)(=O)N2CC[C@@H](O)[C@@]3(CNNN3)C2)c2[nH]ccc2c1

>  <smiles>  (155) 
C233495-P337

>  <HIPPO Pose ID>  (155) 
77468

>  <ref_mols>  (155) 
A4012a,A4214b

>  <HIPPO Compound ID>  (155) 
233495

$$$$
CCNN1Cc2c(C)cccc2C1(F)F
     RDKit          3D

 15 16  0  0  0  0  0  0  0  0999 V2000
    3.6420   15.8354   26.0621 C   0  0  0  0  0  0  0  0  0  0  0  0
    3.0245   14.5092   26.4801 C   0  0  0  0  0  0  0  0  0  0  0  0
    3.8571   13.3498   26.1690 N   0  0  0  0  0  0  0  0  0  0  0  0
    4.9705   13.2241   27.1528 N   0  0  0  0  0  0  0  0  0  0  0  0
    6.2619   13.6523   26.5100 C   0  0  0  0  0  0  0  0  0  0  0  0
    6.8610   12.4232   25.8910 C   0  0  0  0  0  0  0  0  0  0  0  0
    7.9073   12.2855   24.9859 C   0  0  0  0  0  0  0  0  0  0  0  0
    8.6853   13.4598   24.4813 C   0  0  0  0  0  0  0  0  0  0  0  0
    8.1948   10.9918   24.5309 C   0  0  0  0  0  0  0  0  0  0  0  0
    7.4799    9.8816   25.0050 C   0  0  0  0  0  0  0  0  0  0  0  0
    6.4682   10.0374   25.9515 C   0  0  0  0  0  0  0  0  0  0  0  0
    6.1857   11.3122   26.3982 C   0  0  0  0  0  0  0  0  0  0  0  0
    5.2165   11.7688   27.4474 C   0  0  0  0  0  0  0  0  0  0  0  0
    5.7551   11.6857   28.7018 F   0  0  0  0  0  0  0  0  0  0  0  0
    4.0555   11.0610   27.4983 F   0  0  0  0  0  0  0  0  0  0  0  0
  1  2  1  0
  2  3  1  0
  3  4  1  0
  4  5  1  0
  5  6  1  0
  6  7  2  0
  7  8  1  0
  7  9  1  0
  9 10  2  0
 10 11  1  0
 11 12  2  0
 12 13  1  0
 13 14  1  0
 13 15  1  0
 13  4  1  0
 12  6  1  0
M  END
>  <ref_pdb>  (156) 
A4214a

>  <tags>  (156) 
{'fragmenstein_placed', 'openbind_a71ev2a_c1_fragmenstein'}

>  <distance_score>  (156) 
0.454024

>  <energy_score>  (156) 
-15.647249

>  <inchikey>  (156) 
HOUBJEFMWZBNIN-UHFFFAOYSA-N

>  <alias>  (156) 
CCNN1Cc2c(C)cccc2C1(F)F

>  <smiles>  (156) 
C234801-P340

>  <HIPPO Pose ID>  (156) 
78117

>  <ref_mols>  (156) 
A4239a,A5449b

>  <HIPPO Compound ID>  (156) 
234801

$$$$
COc1ncc(Br)c2c1C[C@](O)(N1C[C@H](C(N)=O)CCC1=O)CCN2
     RDKit          3D

 25 27  0  0  0  0  0  0  0  0999 V2000
    9.1056    8.9330   23.6631 C   0  0  0  0  0  0  0  0  0  0  0  0
    9.0864   10.3005   24.0492 O   0  0  0  0  0  0  0  0  0  0  0  0
    8.0595   10.6524   24.9032 C   0  0  0  0  0  0  0  0  0  0  0  0
    7.1890    9.7146   25.3319 N   0  0  0  0  0  0  0  0  0  0  0  0
    6.1962   10.1442   26.1454 C   0  0  0  0  0  0  0  0  0  0  0  0
    6.0107   11.4667   26.5203 C   0  0  0  0  0  0  0  0  0  0  0  0
    4.5736   11.9185   27.6666 Br  0  0  0  0  0  0  0  0  0  0  0  0
    6.9037   12.4312   26.0408 C   0  0  0  0  0  0  0  0  0  0  0  0
    7.9887   11.9998   25.2632 C   0  0  0  0  0  0  0  0  0  0  0  0
    9.0568   12.9755   24.8396 C   0  0  0  0  0  0  0  0  0  0  0  0
    8.5855   13.9923   23.7735 C   0  0  2  0  0  0  0  0  0  0  0  0
    7.8187   13.2725   22.7981 O   0  0  0  0  0  0  0  0  0  0  0  0
    9.7228   14.5898   23.0461 N   0  0  0  0  0  0  0  0  0  0  0  0
    9.7183   14.6478   21.5787 C   0  0  0  0  0  0  0  0  0  0  0  0
   10.3999   15.9092   21.0356 C   0  0  2  0  0  0  0  0  0  0  0  0
   10.7201   15.7310   19.5423 C   0  0  0  0  0  0  0  0  0  0  0  0
   10.4488   16.9398   18.8115 N   0  0  0  0  0  0  0  0  0  0  0  0
   11.1682   14.6845   19.1769 O   0  0  0  0  0  0  0  0  0  0  0  0
   11.6976   16.2491   21.7736 C   0  0  0  0  0  0  0  0  0  0  0  0
   12.0597   15.1779   22.7814 C   0  0  0  0  0  0  0  0  0  0  0  0
   10.8951   14.9410   23.7093 C   0  0  0  0  0  0  0  0  0  0  0  0
   11.0284   15.0120   24.9277 O   0  0  0  0  0  0  0  0  0  0  0  0
    7.7147   15.0919   24.3930 C   0  0  0  0  0  0  0  0  0  0  0  0
    6.4481   14.5780   25.0711 C   0  0  0  0  0  0  0  0  0  0  0  0
    6.7224   13.8172   26.3086 N   0  0  0  0  0  0  0  0  0  0  0  0
  1  2  1  0
  2  3  1  0
  3  4  2  0
  4  5  1  0
  5  6  2  0
  6  7  1  0
  6  8  1  0
  8  9  2  0
  9 10  1  0
 10 11  1  0
 11 12  1  6
 11 13  1  0
 13 14  1  0
 14 15  1  0
 15 16  1  6
 16 17  1  0
 16 18  2  0
 15 19  1  0
 19 20  1  0
 20 21  1  0
 21 22  2  0
 11 23  1  0
 23 24  1  0
 24 25  1  0
  9  3  1  0
 21 13  1  0
 25  8  1  0
M  END
>  <ref_pdb>  (157) 
A4214a

>  <tags>  (157) 
{'fragmenstein_placed', 'openbind_a71ev2a_c1_fragmenstein'}

>  <distance_score>  (157) 
0.852303

>  <energy_score>  (157) 
-20.756824

>  <inchikey>  (157) 
PNIRUYFAVYSKGX-UHFFFAOYSA-N

>  <alias>  (157) 
COc1ncc(Br)c2c1C[C@](O)(N1C[C@H](C(N)=O)CCC1=O)CCN2

>  <smiles>  (157) 
C236405-P347

>  <HIPPO Pose ID>  (157) 
79138

>  <ref_mols>  (157) 
A4386a,A4883a,A4883b

>  <HIPPO Compound ID>  (157) 
236405

$$$$
COc1ccccc1[C@@H]1CN2C[C@H](C(N)(O)O)CC[C@]2(O)C1=O
     RDKit          3D

 23 25  0  0  0  0  0  0  0  0999 V2000
    5.1702   14.2256   25.5969 C   0  0  0  0  0  0  0  0  0  0  0  0
    6.2147   13.7421   26.4454 O   0  0  0  0  0  0  0  0  0  0  0  0
    6.8049   12.6429   25.8761 C   0  0  0  0  0  0  0  0  0  0  0  0
    6.3506   11.3881   26.2847 C   0  0  0  0  0  0  0  0  0  0  0  0
    6.9409   10.2409   25.7688 C   0  0  0  0  0  0  0  0  0  0  0  0
    7.9845   10.3532   24.8512 C   0  0  0  0  0  0  0  0  0  0  0  0
    8.4537   11.6152   24.4612 C   0  0  0  0  0  0  0  0  0  0  0  0
    7.8828   12.7864   24.9845 C   0  0  0  0  0  0  0  0  0  0  0  0
    8.4538   14.1586   24.7127 C   0  0  2  0  0  0  0  0  0  0  0  0
    8.6106   14.6550   23.2576 C   0  0  0  0  0  0  0  0  0  0  0  0
    9.6517   15.6790   23.3986 N   0  0  0  0  0  0  0  0  0  0  0  0
   10.1707   16.4082   22.2545 C   0  0  0  0  0  0  0  0  0  0  0  0
   11.3058   15.8412   21.3836 C   0  0  2  0  0  0  0  0  0  0  0  0
   10.7113   15.3342   20.0835 C   0  0  0  0  0  0  0  0  0  0  0  0
   11.5139   14.5614   19.2031 N   0  0  0  0  0  0  0  0  0  0  0  0
   10.2611   16.4012   19.3083 O   0  0  0  0  0  0  0  0  0  0  0  0
    9.6049   14.5817   20.4363 O   0  0  0  0  0  0  0  0  0  0  0  0
   12.1947   14.8731   22.1645 C   0  0  0  0  0  0  0  0  0  0  0  0
   11.5807   14.1608   23.3632 C   0  0  0  0  0  0  0  0  0  0  0  0
   10.7008   15.0860   24.1902 C   0  0  1  0  0  0  0  0  0  0  0  0
   11.4721   16.0583   24.8639 O   0  0  0  0  0  0  0  0  0  0  0  0
    9.8687   14.3251   25.2045 C   0  0  0  0  0  0  0  0  0  0  0  0
   10.3022   14.0187   26.3088 O   0  0  0  0  0  0  0  0  0  0  0  0
  1  2  1  0
  2  3  1  0
  3  4  2  0
  4  5  1  0
  5  6  2  0
  6  7  1  0
  7  8  2  0
  9  8  1  6
  9 10  1  0
 10 11  1  0
 11 12  1  0
 12 13  1  0
 13 14  1  6
 14 15  1  0
 14 16  1  0
 14 17  1  0
 13 18  1  0
 18 19  1  0
 19 20  1  0
 20 21  1  1
 20 22  1  0
 22 23  2  0
  8  3  1  0
 22  9  1  0
 20 11  1  0
M  END
>  <ref_pdb>  (158) 
A4214a

>  <tags>  (158) 
{'fragmenstein_placed', 'openbind_a71ev2a_c1_fragmenstein'}

>  <distance_score>  (158) 
0.97693

>  <energy_score>  (158) 
-35.570127

>  <inchikey>  (158) 
BNBYMHAFKGTQRL-UHFFFAOYSA-N

>  <alias>  (158) 
COc1ccccc1[C@@H]1CN2C[C@H](C(N)(O)O)CC[C@]2(O)C1=O

>  <smiles>  (158) 
C236572-P348

>  <HIPPO Pose ID>  (158) 
79214

>  <ref_mols>  (158) 
A4388a,A4310a

>  <HIPPO Compound ID>  (158) 
236572

$$$$
COc1ccccc1[C@@H](O)CN1C[C@@]2(CNNN2)C[C@H](O)[C@H]1N=O
     RDKit          3D

 24 26  0  0  0  0  0  0  0  0999 V2000
    8.9623    9.8234   24.1509 C   0  0  0  0  0  0  0  0  0  0  0  0
    8.5122   11.1606   24.3126 O   0  0  0  0  0  0  0  0  0  0  0  0
    7.5498   11.5280   25.2199 C   0  0  0  0  0  0  0  0  0  0  0  0
    6.7366   10.7064   25.9756 C   0  0  0  0  0  0  0  0  0  0  0  0
    5.7686   11.2193   26.8523 C   0  0  0  0  0  0  0  0  0  0  0  0
    5.5855   12.5875   26.9719 C   0  0  0  0  0  0  0  0  0  0  0  0
    6.4162   13.4355   26.2589 C   0  0  0  0  0  0  0  0  0  0  0  0
    7.4167   12.9118   25.4220 C   0  0  0  0  0  0  0  0  0  0  0  0
    8.4791   13.8288   24.8946 C   0  0  1  0  0  0  0  0  0  0  0  0
    9.6969   13.2338   25.3540 O   0  0  0  0  0  0  0  0  0  0  0  0
    8.4259   14.0382   23.3575 C   0  0  0  0  0  0  0  0  0  0  0  0
    9.6917   14.1837   22.6054 N   0  0  0  0  0  0  0  0  0  0  0  0
    9.4561   14.9667   21.3718 C   0  0  0  0  0  0  0  0  0  0  0  0
   10.6960   15.3094   20.4774 C   0  0  2  0  0  0  0  0  0  0  0  0
   10.2869   16.3457   19.4565 C   0  0  0  0  0  0  0  0  0  0  0  0
    9.6333   15.5642   18.4365 N   0  0  0  0  0  0  0  0  0  0  0  0
   10.4918   14.4446   18.3218 N   0  0  0  0  0  0  0  0  0  0  0  0
   11.1628   14.2636   19.5555 N   0  0  0  0  0  0  0  0  0  0  0  0
   11.8766   15.7331   21.3381 C   0  0  0  0  0  0  0  0  0  0  0  0
   12.0675   14.7696   22.4983 C   0  0  2  0  0  0  0  0  0  0  0  0
   12.3336   13.4290   22.0718 O   0  0  0  0  0  0  0  0  0  0  0  0
   10.8359   14.6890   23.3891 C   0  0  1  0  0  0  0  0  0  0  0  0
   10.6404   15.9550   24.1347 N   0  0  0  0  0  0  0  0  0  0  0  0
   10.9477   15.8666   25.3304 O   0  0  0  0  0  0  0  0  0  0  0  0
  1  2  1  0
  2  3  1  0
  3  4  2  0
  4  5  1  0
  5  6  2  0
  6  7  1  0
  7  8  2  0
  8  9  1  0
  9 10  1  6
  9 11  1  0
 11 12  1  0
 12 13  1  0
 14 13  1  1
 14 15  1  0
 15 16  1  0
 16 17  1  0
 17 18  1  0
 14 19  1  0
 19 20  1  0
 20 21  1  6
 20 22  1  0
 22 23  1  6
 23 24  2  0
  8  3  1  0
 22 12  1  0
 18 14  1  0
M  END
>  <ref_pdb>  (159) 
A4214a

>  <tags>  (159) 
{'fragmenstein_placed', 'openbind_a71ev2a_c1_fragmenstein'}

>  <distance_score>  (159) 
0.967436

>  <energy_score>  (159) 
-27.428226

>  <inchikey>  (159) 
ZOCGKLDDWFFWQE-UHFFFAOYSA-N

>  <alias>  (159) 
COc1ccccc1[C@@H](O)CN1C[C@@]2(CNNN2)C[C@H](O)[C@H]1N=O

>  <smiles>  (159) 
C237665-P351

>  <HIPPO Pose ID>  (159) 
79970

>  <ref_mols>  (159) 
A4745a,A4403a

>  <HIPPO Compound ID>  (159) 
237665

$$$$
COCC(=O)[C@H](c1ccc(F)cc1Cl)[C@@]1(C)CCCCO1
     RDKit          3D

 21 22  0  0  0  0  0  0  0  0999 V2000
    9.3423   17.1205   27.5987 C   0  0  0  0  0  0  0  0  0  0  0  0
    9.6711   16.2750   26.5058 O   0  0  0  0  0  0  0  0  0  0  0  0
    9.4079   14.9134   26.8013 C   0  0  0  0  0  0  0  0  0  0  0  0
    9.4441   14.0196   25.5522 C   0  0  0  0  0  0  0  0  0  0  0  0
   10.4357   14.0053   24.8193 O   0  0  0  0  0  0  0  0  0  0  0  0
    8.1909   13.1501   25.2934 C   0  0  2  0  0  0  0  0  0  0  0  0
    8.4865   11.7434   24.7509 C   0  0  0  0  0  0  0  0  0  0  0  0
    9.3463   11.5536   23.6551 C   0  0  0  0  0  0  0  0  0  0  0  0
    9.6019   10.2754   23.1490 C   0  0  0  0  0  0  0  0  0  0  0  0
    9.0239    9.1625   23.7255 C   0  0  0  0  0  0  0  0  0  0  0  0
    9.2550    7.9459   23.2192 F   0  0  0  0  0  0  0  0  0  0  0  0
    8.1630    9.3115   24.7927 C   0  0  0  0  0  0  0  0  0  0  0  0
    7.8865   10.5862   25.2946 C   0  0  0  0  0  0  0  0  0  0  0  0
    6.7241   10.6499   26.5683 Cl  0  0  0  0  0  0  0  0  0  0  0  0
    7.1023   13.9695   24.5198 C   0  0  1  0  0  0  0  0  0  0  0  0
    7.5607   14.3353   23.0974 C   0  0  0  0  0  0  0  0  0  0  0  0
    5.7609   13.2005   24.4681 C   0  0  0  0  0  0  0  0  0  0  0  0
    4.6073   14.0390   23.9272 C   0  0  0  0  0  0  0  0  0  0  0  0
    4.6539   15.4701   24.4500 C   0  0  0  0  0  0  0  0  0  0  0  0
    5.6290   15.6070   25.6045 C   0  0  0  0  0  0  0  0  0  0  0  0
    6.9466   15.2118   25.2392 O   0  0  0  0  0  0  0  0  0  0  0  0
  1  2  1  0
  2  3  1  0
  3  4  1  0
  4  5  2  0
  6  4  1  6
  6  7  1  0
  7  8  2  0
  8  9  1  0
  9 10  2  0
 10 11  1  0
 10 12  1  0
 12 13  2  0
 13 14  1  0
  6 15  1  0
 15 16  1  6
 15 17  1  0
 17 18  1  0
 18 19  1  0
 19 20  1  0
 20 21  1  0
 13  7  1  0
 21 15  1  0
M  END
>  <ref_pdb>  (160) 
A4415a

>  <tags>  (160) 
{'fragmenstein_placed', 'openbind_a71ev2a_c1_fragmenstein'}

>  <distance_score>  (160) 
0.859568

>  <energy_score>  (160) 
-34.410517

>  <inchikey>  (160) 
PBUVVEGHRQRWFC-UHFFFAOYSA-N

>  <alias>  (160) 
COCC(=O)[C@H](c1ccc(F)cc1Cl)[C@@]1(C)CCCCO1

>  <smiles>  (160) 
C215084-P355

>  <HIPPO Pose ID>  (160) 
80496

>  <ref_mols>  (160) 
A3450a,A4416a

>  <HIPPO Compound ID>  (160) 
215084

$$$$
Cc1ccc2c(c1)[C@H](C)CC2
     RDKit          3D

 11 12  0  0  0  0  0  0  0  0999 V2000
    8.4348   13.2202   23.5466 C   0  0  0  0  0  0  0  0  0  0  0  0
    7.6699   12.5184   24.6299 C   0  0  0  0  0  0  0  0  0  0  0  0
    7.6478   11.1131   24.6933 C   0  0  0  0  0  0  0  0  0  0  0  0
    6.8868   10.4522   25.6623 C   0  0  0  0  0  0  0  0  0  0  0  0
    6.1786   11.2050   26.5850 C   0  0  0  0  0  0  0  0  0  0  0  0
    6.1884   12.6020   26.5231 C   0  0  0  0  0  0  0  0  0  0  0  0
    6.9092   13.2646   25.5408 C   0  0  0  0  0  0  0  0  0  0  0  0
    5.3146   13.1886   27.5976 C   0  0  2  0  0  0  0  0  0  0  0  0
    5.8480   14.4546   28.2503 C   0  0  0  0  0  0  0  0  0  0  0  0
    5.2544   12.0081   28.5864 C   0  0  0  0  0  0  0  0  0  0  0  0
    5.3364   10.7345   27.7319 C   0  0  0  0  0  0  0  0  0  0  0  0
  1  2  1  0
  2  3  2  0
  3  4  1  0
  4  5  2  0
  5  6  1  0
  6  7  2  0
  6  8  1  0
  8  9  1  1
  8 10  1  0
 10 11  1  0
  7  2  1  0
 11  5  1  0
M  END
>  <ref_pdb>  (161) 
A4415a

>  <tags>  (161) 
{'fragmenstein_placed', 'openbind_a71ev2a_c1_fragmenstein'}

>  <distance_score>  (161) 
0.992019

>  <energy_score>  (161) 
-12.781852

>  <inchikey>  (161) 
UVRVNMDNGVIBGM-UHFFFAOYSA-N

>  <alias>  (161) 
Cc1ccc2c(c1)[C@H](C)CC2

>  <smiles>  (161) 
C216188-P358

>  <HIPPO Pose ID>  (161) 
81034

>  <ref_mols>  (161) 
A4447a,A4421a

>  <HIPPO Compound ID>  (161) 
216188

$$$$
COc1ccncc1[C@H](C)[C@@H](N=O)N1CCC[C@H](C(=O)CO)C1
     RDKit          3D

 23 24  0  0  0  0  0  0  0  0999 V2000
    9.5164    9.3390   23.3641 C   0  0  0  0  0  0  0  0  0  0  0  0
    9.2443   10.5909   23.9957 O   0  0  0  0  0  0  0  0  0  0  0  0
    8.1965   10.6653   24.8759 C   0  0  0  0  0  0  0  0  0  0  0  0
    7.4268    9.5733   25.2617 C   0  0  0  0  0  0  0  0  0  0  0  0
    6.3846    9.7615   26.1542 C   0  0  0  0  0  0  0  0  0  0  0  0
    6.0750   10.9452   26.6981 N   0  0  0  0  0  0  0  0  0  0  0  0
    6.8092   11.9999   26.2865 C   0  0  0  0  0  0  0  0  0  0  0  0
    7.8940   11.9309   25.4075 C   0  0  0  0  0  0  0  0  0  0  0  0
    8.7324   13.1685   25.0889 C   0  0  2  0  0  0  0  0  0  0  0  0
    8.4492   14.3775   26.0192 C   0  0  0  0  0  0  0  0  0  0  0  0
    8.7311   13.6044   23.5758 C   0  0  1  0  0  0  0  0  0  0  0  0
    7.3090   13.7930   23.1171 N   0  0  0  0  0  0  0  0  0  0  0  0
    6.8482   14.9100   23.3786 O   0  0  0  0  0  0  0  0  0  0  0  0
    9.6734   14.7204   23.3223 N   0  0  0  0  0  0  0  0  0  0  0  0
   11.0345   14.3754   23.7405 C   0  0  0  0  0  0  0  0  0  0  0  0
   12.1007   15.0221   22.8894 C   0  0  0  0  0  0  0  0  0  0  0  0
   11.9704   14.5746   21.4582 C   0  0  0  0  0  0  0  0  0  0  0  0
   10.5378   14.7204   20.9463 C   0  0  2  0  0  0  0  0  0  0  0  0
   10.5589   15.5129   19.6480 C   0  0  0  0  0  0  0  0  0  0  0  0
    9.9060   16.5409   19.4807 O   0  0  0  0  0  0  0  0  0  0  0  0
   11.4208   14.9337   18.5371 C   0  0  0  0  0  0  0  0  0  0  0  0
   11.3618   15.6801   17.3511 O   0  0  0  0  0  0  0  0  0  0  0  0
    9.6001   15.3423   21.9842 C   0  0  0  0  0  0  0  0  0  0  0  0
  1  2  1  0
  2  3  1  0
  3  4  2  0
  4  5  1  0
  5  6  2  0
  6  7  1  0
  7  8  2  0
  8  9  1  0
  9 10  1  1
  9 11  1  0
 11 12  1  0
 12 13  2  0
 11 14  1  1
 14 15  1  0
 15 16  1  0
 16 17  1  0
 17 18  1  0
 18 19  1  6
 19 20  2  0
 19 21  1  0
 21 22  1  0
 18 23  1  0
  8  3  1  0
 23 14  1  0
M  END
>  <ref_pdb>  (162) 
A4415a

>  <tags>  (162) 
{'fragmenstein_placed', 'openbind_a71ev2a_c1_fragmenstein'}

>  <distance_score>  (162) 
0.408942

>  <energy_score>  (162) 
-53.559788

>  <inchikey>  (162) 
HYQPAIHEMGSSJO-UHFFFAOYSA-N

>  <alias>  (162) 
COc1ccncc1[C@H](C)[C@@H](N=O)N1CCC[C@H](C(=O)CO)C1

>  <smiles>  (162) 
C216355-P359

>  <HIPPO Pose ID>  (162) 
81110

>  <ref_mols>  (162) 
A5666a,A4423a

>  <HIPPO Compound ID>  (162) 
216355

$$$$
COc1ccnc2c1C[C@](O)(N1CCC[C@H](C(=O)CO)C1)CCC2
     RDKit          3D

 24 26  0  0  0  0  0  0  0  0999 V2000
    9.4156    9.0649   23.3304 C   0  0  0  0  0  0  0  0  0  0  0  0
    9.2852   10.3514   23.9268 O   0  0  0  0  0  0  0  0  0  0  0  0
    8.2881   10.5545   24.8462 C   0  0  0  0  0  0  0  0  0  0  0  0
    7.4132    9.5802   25.2908 C   0  0  0  0  0  0  0  0  0  0  0  0
    6.4340    9.9354   26.1992 C   0  0  0  0  0  0  0  0  0  0  0  0
    6.2614   11.1862   26.6653 N   0  0  0  0  0  0  0  0  0  0  0  0
    7.0757   12.1589   26.1824 C   0  0  0  0  0  0  0  0  0  0  0  0
    8.1499   11.8634   25.3389 C   0  0  0  0  0  0  0  0  0  0  0  0
    9.1248   12.9374   24.9409 C   0  0  0  0  0  0  0  0  0  0  0  0
    8.5840   13.8746   23.8311 C   0  0  2  0  0  0  0  0  0  0  0  0
    8.3301   13.0505   22.6948 O   0  0  0  0  0  0  0  0  0  0  0  0
    9.5163   14.9423   23.4504 N   0  0  0  0  0  0  0  0  0  0  0  0
   10.8892   14.9704   23.9433 C   0  0  0  0  0  0  0  0  0  0  0  0
   11.9434   15.0569   22.8397 C   0  0  0  0  0  0  0  0  0  0  0  0
   11.5364   14.1900   21.6709 C   0  0  0  0  0  0  0  0  0  0  0  0
   10.2372   14.7173   21.0478 C   0  0  2  0  0  0  0  0  0  0  0  0
   10.5029   15.5650   19.7988 C   0  0  0  0  0  0  0  0  0  0  0  0
    9.9667   16.6565   19.6032 O   0  0  0  0  0  0  0  0  0  0  0  0
   11.4223   14.9617   18.7436 C   0  0  0  0  0  0  0  0  0  0  0  0
   11.3483   15.6101   17.4940 O   0  0  0  0  0  0  0  0  0  0  0  0
    9.3798   15.4771   22.0816 C   0  0  0  0  0  0  0  0  0  0  0  0
    7.2273   14.5032   24.2546 C   0  0  0  0  0  0  0  0  0  0  0  0
    7.1153   14.7781   25.7567 C   0  0  0  0  0  0  0  0  0  0  0  0
    6.7154   13.5623   26.6196 C   0  0  0  0  0  0  0  0  0  0  0  0
  1  2  1  0
  2  3  1  0
  3  4  2  0
  4  5  1  0
  5  6  2  0
  6  7  1  0
  7  8  2  0
  8  9  1  0
  9 10  1  0
 10 11  1  6
 10 12  1  0
 12 13  1  0
 13 14  1  0
 14 15  1  0
 15 16  1  0
 16 17  1  6
 17 18  2  0
 17 19  1  0
 19 20  1  0
 16 21  1  0
 10 22  1  0
 22 23  1  0
 23 24  1  0
  8  3  1  0
 21 12  1  0
 24  7  1  0
M  END
>  <ref_pdb>  (163) 
A4415a

>  <tags>  (163) 
{'fragmenstein_placed', 'openbind_a71ev2a_c1_fragmenstein'}

>  <distance_score>  (163) 
0.699989

>  <energy_score>  (163) 
-27.9217

>  <inchikey>  (163) 
HUSFWJZEUFNZSQ-UHFFFAOYSA-N

>  <alias>  (163) 
COc1ccnc2c1C[C@](O)(N1CCC[C@H](C(=O)CO)C1)CCC2

>  <smiles>  (163) 
C216357-P359

>  <HIPPO Pose ID>  (163) 
81113

>  <ref_mols>  (163) 
A3920a,A5151a,A4423a

>  <HIPPO Compound ID>  (163) 
216357

$$$$
COc1ccncc1[C@H](CC1CCCC1)[C@@H](N=O)N1CCC[C@H](C(=O)CO)C1
     RDKit          3D

 28 30  0  0  0  0  0  0  0  0999 V2000
    9.5870    9.4856   23.3922 C   0  0  0  0  0  0  0  0  0  0  0  0
    9.3421   10.6961   24.1145 O   0  0  0  0  0  0  0  0  0  0  0  0
    8.2448   10.7577   24.9316 C   0  0  0  0  0  0  0  0  0  0  0  0
    7.5117    9.6214   25.2811 C   0  0  0  0  0  0  0  0  0  0  0  0
    6.4123    9.7478   26.1079 C   0  0  0  0  0  0  0  0  0  0  0  0
    6.0032   10.9136   26.6095 N   0  0  0  0  0  0  0  0  0  0  0  0
    6.6990   12.0052   26.2202 C   0  0  0  0  0  0  0  0  0  0  0  0
    7.8512   12.0176   25.4273 C   0  0  0  0  0  0  0  0  0  0  0  0
    8.6109   13.3392   25.1652 C   0  0  2  0  0  0  0  0  0  0  0  0
    7.9217   14.6467   25.7416 C   0  0  0  0  0  0  0  0  0  0  0  0
    8.3305   15.0465   27.1748 C   0  0  0  0  0  0  0  0  0  0  0  0
    7.9905   16.5182   27.4686 C   0  0  0  0  0  0  0  0  0  0  0  0
    7.9188   16.6390   28.9913 C   0  0  0  0  0  0  0  0  0  0  0  0
    7.9648   15.2131   29.5268 C   0  0  0  0  0  0  0  0  0  0  0  0
    7.6149   14.3456   28.3269 C   0  0  0  0  0  0  0  0  0  0  0  0
    9.0560   13.5840   23.6658 C   0  0  1  0  0  0  0  0  0  0  0  0
    7.9319   13.3195   22.7275 N   0  0  0  0  0  0  0  0  0  0  0  0
    6.9348   14.0209   22.9277 O   0  0  0  0  0  0  0  0  0  0  0  0
    9.7494   14.8795   23.4788 N   0  0  0  0  0  0  0  0  0  0  0  0
   11.1287   14.8497   23.9631 C   0  0  0  0  0  0  0  0  0  0  0  0
   12.1709   14.9678   22.8510 C   0  0  0  0  0  0  0  0  0  0  0  0
   11.7630   14.1739   21.6281 C   0  0  0  0  0  0  0  0  0  0  0  0
   10.4263   14.6733   21.0686 C   0  0  2  0  0  0  0  0  0  0  0  0
   10.5683   15.5061   19.7958 C   0  0  0  0  0  0  0  0  0  0  0  0
    9.9277   16.5428   19.6202 O   0  0  0  0  0  0  0  0  0  0  0  0
   11.4568   14.9445   18.6977 C   0  0  0  0  0  0  0  0  0  0  0  0
   11.3417   15.6249   17.4708 O   0  0  0  0  0  0  0  0  0  0  0  0
    9.6559   15.4682   22.1302 C   0  0  0  0  0  0  0  0  0  0  0  0
  1  2  1  0
  2  3  1  0
  3  4  2  0
  4  5  1  0
  5  6  2  0
  6  7  1  0
  7  8  2  0
  8  9  1  0
  9 10  1  6
 10 11  1  0
 11 12  1  0
 12 13  1  0
 13 14  1  0
 14 15  1  0
  9 16  1  0
 16 17  1  0
 17 18  2  0
 16 19  1  1
 19 20  1  0
 20 21  1  0
 21 22  1  0
 22 23  1  0
 23 24  1  6
 24 25  2  0
 24 26  1  0
 26 27  1  0
 23 28  1  0
  8  3  1  0
 15 11  1  0
 28 19  1  0
M  END
>  <ref_pdb>  (164) 
A4415a

>  <tags>  (164) 
{'fragmenstein_placed', 'openbind_a71ev2a_c1_fragmenstein'}

>  <distance_score>  (164) 
0.884308

>  <energy_score>  (164) 
-63.153113

>  <inchikey>  (164) 
LMIJHJCABBMJTL-UHFFFAOYSA-N

>  <alias>  (164) 
COc1ccncc1[C@H](CC1CCCC1)[C@@H](N=O)N1CCC[C@H](C(=O)CO)C1

>  <smiles>  (164) 
C216360-P359

>  <HIPPO Pose ID>  (164) 
81114

>  <ref_mols>  (164) 
A0501a,A4423a

>  <HIPPO Compound ID>  (164) 
216360

$$$$
COc1ccnc(Cl)c1C1=C[C@H]2CC[C@H](C(=O)CO)CN2C1=O
     RDKit          3D

 23 25  0  0  0  0  0  0  0  0999 V2000
    9.8590    8.7669   22.8801 C   0  0  0  0  0  0  0  0  0  0  0  0
    9.7338   10.0956   23.3508 O   0  0  0  0  0  0  0  0  0  0  0  0
    8.7745   10.3488   24.2861 C   0  0  0  0  0  0  0  0  0  0  0  0
    7.9572    9.3818   24.8571 C   0  0  0  0  0  0  0  0  0  0  0  0
    6.9904    9.7542   25.7773 C   0  0  0  0  0  0  0  0  0  0  0  0
    6.8097   11.0106   26.1854 N   0  0  0  0  0  0  0  0  0  0  0  0
    7.5783   11.9411   25.5913 C   0  0  0  0  0  0  0  0  0  0  0  0
    7.2163   13.5357   26.1325 Cl  0  0  0  0  0  0  0  0  0  0  0  0
    8.5856   11.6734   24.6661 C   0  0  0  0  0  0  0  0  0  0  0  0
    9.2738   12.7985   24.0800 C   0  0  0  0  0  0  0  0  0  0  0  0
   10.4085   13.4105   24.4369 C   0  0  0  0  0  0  0  0  0  0  0  0
   10.5264   14.7639   23.8166 C   0  0  1  0  0  0  0  0  0  0  0  0
   11.7798   15.0178   22.9884 C   0  0  0  0  0  0  0  0  0  0  0  0
   11.6930   14.4806   21.5689 C   0  0  0  0  0  0  0  0  0  0  0  0
   10.3667   14.8289   20.8626 C   0  0  2  0  0  0  0  0  0  0  0  0
   10.5674   15.6081   19.5866 C   0  0  0  0  0  0  0  0  0  0  0  0
    9.9937   16.6746   19.3718 O   0  0  0  0  0  0  0  0  0  0  0  0
   11.4596   14.9604   18.5503 C   0  0  0  0  0  0  0  0  0  0  0  0
   11.4270   15.6499   17.3291 O   0  0  0  0  0  0  0  0  0  0  0  0
    9.3739   15.5503   21.7707 C   0  0  0  0  0  0  0  0  0  0  0  0
    9.3267   14.8265   23.0199 N   0  0  0  0  0  0  0  0  0  0  0  0
    8.6169   13.6440   23.0733 C   0  0  0  0  0  0  0  0  0  0  0  0
    7.6873   13.2696   22.3775 O   0  0  0  0  0  0  0  0  0  0  0  0
  1  2  1  0
  2  3  1  0
  3  4  2  0
  4  5  1  0
  5  6  2  0
  6  7  1  0
  7  8  1  0
  7  9  2  0
  9 10  1  0
 10 11  2  0
 11 12  1  0
 12 13  1  6
 13 14  1  0
 14 15  1  0
 15 16  1  6
 16 17  2  0
 16 18  1  0
 18 19  1  0
 15 20  1  0
 20 21  1  0
 21 22  1  0
 22 23  2  0
  9  3  1  0
 22 10  1  0
 21 12  1  0
M  END
>  <ref_pdb>  (165) 
A4415a

>  <tags>  (165) 
{'fragmenstein_placed', 'openbind_a71ev2a_c1_fragmenstein'}

>  <distance_score>  (165) 
0.977915

>  <energy_score>  (165) 
-36.017946

>  <inchikey>  (165) 
CCWJSDMCVYJGGM-UHFFFAOYSA-N

>  <alias>  (165) 
COc1ccnc(Cl)c1C1=C[C@H]2CC[C@H](C(=O)CO)CN2C1=O

>  <smiles>  (165) 
C216367-P359

>  <HIPPO Pose ID>  (165) 
81120

>  <ref_mols>  (165) 
A4706a,A0310a,A0207a,A4423a

>  <HIPPO Compound ID>  (165) 
216367

$$$$
COc1ccnc(OC)c1CC(O)(O)N1CCC[C@H](C(=O)CO)C1
     RDKit          3D

 24 25  0  0  0  0  0  0  0  0999 V2000
    9.3600    8.9517   23.3171 C   0  0  0  0  0  0  0  0  0  0  0  0
    9.1912   10.2244   23.9310 O   0  0  0  0  0  0  0  0  0  0  0  0
    8.2095   10.3917   24.8694 C   0  0  0  0  0  0  0  0  0  0  0  0
    7.3086    9.4219   25.2634 C   0  0  0  0  0  0  0  0  0  0  0  0
    6.3406    9.7421   26.2023 C   0  0  0  0  0  0  0  0  0  0  0  0
    6.2209   10.9508   26.7765 N   0  0  0  0  0  0  0  0  0  0  0  0
    7.0950   11.8915   26.3684 C   0  0  0  0  0  0  0  0  0  0  0  0
    7.0236   13.1555   26.9191 O   0  0  0  0  0  0  0  0  0  0  0  0
    5.8772   13.3470   27.7397 C   0  0  0  0  0  0  0  0  0  0  0  0
    8.1190   11.6583   25.4550 C   0  0  0  0  0  0  0  0  0  0  0  0
    9.1017   12.7332   25.0836 C   0  0  0  0  0  0  0  0  0  0  0  0
    8.6091   13.7170   24.0098 C   0  0  0  0  0  0  0  0  0  0  0  0
    7.7717   13.0517   23.0951 O   0  0  0  0  0  0  0  0  0  0  0  0
    7.9167   14.7753   24.6117 O   0  0  0  0  0  0  0  0  0  0  0  0
    9.7233   14.2004   23.2390 N   0  0  0  0  0  0  0  0  0  0  0  0
   10.8849   14.6918   23.9702 C   0  0  0  0  0  0  0  0  0  0  0  0
   11.9936   15.0672   22.9865 C   0  0  0  0  0  0  0  0  0  0  0  0
   11.8556   14.3462   21.6607 C   0  0  0  0  0  0  0  0  0  0  0  0
   10.4657   14.5867   21.0486 C   0  0  2  0  0  0  0  0  0  0  0  0
   10.5761   15.5073   19.8674 C   0  0  0  0  0  0  0  0  0  0  0  0
   10.0735   16.6317   19.8462 O   0  0  0  0  0  0  0  0  0  0  0  0
   11.3873   14.9975   18.6852 C   0  0  0  0  0  0  0  0  0  0  0  0
   11.4779   16.0352   17.7379 O   0  0  0  0  0  0  0  0  0  0  0  0
    9.4451   15.0626   22.0887 C   0  0  0  0  0  0  0  0  0  0  0  0
  1  2  1  0
  2  3  1  0
  3  4  2  0
  4  5  1  0
  5  6  2  0
  6  7  1  0
  7  8  1  0
  8  9  1  0
  7 10  2  0
 10 11  1  0
 11 12  1  0
 12 13  1  0
 12 14  1  0
 12 15  1  0
 15 16  1  0
 16 17  1  0
 17 18  1  0
 18 19  1  0
 19 20  1  6
 20 21  2  0
 20 22  1  0
 22 23  1  0
 19 24  1  0
 10  3  1  0
 24 15  1  0
M  END
>  <ref_pdb>  (166) 
A4415a

>  <tags>  (166) 
{'fragmenstein_placed', 'openbind_a71ev2a_c1_fragmenstein'}

>  <distance_score>  (166) 
0.700328

>  <energy_score>  (166) 
-41.929307

>  <inchikey>  (166) 
IKWWRZYFLJJNNK-UHFFFAOYSA-N

>  <alias>  (166) 
COc1ccnc(OC)c1CC(O)(O)N1CCC[C@H](C(=O)CO)C1

>  <smiles>  (166) 
C216410-P359

>  <HIPPO Pose ID>  (166) 
81149

>  <ref_mols>  (166) 
A3306a,A3305a,A4423a

>  <HIPPO Compound ID>  (166) 
216410

$$$$
COc1ccnc2c1C[C@](O)(N1CCC[C@H]([C@H](N)CO)C1)CCCO2
     RDKit          3D

 25 27  0  0  0  0  0  0  0  0999 V2000
    9.1906    9.1517   23.5580 C   0  0  0  0  0  0  0  0  0  0  0  0
    9.0165   10.4503   24.1154 O   0  0  0  0  0  0  0  0  0  0  0  0
    7.9715   10.6698   24.9753 C   0  0  0  0  0  0  0  0  0  0  0  0
    7.1115    9.7010   25.4639 C   0  0  0  0  0  0  0  0  0  0  0  0
    6.0780   10.0896   26.3092 C   0  0  0  0  0  0  0  0  0  0  0  0
    5.8193   11.3682   26.6572 N   0  0  0  0  0  0  0  0  0  0  0  0
    6.6576   12.2906   26.1467 C   0  0  0  0  0  0  0  0  0  0  0  0
    7.7756   11.9926   25.3847 C   0  0  0  0  0  0  0  0  0  0  0  0
    8.7522   13.0747   25.0490 C   0  0  0  0  0  0  0  0  0  0  0  0
    8.4122   13.9358   23.8107 C   0  0  2  0  0  0  0  0  0  0  0  0
    7.8917   13.0548   22.8133 O   0  0  0  0  0  0  0  0  0  0  0  0
    9.6528   14.4155   23.2265 N   0  0  0  0  0  0  0  0  0  0  0  0
   10.7817   14.8182   24.0422 C   0  0  0  0  0  0  0  0  0  0  0  0
   12.0273   14.3904   23.2747 C   0  0  0  0  0  0  0  0  0  0  0  0
   12.0734   15.0904   21.9267 C   0  0  0  0  0  0  0  0  0  0  0  0
   10.7829   14.8315   21.1297 C   0  0  2  0  0  0  0  0  0  0  0  0
   10.8729   15.5728   19.7945 C   0  0  2  0  0  0  0  0  0  0  0  0
    9.6215   16.0285   19.2296 N   0  0  0  0  0  0  0  0  0  0  0  0
   11.6194   14.7712   18.7401 C   0  0  0  0  0  0  0  0  0  0  0  0
   11.5614   15.4485   17.4952 O   0  0  0  0  0  0  0  0  0  0  0  0
    9.5603   15.1839   21.9850 C   0  0  0  0  0  0  0  0  0  0  0  0
    7.4187   15.0810   24.1468 C   0  0  0  0  0  0  0  0  0  0  0  0
    5.9479   14.6905   24.3390 C   0  0  0  0  0  0  0  0  0  0  0  0
    5.4842   14.2265   25.7279 C   0  0  0  0  0  0  0  0  0  0  0  0
    6.4797   13.5981   26.5299 O   0  0  0  0  0  0  0  0  0  0  0  0
  1  2  1  0
  2  3  1  0
  3  4  2  0
  4  5  1  0
  5  6  2  0
  6  7  1  0
  7  8  2  0
  8  9  1  0
  9 10  1  0
 10 11  1  6
 10 12  1  0
 12 13  1  0
 13 14  1  0
 14 15  1  0
 16 15  1  1
 16 17  1  0
 17 18  1  6
 17 19  1  0
 19 20  1  0
 16 21  1  0
 10 22  1  0
 22 23  1  0
 23 24  1  0
 24 25  1  0
  8  3  1  0
 21 12  1  0
 25  7  1  0
M  END
>  <ref_pdb>  (167) 
A4415a

>  <tags>  (167) 
{'fragmenstein_placed', 'openbind_a71ev2a_c1_fragmenstein'}

>  <distance_score>  (167) 
0.607162

>  <energy_score>  (167) 
-72.40635

>  <inchikey>  (167) 
IAGKFRITHIIXME-UHFFFAOYSA-N

>  <alias>  (167) 
COc1ccnc2c1C[C@](O)(N1CCC[C@H]([C@H](N)CO)C1)CCCO2

>  <smiles>  (167) 
C216415-P359

>  <HIPPO Pose ID>  (167) 
81154

>  <ref_mols>  (167) 
A3587a,A4423a

>  <HIPPO Compound ID>  (167) 
216415

$$$$
COc1ccncc1C1=C[C@H]2CC[C@@H](C(=O)CO)CN2C1=O
     RDKit          3D

 22 24  0  0  0  0  0  0  0  0999 V2000
    9.4571    9.0542   23.2487 C   0  0  0  0  0  0  0  0  0  0  0  0
    9.2852   10.3612   23.7871 O   0  0  0  0  0  0  0  0  0  0  0  0
    8.3222   10.5594   24.7416 C   0  0  0  0  0  0  0  0  0  0  0  0
    7.5117    9.5677   25.2743 C   0  0  0  0  0  0  0  0  0  0  0  0
    6.5850    9.9081   26.2499 C   0  0  0  0  0  0  0  0  0  0  0  0
    6.4386   11.1500   26.7497 N   0  0  0  0  0  0  0  0  0  0  0  0
    7.1902   12.1137   26.1689 C   0  0  0  0  0  0  0  0  0  0  0  0
    8.1416   11.8757   25.1828 C   0  0  0  0  0  0  0  0  0  0  0  0
    8.8305   12.9751   24.5359 C   0  0  0  0  0  0  0  0  0  0  0  0
    9.9307   13.6566   24.8920 C   0  0  0  0  0  0  0  0  0  0  0  0
   10.3780   14.6188   23.8344 C   0  0  1  0  0  0  0  0  0  0  0  0
   11.7077   14.2347   23.1929 C   0  0  0  0  0  0  0  0  0  0  0  0
   11.8482   14.7049   21.7378 C   0  0  0  0  0  0  0  0  0  0  0  0
   10.7252   15.6214   21.2366 C   0  0  1  0  0  0  0  0  0  0  0  0
   10.6918   15.8488   19.7377 C   0  0  0  0  0  0  0  0  0  0  0  0
    9.9634   16.7274   19.2682 O   0  0  0  0  0  0  0  0  0  0  0  0
   11.5041   14.9513   18.8307 C   0  0  0  0  0  0  0  0  0  0  0  0
   11.4528   15.3987   17.4950 O   0  0  0  0  0  0  0  0  0  0  0  0
    9.3339   15.1381   21.6138 C   0  0  0  0  0  0  0  0  0  0  0  0
    9.3163   14.4734   22.8889 N   0  0  0  0  0  0  0  0  0  0  0  0
    8.4326   13.4800   23.2076 C   0  0  0  0  0  0  0  0  0  0  0  0
    7.5151   13.0652   22.5244 O   0  0  0  0  0  0  0  0  0  0  0  0
  1  2  1  0
  2  3  1  0
  3  4  2  0
  4  5  1  0
  5  6  2  0
  6  7  1  0
  7  8  2  0
  8  9  1  0
  9 10  2  0
 10 11  1  0
 11 12  1  6
 12 13  1  0
 13 14  1  0
 14 15  1  6
 15 16  2  0
 15 17  1  0
 17 18  1  0
 14 19  1  0
 19 20  1  0
 20 21  1  0
 21 22  2  0
  8  3  1  0
 21  9  1  0
 20 11  1  0
M  END
>  <ref_pdb>  (168) 
A4415a

>  <tags>  (168) 
{'fragmenstein_placed', 'openbind_a71ev2a_c1_fragmenstein'}

>  <distance_score>  (168) 
0.563122

>  <energy_score>  (168) 
-26.571061

>  <inchikey>  (168) 
RBHQQCSUMMRMLY-UHFFFAOYSA-N

>  <alias>  (168) 
COc1ccncc1C1=C[C@H]2CC[C@@H](C(=O)CO)CN2C1=O

>  <smiles>  (168) 
C216425-P359

>  <HIPPO Pose ID>  (168) 
81159

>  <ref_mols>  (168) 
A3992b,A4346a,A3489a,A4423a

>  <HIPPO Compound ID>  (168) 
216425

$$$$
CC(C)Cc1ccc([C@H](C)[C@@](C)(O)N2CCC[C@H](C(=O)CO)C2)nc1
     RDKit          3D

 25 26  0  0  0  0  0  0  0  0999 V2000
    3.3290    9.0528   29.4545 C   0  0  0  0  0  0  0  0  0  0  0  0
    3.8841    9.3545   28.0582 C   0  0  0  0  0  0  0  0  0  0  0  0
    3.4714    8.2285   27.1079 C   0  0  0  0  0  0  0  0  0  0  0  0
    5.4115    9.5034   28.1116 C   0  0  0  0  0  0  0  0  0  0  0  0
    6.0586   10.4380   27.1156 C   0  0  0  0  0  0  0  0  0  0  0  0
    6.9786   10.0288   26.1509 C   0  0  0  0  0  0  0  0  0  0  0  0
    7.8408   10.9663   25.5676 C   0  0  0  0  0  0  0  0  0  0  0  0
    7.6959   12.3209   25.8786 C   0  0  0  0  0  0  0  0  0  0  0  0
    8.7144   13.3933   25.4436 C   0  0  2  0  0  0  0  0  0  0  0  0
    8.6465   14.6012   26.4151 C   0  0  0  0  0  0  0  0  0  0  0  0
    8.5920   13.8955   23.9609 C   0  0  1  0  0  0  0  0  0  0  0  0
    8.6469   12.7335   23.0007 C   0  0  0  0  0  0  0  0  0  0  0  0
    7.3140   14.5004   23.7863 O   0  0  0  0  0  0  0  0  0  0  0  0
    9.6288   14.8634   23.5466 N   0  0  0  0  0  0  0  0  0  0  0  0
   10.9928   14.5665   23.9705 C   0  0  0  0  0  0  0  0  0  0  0  0
   12.0491   14.9974   22.9706 C   0  0  0  0  0  0  0  0  0  0  0  0
   11.7878   14.3514   21.6360 C   0  0  0  0  0  0  0  0  0  0  0  0
   10.4037   14.7262   21.1016 C   0  0  2  0  0  0  0  0  0  0  0  0
   10.5345   15.5644   19.8246 C   0  0  0  0  0  0  0  0  0  0  0  0
    9.9488   16.6347   19.6626 O   0  0  0  0  0  0  0  0  0  0  0  0
   11.4018   14.9745   18.7116 C   0  0  0  0  0  0  0  0  0  0  0  0
   11.2943   15.6505   17.4809 O   0  0  0  0  0  0  0  0  0  0  0  0
    9.5234   15.4148   22.1724 C   0  0  0  0  0  0  0  0  0  0  0  0
    6.6963   12.7312   26.6889 N   0  0  0  0  0  0  0  0  0  0  0  0
    5.9192   11.8045   27.2873 C   0  0  0  0  0  0  0  0  0  0  0  0
  1  2  1  0
  2  3  1  0
  2  4  1  0
  4  5  1  0
  5  6  2  0
  6  7  1  0
  7  8  2  0
  8  9  1  0
  9 10  1  1
  9 11  1  0
 11 12  1  6
 11 13  1  0
 11 14  1  0
 14 15  1  0
 15 16  1  0
 16 17  1  0
 17 18  1  0
 18 19  1  6
 19 20  2  0
 19 21  1  0
 21 22  1  0
 18 23  1  0
  8 24  1  0
 24 25  2  0
 25  5  1  0
 23 14  1  0
M  END
>  <ref_pdb>  (169) 
A4415a

>  <tags>  (169) 
{'fragmenstein_placed', 'openbind_a71ev2a_c1_fragmenstein'}

>  <distance_score>  (169) 
0.885205

>  <energy_score>  (169) 
-32.307558

>  <inchikey>  (169) 
SSIXCXGUESZBGS-UHFFFAOYSA-N

>  <alias>  (169) 
CC(C)Cc1ccc([C@H](C)[C@@](C)(O)N2CCC[C@H](C(=O)CO)C2)nc1

>  <smiles>  (169) 
C216439-P359

>  <HIPPO Pose ID>  (169) 
81173

>  <ref_mols>  (169) 
A3546a,A4423a

>  <HIPPO Compound ID>  (169) 
216439

$$$$
COc1ccnc(OC)c1C[C@H]1N=C[C@@H]2[C@H]([C@H](N)CO)CCCN21
     RDKit          3D

 24 26  0  0  0  0  0  0  0  0999 V2000
    9.3475    9.5428   23.5034 C   0  0  0  0  0  0  0  0  0  0  0  0
    8.9476   10.8098   24.0155 O   0  0  0  0  0  0  0  0  0  0  0  0
    7.9202   10.8834   24.9104 C   0  0  0  0  0  0  0  0  0  0  0  0
    7.2885    9.7581   25.4352 C   0  0  0  0  0  0  0  0  0  0  0  0
    6.2697    9.9205   26.3574 C   0  0  0  0  0  0  0  0  0  0  0  0
    5.8612   11.1127   26.8127 N   0  0  0  0  0  0  0  0  0  0  0  0
    6.4683   12.1972   26.2797 C   0  0  0  0  0  0  0  0  0  0  0  0
    6.1130   13.4402   26.7737 O   0  0  0  0  0  0  0  0  0  0  0  0
    4.8650   13.4360   27.4545 C   0  0  0  0  0  0  0  0  0  0  0  0
    7.4912   12.1555   25.3160 C   0  0  0  0  0  0  0  0  0  0  0  0
    8.0482   13.4834   24.8432 C   0  0  0  0  0  0  0  0  0  0  0  0
    8.9076   13.6002   23.5740 C   0  0  1  0  0  0  0  0  0  0  0  0
    8.0979   13.4155   22.3438 N   0  0  0  0  0  0  0  0  0  0  0  0
    8.5416   14.3553   21.5676 C   0  0  0  0  0  0  0  0  0  0  0  0
    9.5141   15.3376   22.1300 C   0  0  2  0  0  0  0  0  0  0  0  0
   10.8936   15.4579   21.4625 C   0  0  2  0  0  0  0  0  0  0  0  0
   10.9801   15.6645   19.9273 C   0  0  2  0  0  0  0  0  0  0  0  0
    9.8805   16.3792   19.3004 N   0  0  0  0  0  0  0  0  0  0  0  0
   11.5028   14.5422   19.0394 C   0  0  0  0  0  0  0  0  0  0  0  0
   11.5276   14.9557   17.6790 O   0  0  0  0  0  0  0  0  0  0  0  0
   11.8879   14.4069   21.9491 C   0  0  0  0  0  0  0  0  0  0  0  0
   11.9069   14.1982   23.4553 C   0  0  0  0  0  0  0  0  0  0  0  0
   10.8268   14.9854   24.1795 C   0  0  0  0  0  0  0  0  0  0  0  0
    9.5213   14.9392   23.5404 N   0  0  0  0  0  0  0  0  0  0  0  0
  1  2  1  0
  2  3  1  0
  3  4  2  0
  4  5  1  0
  5  6  2  0
  6  7  1  0
  7  8  1  0
  8  9  1  0
  7 10  2  0
 10 11  1  0
 12 11  1  1
 12 13  1  0
 13 14  2  0
 15 14  1  6
 15 16  1  0
 16 17  1  0
 17 18  1  6
 17 19  1  0
 19 20  1  0
 16 21  1  6
 21 22  1  0
 22 23  1  0
 23 24  1  0
 10  3  1  0
 24 12  1  0
 24 15  1  0
M  END
>  <ref_pdb>  (170) 
A4415a

>  <tags>  (170) 
{'fragmenstein_placed', 'openbind_a71ev2a_c1_fragmenstein'}

>  <distance_score>  (170) 
0.706785

>  <energy_score>  (170) 
-32.233058

>  <inchikey>  (170) 
LQBJAPHXNZQIIP-UHFFFAOYSA-N

>  <alias>  (170) 
COc1ccnc(OC)c1C[C@H]1N=C[C@@H]2[C@H]([C@H](N)CO)CCCN21

>  <smiles>  (170) 
C216451-P359

>  <HIPPO Pose ID>  (170) 
81184

>  <ref_mols>  (170) 
A3883a,A4423a

>  <HIPPO Compound ID>  (170) 
216451

$$$$
COc1ccncc1C[C@](C)(N=O)N1CCC[C@H](C(=O)CO)C1
     RDKit          3D

 23 24  0  0  0  0  0  0  0  0999 V2000
    9.2757    9.0572   23.5335 C   0  0  0  0  0  0  0  0  0  0  0  0
    9.2455   10.2669   24.2864 O   0  0  0  0  0  0  0  0  0  0  0  0
    8.1688   10.5754   25.0586 C   0  0  0  0  0  0  0  0  0  0  0  0
    7.2460    9.6181   25.4601 C   0  0  0  0  0  0  0  0  0  0  0  0
    6.2396    9.9788   26.3349 C   0  0  0  0  0  0  0  0  0  0  0  0
    6.0862   11.2236   26.8158 N   0  0  0  0  0  0  0  0  0  0  0  0
    6.9646   12.1532   26.3742 C   0  0  0  0  0  0  0  0  0  0  0  0
    8.0323   11.9006   25.5097 C   0  0  0  0  0  0  0  0  0  0  0  0
    8.9655   13.0633   25.1501 C   0  0  0  0  0  0  0  0  0  0  0  0
    9.0434   13.5459   23.6495 C   0  0  2  0  0  0  0  0  0  0  0  0
    7.5998   13.6965   23.1359 C   0  0  0  0  0  0  0  0  0  0  0  0
    9.7092   12.4610   22.8669 N   0  0  0  0  0  0  0  0  0  0  0  0
   10.8162   12.1324   23.3085 O   0  0  0  0  0  0  0  0  0  0  0  0
    9.7006   14.8770   23.4695 N   0  0  0  0  0  0  0  0  0  0  0  0
   11.0778   14.9401   23.9642 C   0  0  0  0  0  0  0  0  0  0  0  0
   12.1393   15.1756   22.8896 C   0  0  0  0  0  0  0  0  0  0  0  0
   11.8938   14.4886   21.5704 C   0  0  0  0  0  0  0  0  0  0  0  0
   10.4892   14.7720   21.0424 C   0  0  2  0  0  0  0  0  0  0  0  0
   10.5457   15.5578   19.7393 C   0  0  0  0  0  0  0  0  0  0  0  0
    9.8610   16.5623   19.5492 O   0  0  0  0  0  0  0  0  0  0  0  0
   11.4230   14.9773   18.6348 C   0  0  0  0  0  0  0  0  0  0  0  0
   11.3106   15.6692   17.4154 O   0  0  0  0  0  0  0  0  0  0  0  0
    9.6164   15.4682   22.1034 C   0  0  0  0  0  0  0  0  0  0  0  0
  1  2  1  0
  2  3  1  0
  3  4  2  0
  4  5  1  0
  5  6  2  0
  6  7  1  0
  7  8  2  0
  8  9  1  0
  9 10  1  0
 10 11  1  6
 10 12  1  0
 12 13  2  0
 10 14  1  0
 14 15  1  0
 15 16  1  0
 16 17  1  0
 17 18  1  0
 18 19  1  6
 19 20  2  0
 19 21  1  0
 21 22  1  0
 18 23  1  0
  8  3  1  0
 23 14  1  0
M  END
>  <ref_pdb>  (171) 
A4415a

>  <tags>  (171) 
{'fragmenstein_placed', 'openbind_a71ev2a_c1_fragmenstein'}

>  <distance_score>  (171) 
0.604295

>  <energy_score>  (171) 
-48.740089

>  <inchikey>  (171) 
CWFACJFDGIQBOC-UHFFFAOYSA-N

>  <alias>  (171) 
COc1ccncc1C[C@](C)(N=O)N1CCC[C@H](C(=O)CO)C1

>  <smiles>  (171) 
C216457-P359

>  <HIPPO Pose ID>  (171) 
81190

>  <ref_mols>  (171) 
A3936a,A4365b,A4423a

>  <HIPPO Compound ID>  (171) 
216457

$$$$
COc1ccnc2c1C[C@@](O)(N1C[C@@H](C(=O)CO)CCC1=O)CCN2
     RDKit          3D

 25 27  0  0  0  0  0  0  0  0999 V2000
    9.2896    8.8426   23.3028 C   0  0  0  0  0  0  0  0  0  0  0  0
    9.1917   10.1797   23.7659 O   0  0  0  0  0  0  0  0  0  0  0  0
    8.2047   10.5054   24.6567 C   0  0  0  0  0  0  0  0  0  0  0  0
    7.3759    9.6025   25.2923 C   0  0  0  0  0  0  0  0  0  0  0  0
    6.4389   10.0859   26.1850 C   0  0  0  0  0  0  0  0  0  0  0  0
    6.2658   11.3934   26.4548 N   0  0  0  0  0  0  0  0  0  0  0  0
    7.0369   12.2706   25.7857 C   0  0  0  0  0  0  0  0  0  0  0  0
    8.0496   11.8751   24.9149 C   0  0  0  0  0  0  0  0  0  0  0  0
    9.0576   12.8135   24.3128 C   0  0  0  0  0  0  0  0  0  0  0  0
    8.7561   14.3217   24.2052 C   0  0  1  0  0  0  0  0  0  0  0  0
    8.9222   14.9690   25.4446 O   0  0  0  0  0  0  0  0  0  0  0  0
    9.7925   14.9123   23.3433 N   0  0  0  0  0  0  0  0  0  0  0  0
    9.5147   15.3973   21.9890 C   0  0  0  0  0  0  0  0  0  0  0  0
   10.3812   14.6828   20.9433 C   0  0  1  0  0  0  0  0  0  0  0  0
   10.5149   15.5207   19.6808 C   0  0  0  0  0  0  0  0  0  0  0  0
    9.8715   16.5558   19.5117 O   0  0  0  0  0  0  0  0  0  0  0  0
   11.4257   14.9765   18.5916 C   0  0  0  0  0  0  0  0  0  0  0  0
   11.3244   15.6850   17.3823 O   0  0  0  0  0  0  0  0  0  0  0  0
   11.7495   14.2934   21.5027 C   0  0  0  0  0  0  0  0  0  0  0  0
   12.1080   15.1818   22.6657 C   0  0  0  0  0  0  0  0  0  0  0  0
   11.1323   14.8556   23.7628 C   0  0  0  0  0  0  0  0  0  0  0  0
   11.5506   14.4884   24.8585 O   0  0  0  0  0  0  0  0  0  0  0  0
    7.2982   14.5637   23.7841 C   0  0  0  0  0  0  0  0  0  0  0  0
    6.2841   14.3902   24.9239 C   0  0  0  0  0  0  0  0  0  0  0  0
    6.7656   13.6066   26.0751 N   0  0  0  0  0  0  0  0  0  0  0  0
  1  2  1  0
  2  3  1  0
  3  4  2  0
  4  5  1  0
  5  6  2  0
  6  7  1  0
  7  8  2  0
  8  9  1  0
  9 10  1  0
 10 11  1  1
 10 12  1  0
 12 13  1  0
 13 14  1  0
 14 15  1  6
 15 16  2  0
 15 17  1  0
 17 18  1  0
 14 19  1  0
 19 20  1  0
 20 21  1  0
 21 22  2  0
 10 23  1  0
 23 24  1  0
 24 25  1  0
  8  3  1  0
 21 12  1  0
 25  7  1  0
M  END
>  <ref_pdb>  (172) 
A4415a

>  <tags>  (172) 
{'fragmenstein_placed', 'openbind_a71ev2a_c1_fragmenstein'}

>  <distance_score>  (172) 
0.762399

>  <energy_score>  (172) 
-67.621379

>  <inchikey>  (172) 
DFGQYCVFJBLSQT-UHFFFAOYSA-N

>  <alias>  (172) 
COc1ccnc2c1C[C@@](O)(N1C[C@@H](C(=O)CO)CCC1=O)CCN2

>  <smiles>  (172) 
C216462-P359

>  <HIPPO Pose ID>  (172) 
81193

>  <ref_mols>  (172) 
A3956a,A4423a

>  <HIPPO Compound ID>  (172) 
216462

$$$$
COc1ccnc2c1C[C@@H](N1CCC[C@@H](C(=O)CO)C1)C(=O)CC2
     RDKit          3D

 24 26  0  0  0  0  0  0  0  0999 V2000
    9.3285    9.1234   23.3294 C   0  0  0  0  0  0  0  0  0  0  0  0
    8.9414   10.4645   23.5927 O   0  0  0  0  0  0  0  0  0  0  0  0
    8.0043   10.7004   24.5630 C   0  0  0  0  0  0  0  0  0  0  0  0
    7.4301    9.7468   25.3795 C   0  0  0  0  0  0  0  0  0  0  0  0
    6.5680   10.1710   26.3748 C   0  0  0  0  0  0  0  0  0  0  0  0
    6.3194   11.4674   26.6517 N   0  0  0  0  0  0  0  0  0  0  0  0
    6.8598   12.4005   25.8295 C   0  0  0  0  0  0  0  0  0  0  0  0
    7.6116   12.0373   24.7102 C   0  0  0  0  0  0  0  0  0  0  0  0
    8.0537   13.0689   23.7044 C   0  0  0  0  0  0  0  0  0  0  0  0
    9.3332   13.6604   24.2392 C   0  0  1  0  0  0  0  0  0  0  0  0
   10.1054   14.5573   23.3586 N   0  0  0  0  0  0  0  0  0  0  0  0
   11.5190   14.2345   23.6059 C   0  0  0  0  0  0  0  0  0  0  0  0
   12.4038   15.1566   22.8297 C   0  0  0  0  0  0  0  0  0  0  0  0
   12.1817   15.0346   21.3654 C   0  0  0  0  0  0  0  0  0  0  0  0
   10.7535   15.4746   21.1123 C   0  0  1  0  0  0  0  0  0  0  0  0
   10.5325   15.6393   19.6254 C   0  0  0  0  0  0  0  0  0  0  0  0
    9.6693   16.4107   19.2066 O   0  0  0  0  0  0  0  0  0  0  0  0
   11.4205   14.8961   18.6456 C   0  0  0  0  0  0  0  0  0  0  0  0
   11.3787   15.5153   17.3802 O   0  0  0  0  0  0  0  0  0  0  0  0
    9.7905   14.5628   21.9003 C   0  0  0  0  0  0  0  0  0  0  0  0
    9.0570   14.3664   25.5816 C   0  0  0  0  0  0  0  0  0  0  0  0
    9.9333   14.4828   26.4449 O   0  0  0  0  0  0  0  0  0  0  0  0
    7.6572   14.9063   25.8200 C   0  0  0  0  0  0  0  0  0  0  0  0
    6.6210   13.8429   26.2199 C   0  0  0  0  0  0  0  0  0  0  0  0
  1  2  1  0
  2  3  1  0
  3  4  2  0
  4  5  1  0
  5  6  2  0
  6  7  1  0
  7  8  2  0
  8  9  1  0
  9 10  1  0
 10 11  1  6
 11 12  1  0
 12 13  1  0
 13 14  1  0
 14 15  1  0
 15 16  1  6
 16 17  2  0
 16 18  1  0
 18 19  1  0
 15 20  1  0
 10 21  1  0
 21 22  2  0
 21 23  1  0
 23 24  1  0
  8  3  1  0
 20 11  1  0
 24  7  1  0
M  END
>  <ref_pdb>  (173) 
A4415a

>  <tags>  (173) 
{'fragmenstein_placed', 'openbind_a71ev2a_c1_fragmenstein'}

>  <distance_score>  (173) 
0.833471

>  <energy_score>  (173) 
-38.447223

>  <inchikey>  (173) 
WTRKRXUSBNGMEC-UHFFFAOYSA-N

>  <alias>  (173) 
COc1ccnc2c1C[C@@H](N1CCC[C@@H](C(=O)CO)C1)C(=O)CC2

>  <smiles>  (173) 
C216480-P359

>  <HIPPO Pose ID>  (173) 
81212

>  <ref_mols>  (173) 
A4202a,A4423a

>  <HIPPO Compound ID>  (173) 
216480

$$$$
COc1ccncc1C[C@H](N=O)N1CCC[C@H](C(=O)CO)C1
     RDKit          3D

 22 23  0  0  0  0  0  0  0  0999 V2000
    9.4393    9.2203   23.3323 C   0  0  0  0  0  0  0  0  0  0  0  0
    9.2034   10.5087   23.8956 O   0  0  0  0  0  0  0  0  0  0  0  0
    8.2084   10.6529   24.8246 C   0  0  0  0  0  0  0  0  0  0  0  0
    7.3886    9.6259   25.2713 C   0  0  0  0  0  0  0  0  0  0  0  0
    6.4146    9.9073   26.2168 C   0  0  0  0  0  0  0  0  0  0  0  0
    6.2187   11.1249   26.7554 N   0  0  0  0  0  0  0  0  0  0  0  0
    7.0056   12.1168   26.2872 C   0  0  0  0  0  0  0  0  0  0  0  0
    8.0242   11.9390   25.3544 C   0  0  0  0  0  0  0  0  0  0  0  0
    8.9459   13.0831   25.0169 C   0  0  0  0  0  0  0  0  0  0  0  0
    8.5999   14.1502   23.9318 C   0  0  2  0  0  0  0  0  0  0  0  0
    7.2971   13.8236   23.2732 N   0  0  0  0  0  0  0  0  0  0  0  0
    7.4131   13.2176   22.2073 O   0  0  0  0  0  0  0  0  0  0  0  0
    9.7751   14.3769   23.0765 N   0  0  0  0  0  0  0  0  0  0  0  0
   10.9652   14.8215   23.8099 C   0  0  0  0  0  0  0  0  0  0  0  0
   12.1797   14.5565   22.9336 C   0  0  0  0  0  0  0  0  0  0  0  0
   12.0674   15.3426   21.6413 C   0  0  0  0  0  0  0  0  0  0  0  0
   10.7522   14.9700   20.9666 C   0  0  2  0  0  0  0  0  0  0  0  0
   10.6385   15.6417   19.6254 C   0  0  0  0  0  0  0  0  0  0  0  0
    9.9696   16.6553   19.4389 O   0  0  0  0  0  0  0  0  0  0  0  0
   11.4434   14.9792   18.5246 C   0  0  0  0  0  0  0  0  0  0  0  0
   11.3773   15.6813   17.3138 O   0  0  0  0  0  0  0  0  0  0  0  0
    9.5658   15.2319   21.8912 C   0  0  0  0  0  0  0  0  0  0  0  0
  1  2  1  0
  2  3  1  0
  3  4  2  0
  4  5  1  0
  5  6  2  0
  6  7  1  0
  7  8  2  0
  8  9  1  0
 10  9  1  1
 10 11  1  0
 11 12  2  0
 10 13  1  0
 13 14  1  0
 14 15  1  0
 15 16  1  0
 16 17  1  0
 17 18  1  6
 18 19  2  0
 18 20  1  0
 20 21  1  0
 17 22  1  0
  8  3  1  0
 22 13  1  0
M  END
>  <ref_pdb>  (174) 
A4415a

>  <tags>  (174) 
{'fragmenstein_placed', 'openbind_a71ev2a_c1_fragmenstein'}

>  <distance_score>  (174) 
0.667558

>  <energy_score>  (174) 
-40.423174

>  <inchikey>  (174) 
FDXLNKBSSMKNST-UHFFFAOYSA-N

>  <alias>  (174) 
COc1ccncc1C[C@H](N=O)N1CCC[C@H](C(=O)CO)C1

>  <smiles>  (174) 
C216299-P359

>  <HIPPO Pose ID>  (174) 
81226

>  <ref_mols>  (174) 
A4423a,A4695a,A4703a,A4571a,A4343b

>  <HIPPO Compound ID>  (174) 
216299

$$$$
COc1ccncc1C[C@H](N=O)N1C[C@@H](C(=O)CO)CC[C@@H]1C
     RDKit          3D

 23 24  0  0  0  0  0  0  0  0999 V2000
    9.3853    9.2162   23.3713 C   0  0  0  0  0  0  0  0  0  0  0  0
    9.1552   10.5063   23.9343 O   0  0  0  0  0  0  0  0  0  0  0  0
    8.1728   10.6565   24.8776 C   0  0  0  0  0  0  0  0  0  0  0  0
    7.3339    9.6405   25.3112 C   0  0  0  0  0  0  0  0  0  0  0  0
    6.3699    9.9309   26.2636 C   0  0  0  0  0  0  0  0  0  0  0  0
    6.1987   11.1473   26.8160 N   0  0  0  0  0  0  0  0  0  0  0  0
    7.0062   12.1304   26.3641 C   0  0  0  0  0  0  0  0  0  0  0  0
    8.0213   11.9403   25.4319 C   0  0  0  0  0  0  0  0  0  0  0  0
    8.9822   13.0619   25.1102 C   0  0  0  0  0  0  0  0  0  0  0  0
    8.6769   14.1403   24.0413 C   0  0  2  0  0  0  0  0  0  0  0  0
    7.4652   13.6965   23.2682 N   0  0  0  0  0  0  0  0  0  0  0  0
    6.5444   14.5196   23.3292 O   0  0  0  0  0  0  0  0  0  0  0  0
    9.8440   14.4161   23.1798 N   0  0  0  0  0  0  0  0  0  0  0  0
    9.5300   15.2517   21.9981 C   0  0  0  0  0  0  0  0  0  0  0  0
   10.4989   14.7711   20.9295 C   0  0  1  0  0  0  0  0  0  0  0  0
   10.5132   15.5749   19.6557 C   0  0  0  0  0  0  0  0  0  0  0  0
    9.9526   16.6610   19.5391 O   0  0  0  0  0  0  0  0  0  0  0  0
   11.2484   14.9283   18.4903 C   0  0  0  0  0  0  0  0  0  0  0  0
   12.0502   13.8086   18.7944 O   0  0  0  0  0  0  0  0  0  0  0  0
   11.9332   14.6662   21.4370 C   0  0  0  0  0  0  0  0  0  0  0  0
   12.0783   15.4032   22.7318 C   0  0  0  0  0  0  0  0  0  0  0  0
   11.1050   14.8776   23.8061 C   0  0  2  0  0  0  0  0  0  0  0  0
   11.8708   13.7985   24.5829 C   0  0  0  0  0  0  0  0  0  0  0  0
  1  2  1  0
  2  3  1  0
  3  4  2  0
  4  5  1  0
  5  6  2  0
  6  7  1  0
  7  8  2  0
  8  9  1  0
 10  9  1  1
 10 11  1  0
 11 12  2  0
 10 13  1  0
 13 14  1  0
 14 15  1  0
 15 16  1  6
 16 17  2  0
 16 18  1  0
 18 19  1  0
 15 20  1  0
 20 21  1  0
 21 22  1  0
 22 23  1  6
  8  3  1  0
 22 13  1  0
M  END
>  <ref_pdb>  (175) 
A4415a

>  <tags>  (175) 
{'fragmenstein_placed', 'openbind_a71ev2a_c1_fragmenstein'}

>  <distance_score>  (175) 
0.6642

>  <energy_score>  (175) 
-21.18968

>  <inchikey>  (175) 
WIXMSLLRVUTSKV-UHFFFAOYSA-N

>  <alias>  (175) 
COc1ccncc1C[C@H](N=O)N1C[C@@H](C(=O)CO)CC[C@@H]1C

>  <smiles>  (175) 
C216506-P359

>  <HIPPO Pose ID>  (175) 
81232

>  <ref_mols>  (175) 
A4449b,A4207a,A4423a

>  <HIPPO Compound ID>  (175) 
216506

$$$$
COc1ccncc1CC(O)(O)N1CCC[C@H](C(=O)CO)C1
     RDKit          3D

 22 23  0  0  0  0  0  0  0  0999 V2000
    9.3487    9.0675   23.3475 C   0  0  0  0  0  0  0  0  0  0  0  0
    9.1281   10.3601   23.9078 O   0  0  0  0  0  0  0  0  0  0  0  0
    8.1751   10.5028   24.8825 C   0  0  0  0  0  0  0  0  0  0  0  0
    7.3115    9.5133   25.3139 C   0  0  0  0  0  0  0  0  0  0  0  0
    6.3574    9.8299   26.2695 C   0  0  0  0  0  0  0  0  0  0  0  0
    6.2190   11.0498   26.8228 N   0  0  0  0  0  0  0  0  0  0  0  0
    7.0466   12.0113   26.3630 C   0  0  0  0  0  0  0  0  0  0  0  0
    8.0541   11.7849   25.4334 C   0  0  0  0  0  0  0  0  0  0  0  0
    8.9925   12.8922   25.0291 C   0  0  0  0  0  0  0  0  0  0  0  0
    8.5806   13.7120   23.7701 C   0  0  0  0  0  0  0  0  0  0  0  0
    7.8559   12.8894   22.8822 O   0  0  0  0  0  0  0  0  0  0  0  0
    7.7534   14.7581   24.2097 O   0  0  0  0  0  0  0  0  0  0  0  0
    9.7256   14.1910   23.0458 N   0  0  0  0  0  0  0  0  0  0  0  0
   10.8297   14.7526   23.8100 C   0  0  0  0  0  0  0  0  0  0  0  0
   12.0859   14.5687   22.9673 C   0  0  0  0  0  0  0  0  0  0  0  0
   11.9559   15.3441   21.6686 C   0  0  0  0  0  0  0  0  0  0  0  0
   10.7078   14.8545   20.9427 C   0  0  2  0  0  0  0  0  0  0  0  0
   10.5736   15.5327   19.6052 C   0  0  0  0  0  0  0  0  0  0  0  0
    9.8353   16.4953   19.4139 O   0  0  0  0  0  0  0  0  0  0  0  0
   11.4400   14.9444   18.5112 C   0  0  0  0  0  0  0  0  0  0  0  0
   11.3828   15.6896   17.3258 O   0  0  0  0  0  0  0  0  0  0  0  0
    9.4630   14.9622   21.8200 C   0  0  0  0  0  0  0  0  0  0  0  0
  1  2  1  0
  2  3  1  0
  3  4  2  0
  4  5  1  0
  5  6  2  0
  6  7  1  0
  7  8  2  0
  8  9  1  0
  9 10  1  0
 10 11  1  0
 10 12  1  0
 10 13  1  0
 13 14  1  0
 14 15  1  0
 15 16  1  0
 16 17  1  0
 17 18  1  6
 18 19  2  0
 18 20  1  0
 20 21  1  0
 17 22  1  0
  8  3  1  0
 22 13  1  0
M  END
>  <ref_pdb>  (176) 
A4415a

>  <tags>  (176) 
{'fragmenstein_placed', 'openbind_a71ev2a_c1_fragmenstein'}

>  <distance_score>  (176) 
0.616789

>  <energy_score>  (176) 
-30.430828

>  <inchikey>  (176) 
LGXXYENZZFJPOF-UHFFFAOYSA-N

>  <alias>  (176) 
COc1ccncc1CC(O)(O)N1CCC[C@H](C(=O)CO)C1

>  <smiles>  (176) 
C216533-P359

>  <HIPPO Pose ID>  (176) 
81261

>  <ref_mols>  (176) 
A4540a,A4670a,A4524a,A4423a

>  <HIPPO Compound ID>  (176) 
216533

$$$$
COc1ccncc1[C@@H]1C(=O)[C@@]12CCC[C@H](CCO)C2
     RDKit          3D

 20 22  0  0  0  0  0  0  0  0999 V2000
   11.5528   12.4840   24.0481 C   0  0  0  0  0  0  0  0  0  0  0  0
   10.6533   11.9794   23.0672 O   0  0  0  0  0  0  0  0  0  0  0  0
    9.6386   11.2787   23.6480 C   0  0  0  0  0  0  0  0  0  0  0  0
    9.6992    9.8963   23.6345 C   0  0  0  0  0  0  0  0  0  0  0  0
    8.7306    9.2094   24.3232 C   0  0  0  0  0  0  0  0  0  0  0  0
    7.7282    9.7886   25.0042 N   0  0  0  0  0  0  0  0  0  0  0  0
    7.6505   11.1323   24.8974 C   0  0  0  0  0  0  0  0  0  0  0  0
    8.5496   11.9424   24.1980 C   0  0  0  0  0  0  0  0  0  0  0  0
    8.3530   13.4147   24.1516 C   0  0  2  0  0  0  0  0  0  0  0  0
    7.4139   14.0478   23.2708 C   0  0  0  0  0  0  0  0  0  0  0  0
    6.6440   13.5729   22.4566 O   0  0  0  0  0  0  0  0  0  0  0  0
    8.8403   14.3980   23.0622 C   0  0  1  0  0  0  0  0  0  0  0  0
    9.4401   15.6098   23.6361 C   0  0  0  0  0  0  0  0  0  0  0  0
   10.9354   15.6492   23.4284 C   0  0  0  0  0  0  0  0  0  0  0  0
   11.2637   15.7903   21.9610 C   0  0  0  0  0  0  0  0  0  0  0  0
   10.4929   14.8096   21.0731 C   0  0  2  0  0  0  0  0  0  0  0  0
   10.3620   15.4298   19.6656 C   0  0  0  0  0  0  0  0  0  0  0  0
   11.4361   14.9390   18.7304 C   0  0  0  0  0  0  0  0  0  0  0  0
   11.3489   15.6619   17.5198 O   0  0  0  0  0  0  0  0  0  0  0  0
    9.0931   14.4092   21.5630 C   0  0  0  0  0  0  0  0  0  0  0  0
  1  2  1  0
  2  3  1  0
  3  4  2  0
  4  5  1  0
  5  6  2  0
  6  7  1  0
  7  8  2  0
  9  8  1  6
  9 10  1  0
 10 11  2  0
 10 12  1  0
 12 13  1  1
 13 14  1  0
 14 15  1  0
 15 16  1  0
 16 17  1  6
 17 18  1  0
 18 19  1  0
 16 20  1  0
  8  3  1  0
 12  9  1  0
 20 12  1  0
M  END
>  <ref_pdb>  (177) 
A4415a

>  <tags>  (177) 
{'fragmenstein_placed', 'openbind_a71ev2a_c1_fragmenstein'}

>  <distance_score>  (177) 
0.91818

>  <energy_score>  (177) 
-11.979951

>  <inchikey>  (177) 
FTBJVCNAHRURQU-UHFFFAOYSA-N

>  <alias>  (177) 
COc1ccncc1[C@@H]1C(=O)[C@@]12CCC[C@H](CCO)C2

>  <smiles>  (177) 
C216534-P359

>  <HIPPO Pose ID>  (177) 
81262

>  <ref_mols>  (177) 
A4526a,A4423a

>  <HIPPO Compound ID>  (177) 
216534

$$$$
COc1ccc(Br)cc1C1=C[C@H]2CC[C@H](C(=O)CO)CN2C1=O
     RDKit          3D

 23 25  0  0  0  0  0  0  0  0999 V2000
    9.4831    9.1148   23.2559 C   0  0  0  0  0  0  0  0  0  0  0  0
    9.2495   10.4286   23.7493 O   0  0  0  0  0  0  0  0  0  0  0  0
    8.2756   10.6081   24.6961 C   0  0  0  0  0  0  0  0  0  0  0  0
    7.5127    9.5872   25.2580 C   0  0  0  0  0  0  0  0  0  0  0  0
    6.5342    9.8660   26.2192 C   0  0  0  0  0  0  0  0  0  0  0  0
    6.3350   11.1711   26.6490 C   0  0  0  0  0  0  0  0  0  0  0  0
    5.0503   11.5381   27.9836 Br  0  0  0  0  0  0  0  0  0  0  0  0
    7.0767   12.2064   26.0955 C   0  0  0  0  0  0  0  0  0  0  0  0
    8.0303   11.9302   25.1041 C   0  0  0  0  0  0  0  0  0  0  0  0
    8.6975   13.0464   24.4612 C   0  0  0  0  0  0  0  0  0  0  0  0
    9.7910   13.7073   24.8648 C   0  0  0  0  0  0  0  0  0  0  0  0
   10.2114   14.7528   23.8904 C   0  0  1  0  0  0  0  0  0  0  0  0
   11.5105   14.3589   23.1784 C   0  0  0  0  0  0  0  0  0  0  0  0
   11.6633   15.1080   21.8563 C   0  0  0  0  0  0  0  0  0  0  0  0
   10.4087   14.9022   20.9938 C   0  0  2  0  0  0  0  0  0  0  0  0
   10.5718   15.5910   19.6790 C   0  0  0  0  0  0  0  0  0  0  0  0
   10.1209   16.7182   19.4585 O   0  0  0  0  0  0  0  0  0  0  0  0
   11.4285   14.9067   18.6433 C   0  0  0  0  0  0  0  0  0  0  0  0
   11.7833   15.9189   17.7239 O   0  0  0  0  0  0  0  0  0  0  0  0
    9.1867   15.4355   21.7231 C   0  0  0  0  0  0  0  0  0  0  0  0
    9.0878   14.7486   22.9914 N   0  0  0  0  0  0  0  0  0  0  0  0
    8.3014   13.6290   23.1613 C   0  0  0  0  0  0  0  0  0  0  0  0
    7.4812   13.1739   22.3840 O   0  0  0  0  0  0  0  0  0  0  0  0
  1  2  1  0
  2  3  1  0
  3  4  2  0
  4  5  1  0
  5  6  2  0
  6  7  1  0
  6  8  1  0
  8  9  2  0
  9 10  1  0
 10 11  2  0
 11 12  1  0
 12 13  1  6
 13 14  1  0
 14 15  1  0
 15 16  1  6
 16 17  2  0
 16 18  1  0
 18 19  1  0
 15 20  1  0
 20 21  1  0
 21 22  1  0
 22 23  2  0
  9  3  1  0
 22 10  1  0
 21 12  1  0
M  END
>  <ref_pdb>  (178) 
A4415a

>  <tags>  (178) 
{'fragmenstein_placed', 'openbind_a71ev2a_c1_fragmenstein'}

>  <distance_score>  (178) 
0.790118

>  <energy_score>  (178) 
-38.119324

>  <inchikey>  (178) 
PEXDTKOHQKGDOE-UHFFFAOYSA-N

>  <alias>  (178) 
COc1ccc(Br)cc1C1=C[C@H]2CC[C@H](C(=O)CO)CN2C1=O

>  <smiles>  (178) 
C216499-P359

>  <HIPPO Pose ID>  (178) 
81266

>  <ref_mols>  (178) 
A4554a,A4423a

>  <HIPPO Compound ID>  (178) 
216499

$$$$
COc1ccc(Br)cc1C[C@@H](N=O)N1C[C@H](C(=O)CO)CC[C@@H]1C
     RDKit          3D

 24 25  0  0  0  0  0  0  0  0999 V2000
    9.5014    9.1544   23.2839 C   0  0  0  0  0  0  0  0  0  0  0  0
    9.2631   10.4333   23.8671 O   0  0  0  0  0  0  0  0  0  0  0  0
    8.2603   10.5490   24.7895 C   0  0  0  0  0  0  0  0  0  0  0  0
    7.4252    9.5148   25.2016 C   0  0  0  0  0  0  0  0  0  0  0  0
    6.4026    9.7346   26.1328 C   0  0  0  0  0  0  0  0  0  0  0  0
    6.2260   10.9915   26.6859 C   0  0  0  0  0  0  0  0  0  0  0  0
    4.8956   11.2753   27.9933 Br  0  0  0  0  0  0  0  0  0  0  0  0
    7.0497   12.0344   26.2948 C   0  0  0  0  0  0  0  0  0  0  0  0
    8.0711   11.8204   25.3475 C   0  0  0  0  0  0  0  0  0  0  0  0
    8.9670   12.9860   24.9960 C   0  0  0  0  0  0  0  0  0  0  0  0
    8.8370   13.6034   23.5896 C   0  0  1  0  0  0  0  0  0  0  0  0
    7.3652   13.8129   23.3219 N   0  0  0  0  0  0  0  0  0  0  0  0
    7.0177   13.3973   22.2115 O   0  0  0  0  0  0  0  0  0  0  0  0
    9.5708   14.8719   23.3762 N   0  0  0  0  0  0  0  0  0  0  0  0
    9.5283   15.2451   21.9328 C   0  0  0  0  0  0  0  0  0  0  0  0
   10.8775   15.6036   21.3002 C   0  0  2  0  0  0  0  0  0  0  0  0
   10.6894   15.7645   19.7963 C   0  0  0  0  0  0  0  0  0  0  0  0
    9.8701   16.5721   19.3513 O   0  0  0  0  0  0  0  0  0  0  0  0
   11.5186   14.9255   18.8486 C   0  0  0  0  0  0  0  0  0  0  0  0
   11.4422   15.4089   17.5249 O   0  0  0  0  0  0  0  0  0  0  0  0
   11.9710   14.6175   21.7210 C   0  0  0  0  0  0  0  0  0  0  0  0
   11.9434   14.2672   23.2125 C   0  0  0  0  0  0  0  0  0  0  0  0
   10.8971   15.0918   23.9526 C   0  0  2  0  0  0  0  0  0  0  0  0
   11.0368   15.0341   25.4760 C   0  0  0  0  0  0  0  0  0  0  0  0
  1  2  1  0
  2  3  1  0
  3  4  2  0
  4  5  1  0
  5  6  2  0
  6  7  1  0
  6  8  1  0
  8  9  2  0
  9 10  1  0
 11 10  1  1
 11 12  1  0
 12 13  2  0
 11 14  1  0
 14 15  1  0
 15 16  1  0
 16 17  1  6
 17 18  2  0
 17 19  1  0
 19 20  1  0
 16 21  1  0
 21 22  1  0
 22 23  1  0
 23 24  1  1
  9  3  1  0
 23 14  1  0
M  END
>  <ref_pdb>  (179) 
A4415a

>  <tags>  (179) 
{'fragmenstein_placed', 'openbind_a71ev2a_c1_fragmenstein'}

>  <distance_score>  (179) 
0.554681

>  <energy_score>  (179) 
-39.446214

>  <inchikey>  (179) 
YQZSZCNVDYPABN-UHFFFAOYSA-N

>  <alias>  (179) 
COc1ccc(Br)cc1C[C@@H](N=O)N1C[C@H](C(=O)CO)CC[C@@H]1C

>  <smiles>  (179) 
C216542-P359

>  <HIPPO Pose ID>  (179) 
81272

>  <ref_mols>  (179) 
A4583a,A4423a

>  <HIPPO Compound ID>  (179) 
216542

$$$$
CNC(=O)[C@H](Cc1cnccc1OC)N1CCC[C@@H](C(=O)CO)C1
     RDKit          3D

 24 25  0  0  0  0  0  0  0  0999 V2000
    5.6180   15.7925   23.7259 C   0  0  0  0  0  0  0  0  0  0  0  0
    6.8570   15.0894   23.8487 N   0  0  0  0  0  0  0  0  0  0  0  0
    7.4003   13.8637   23.0703 C   0  0  0  0  0  0  0  0  0  0  0  0
    6.8886   13.1923   22.2625 O   0  0  0  0  0  0  0  0  0  0  0  0
    8.8620   13.6042   23.5434 C   0  0  2  0  0  0  0  0  0  0  0  0
    8.9123   13.0850   24.9921 C   0  0  0  0  0  0  0  0  0  0  0  0
    8.0468   11.8962   25.3205 C   0  0  0  0  0  0  0  0  0  0  0  0
    7.0055   12.0457   26.2372 C   0  0  0  0  0  0  0  0  0  0  0  0
    6.2295   11.0384   26.6872 N   0  0  0  0  0  0  0  0  0  0  0  0
    6.4677    9.8288   26.1538 C   0  0  0  0  0  0  0  0  0  0  0  0
    7.4686    9.5734   25.2285 C   0  0  0  0  0  0  0  0  0  0  0  0
    8.2751   10.6186   24.7984 C   0  0  0  0  0  0  0  0  0  0  0  0
    9.2964   10.4963   23.8971 O   0  0  0  0  0  0  0  0  0  0  0  0
    9.5209    9.2230   23.2901 C   0  0  0  0  0  0  0  0  0  0  0  0
    9.6077   14.8739   23.3203 N   0  0  0  0  0  0  0  0  0  0  0  0
   10.9403   14.9449   23.8995 C   0  0  0  0  0  0  0  0  0  0  0  0
   11.9684   14.1845   23.0886 C   0  0  0  0  0  0  0  0  0  0  0  0
   12.0495   14.6886   21.6518 C   0  0  0  0  0  0  0  0  0  0  0  0
   10.9167   15.6408   21.2678 C   0  0  1  0  0  0  0  0  0  0  0  0
   10.7179   15.8288   19.7676 C   0  0  0  0  0  0  0  0  0  0  0  0
    9.9163   16.6666   19.3434 O   0  0  0  0  0  0  0  0  0  0  0  0
   11.5070   14.9704   18.8003 C   0  0  0  0  0  0  0  0  0  0  0  0
   11.4092   15.4623   17.4808 O   0  0  0  0  0  0  0  0  0  0  0  0
    9.5846   15.2073   21.8702 C   0  0  0  0  0  0  0  0  0  0  0  0
  1  2  1  0
  2  3  1  0
  3  4  2  0
  3  5  1  0
  5  6  1  1
  6  7  1  0
  7  8  2  0
  8  9  1  0
  9 10  2  0
 10 11  1  0
 11 12  2  0
 12 13  1  0
 13 14  1  0
  5 15  1  0
 15 16  1  0
 16 17  1  0
 17 18  1  0
 18 19  1  0
 19 20  1  6
 20 21  2  0
 20 22  1  0
 22 23  1  0
 19 24  1  0
 12  7  1  0
 24 15  1  0
M  END
>  <ref_pdb>  (180) 
A4415a

>  <tags>  (180) 
{'fragmenstein_placed', 'openbind_a71ev2a_c1_fragmenstein'}

>  <distance_score>  (180) 
0.638121

>  <energy_score>  (180) 
-30.488354

>  <inchikey>  (180) 
SBEYKMJRSWNDJO-UHFFFAOYSA-N

>  <alias>  (180) 
CNC(=O)[C@H](Cc1cnccc1OC)N1CCC[C@@H](C(=O)CO)C1

>  <smiles>  (180) 
C216552-P359

>  <HIPPO Pose ID>  (180) 
81279

>  <ref_mols>  (180) 
A4654a,A4423a

>  <HIPPO Compound ID>  (180) 
216552

$$$$
COc1ccncc1C1=C[C@H]2CC[C@@H](C(=O)CO)CN2C1=NC(C)=O
     RDKit          3D

 25 27  0  0  0  0  0  0  0  0999 V2000
    9.4656    9.2431   23.2955 C   0  0  0  0  0  0  0  0  0  0  0  0
    9.1327   10.5570   23.7376 O   0  0  0  0  0  0  0  0  0  0  0  0
    8.2195   10.7004   24.7520 C   0  0  0  0  0  0  0  0  0  0  0  0
    7.4764    9.6536   25.2869 C   0  0  0  0  0  0  0  0  0  0  0  0
    6.5841    9.9203   26.3132 C   0  0  0  0  0  0  0  0  0  0  0  0
    6.4294   11.1309   26.8762 N   0  0  0  0  0  0  0  0  0  0  0  0
    7.1271   12.1461   26.3103 C   0  0  0  0  0  0  0  0  0  0  0  0
    8.0122   12.0002   25.2471 C   0  0  0  0  0  0  0  0  0  0  0  0
    8.6734   13.1555   24.6534 C   0  0  0  0  0  0  0  0  0  0  0  0
    9.9599   13.5256   24.8164 C   0  0  0  0  0  0  0  0  0  0  0  0
   10.4598   14.4612   23.7492 C   0  0  1  0  0  0  0  0  0  0  0  0
   11.7840   14.0998   23.1041 C   0  0  0  0  0  0  0  0  0  0  0  0
   11.9029   14.6250   21.6665 C   0  0  0  0  0  0  0  0  0  0  0  0
   10.7955   15.5893   21.2148 C   0  0  1  0  0  0  0  0  0  0  0  0
   10.7161   15.8286   19.7177 C   0  0  0  0  0  0  0  0  0  0  0  0
    9.9619   16.6972   19.2696 O   0  0  0  0  0  0  0  0  0  0  0  0
   11.5196   14.9525   18.7846 C   0  0  0  0  0  0  0  0  0  0  0  0
   11.4516   15.4268   17.4601 O   0  0  0  0  0  0  0  0  0  0  0  0
    9.3855   15.1933   21.6392 C   0  0  0  0  0  0  0  0  0  0  0  0
    9.4137   14.2911   22.7673 N   0  0  0  0  0  0  0  0  0  0  0  0
    8.2715   13.8611   23.4007 C   0  0  0  0  0  0  0  0  0  0  0  0
    7.1276   14.1752   22.8983 N   0  0  0  0  0  0  0  0  0  0  0  0
    6.0233   14.3446   23.6914 C   0  0  0  0  0  0  0  0  0  0  0  0
    4.7576   14.5305   22.8908 C   0  0  0  0  0  0  0  0  0  0  0  0
    6.0159   14.4328   24.9162 O   0  0  0  0  0  0  0  0  0  0  0  0
  1  2  1  0
  2  3  1  0
  3  4  2  0
  4  5  1  0
  5  6  2  0
  6  7  1  0
  7  8  2  0
  8  9  1  0
  9 10  2  0
 10 11  1  0
 11 12  1  6
 12 13  1  0
 13 14  1  0
 14 15  1  6
 15 16  2  0
 15 17  1  0
 17 18  1  0
 14 19  1  0
 19 20  1  0
 20 21  1  0
 21 22  2  3
 22 23  1  0
 23 24  1  0
 23 25  2  0
  8  3  1  0
 21  9  1  0
 20 11  1  0
M  END
>  <ref_pdb>  (181) 
A4415a

>  <tags>  (181) 
{'fragmenstein_placed', 'openbind_a71ev2a_c1_fragmenstein'}

>  <distance_score>  (181) 
0.653571

>  <energy_score>  (181) 
-24.128018

>  <inchikey>  (181) 
ZAAUKUZMBDWRIB-UHFFFAOYSA-N

>  <alias>  (181) 
COc1ccncc1C1=C[C@H]2CC[C@@H](C(=O)CO)CN2C1=NC(C)=O

>  <smiles>  (181) 
C216553-P359

>  <HIPPO Pose ID>  (181) 
81281

>  <ref_mols>  (181) 
A4674a,A4423a

>  <HIPPO Compound ID>  (181) 
216553

$$$$
C[C@@H]1C(=O)N(Cc2cocn2)C[C@H]1c1nn(C)c2ccccc12
     RDKit          3D

 23 26  0  0  0  0  0  0  0  0999 V2000
    9.8150   14.4431   25.9695 C   0  0  0  0  0  0  0  0  0  0  0  0
   10.5711   13.7602   24.8342 C   0  0  2  0  0  0  0  0  0  0  0  0
   11.3553   14.7939   24.1091 C   0  0  0  0  0  0  0  0  0  0  0  0
   11.7382   15.7771   24.7099 O   0  0  0  0  0  0  0  0  0  0  0  0
   11.4756   14.4429   22.7891 N   0  0  0  0  0  0  0  0  0  0  0  0
   12.1053   15.1710   21.7033 C   0  0  0  0  0  0  0  0  0  0  0  0
   11.0711   15.6078   20.7340 C   0  0  0  0  0  0  0  0  0  0  0  0
   10.1840   16.6584   20.7836 C   0  0  0  0  0  0  0  0  0  0  0  0
    9.4509   16.6658   19.6477 O   0  0  0  0  0  0  0  0  0  0  0  0
    9.9208   15.5943   18.9723 C   0  0  0  0  0  0  0  0  0  0  0  0
   10.8868   14.9299   19.5541 N   0  0  0  0  0  0  0  0  0  0  0  0
   10.7133   13.2594   22.5193 C   0  0  0  0  0  0  0  0  0  0  0  0
    9.7347   13.2384   23.6810 C   0  0  1  0  0  0  0  0  0  0  0  0
    9.1759   11.9222   23.9766 C   0  0  0  0  0  0  0  0  0  0  0  0
    9.7263   10.8268   23.4620 N   0  0  0  0  0  0  0  0  0  0  0  0
    8.9996    9.8295   23.9692 N   0  0  0  0  0  0  0  0  0  0  0  0
    9.3391    8.4853   23.5816 C   0  0  0  0  0  0  0  0  0  0  0  0
    8.0200   10.2652   24.8277 C   0  0  0  0  0  0  0  0  0  0  0  0
    7.0433    9.6146   25.5696 C   0  0  0  0  0  0  0  0  0  0  0  0
    6.1911   10.3541   26.3914 C   0  0  0  0  0  0  0  0  0  0  0  0
    6.2661   11.7375   26.4158 C   0  0  0  0  0  0  0  0  0  0  0  0
    7.1952   12.3974   25.6119 C   0  0  0  0  0  0  0  0  0  0  0  0
    8.1004   11.6459   24.8374 C   0  0  0  0  0  0  0  0  0  0  0  0
  2  1  1  1
  2  3  1  0
  3  4  2  0
  3  5  1  0
  5  6  1  0
  6  7  1  0
  7  8  2  0
  8  9  1  0
  9 10  1  0
 10 11  2  0
  5 12  1  0
 12 13  1  0
 13 14  1  1
 14 15  2  0
 15 16  1  0
 16 17  1  0
 16 18  1  0
 18 19  2  0
 19 20  1  0
 20 21  2  0
 21 22  1  0
 22 23  2  0
 13  2  1  0
 23 14  1  0
 11  7  1  0
 23 18  1  0
M  END
>  <ref_pdb>  (182) 
A4415a

>  <tags>  (182) 
{'fragmenstein_placed', 'openbind_a71ev2a_c1_fragmenstein'}

>  <distance_score>  (182) 
0.869103

>  <energy_score>  (182) 
-33.547951

>  <inchikey>  (182) 
ACGAOFJUNQSDGT-UHFFFAOYSA-N

>  <alias>  (182) 
C[C@@H]1C(=O)N(Cc2cocn2)C[C@H]1c1nn(C)c2ccccc12

>  <smiles>  (182) 
C216729-P360

>  <HIPPO Pose ID>  (182) 
81344

>  <ref_mols>  (182) 
A4426a,A0310a

>  <HIPPO Compound ID>  (182) 
216729

$$$$
CCCCCOC
     RDKit          3D

  7  6  0  0  0  0  0  0  0  0999 V2000
    8.6077   16.0374   27.5589 C   0  0  0  0  0  0  0  0  0  0  0  0
    9.3011   15.0212   26.6679 C   0  0  0  0  0  0  0  0  0  0  0  0
    8.5104   14.7529   25.3866 C   0  0  0  0  0  0  0  0  0  0  0  0
    9.1428   13.6200   24.5745 C   0  0  0  0  0  0  0  0  0  0  0  0
    8.8295   13.6885   23.0792 C   0  0  0  0  0  0  0  0  0  0  0  0
    7.4903   13.2927   22.7839 O   0  0  0  0  0  0  0  0  0  0  0  0
    6.6439   14.4071   22.5105 C   0  0  0  0  0  0  0  0  0  0  0  0
  1  2  1  0
  2  3  1  0
  3  4  1  0
  4  5  1  0
  5  6  1  0
  6  7  1  0
M  END
>  <ref_pdb>  (183) 
A4415a

>  <tags>  (183) 
{'fragmenstein_placed', 'openbind_a71ev2a_c1_fragmenstein'}

>  <distance_score>  (183) 
0.850692

>  <energy_score>  (183) 
-6.466445

>  <inchikey>  (183) 
DBUJFULDVAZULB-UHFFFAOYSA-N

>  <alias>  (183) 
CCCCCOC

>  <smiles>  (183) 
C179963-P367

>  <HIPPO Pose ID>  (183) 
82751

>  <ref_mols>  (183) 
A4977b,A4449a

>  <HIPPO Compound ID>  (183) 
179963

$$$$
C[C@H]1C[C@H](C(O)(O)N2CCC[C@H](C(N)(O)O)C2)c2c(O)cccc21
     RDKit          3D

 24 26  0  0  0  0  0  0  0  0999 V2000
    9.5499    9.6836   23.4686 C   0  0  0  0  0  0  0  0  0  0  0  0
    9.4922   10.7262   24.5739 C   0  0  1  0  0  0  0  0  0  0  0  0
    9.9428   12.1611   24.2055 C   0  0  0  0  0  0  0  0  0  0  0  0
    8.6502   12.9700   23.9490 C   0  0  2  0  0  0  0  0  0  0  0  0
    8.7560   14.5091   23.9144 C   0  0  0  0  0  0  0  0  0  0  0  0
    8.8845   15.0258   25.2157 O   0  0  0  0  0  0  0  0  0  0  0  0
    7.5069   14.9849   23.4488 O   0  0  0  0  0  0  0  0  0  0  0  0
    9.8484   14.9000   23.0661 N   0  0  0  0  0  0  0  0  0  0  0  0
   10.9965   15.5029   23.7173 C   0  0  0  0  0  0  0  0  0  0  0  0
   12.2302   15.2823   22.8696 C   0  0  0  0  0  0  0  0  0  0  0  0
   12.0431   15.8628   21.4821 C   0  0  0  0  0  0  0  0  0  0  0  0
   10.8252   15.2134   20.8004 C   0  0  2  0  0  0  0  0  0  0  0  0
   10.6011   15.7734   19.3871 C   0  0  0  0  0  0  0  0  0  0  0  0
   11.6002   15.3908   18.4501 N   0  0  0  0  0  0  0  0  0  0  0  0
    9.4172   15.3911   18.8047 O   0  0  0  0  0  0  0  0  0  0  0  0
   10.5197   17.1507   19.4390 O   0  0  0  0  0  0  0  0  0  0  0  0
    9.5860   15.3752   21.7013 C   0  0  0  0  0  0  0  0  0  0  0  0
    7.7329   12.3282   24.9616 C   0  0  0  0  0  0  0  0  0  0  0  0
    6.6180   12.7921   25.6431 C   0  0  0  0  0  0  0  0  0  0  0  0
    6.1929   14.0826   25.6162 O   0  0  0  0  0  0  0  0  0  0  0  0
    5.8575   11.9118   26.4100 C   0  0  0  0  0  0  0  0  0  0  0  0
    6.1699   10.5538   26.4292 C   0  0  0  0  0  0  0  0  0  0  0  0
    7.3012   10.0972   25.7601 C   0  0  0  0  0  0  0  0  0  0  0  0
    8.1217   10.9980   25.1175 C   0  0  0  0  0  0  0  0  0  0  0  0
  2  1  1  6
  2  3  1  0
  3  4  1  0
  4  5  1  1
  5  6  1  0
  5  7  1  0
  5  8  1  0
  8  9  1  0
  9 10  1  0
 10 11  1  0
 11 12  1  0
 12 13  1  6
 13 14  1  0
 13 15  1  0
 13 16  1  0
 12 17  1  0
  4 18  1  0
 18 19  2  0
 19 20  1  0
 19 21  1  0
 21 22  2  0
 22 23  1  0
 23 24  2  0
 24  2  1  0
 17  8  1  0
 24 18  1  0
M  END
>  <ref_pdb>  (184) 
A4456b

>  <tags>  (184) 
{'fragmenstein_placed', 'openbind_a71ev2a_c1_fragmenstein'}

>  <distance_score>  (184) 
0.73275

>  <energy_score>  (184) 
-78.264855

>  <inchikey>  (184) 
UFZNLUDRLZMRGQ-UHFFFAOYSA-N

>  <alias>  (184) 
C[C@H]1C[C@H](C(O)(O)N2CCC[C@H](C(N)(O)O)C2)c2c(O)cccc21

>  <smiles>  (184) 
C200198-P372

>  <HIPPO Pose ID>  (184) 
83486

>  <ref_mols>  (184) 
A4456b,A4715a

>  <HIPPO Compound ID>  (184) 
200198

$$$$
Cc1cc2c3c(ccn3C[C@@]2(O)N2C[C@H](C(N)(O)O)CCC2=O)c1
     RDKit          3D

 24 27  0  0  0  0  0  0  0  0999 V2000
    9.8214    9.0930   22.8808 C   0  0  0  0  0  0  0  0  0  0  0  0
    9.1007   10.2132   23.5673 C   0  0  0  0  0  0  0  0  0  0  0  0
    9.3785   11.5473   23.1917 C   0  0  0  0  0  0  0  0  0  0  0  0
    8.6458   12.5634   23.7575 C   0  0  0  0  0  0  0  0  0  0  0  0
    7.7844   12.1791   24.7413 C   0  0  0  0  0  0  0  0  0  0  0  0
    7.4439   10.9490   25.1862 C   0  0  0  0  0  0  0  0  0  0  0  0
    6.4369   11.2164   26.1657 C   0  0  0  0  0  0  0  0  0  0  0  0
    6.2723   12.6083   26.2787 C   0  0  0  0  0  0  0  0  0  0  0  0
    7.1253   13.1610   25.3936 N   0  0  0  0  0  0  0  0  0  0  0  0
    7.6189   14.4589   24.8807 C   0  0  0  0  0  0  0  0  0  0  0  0
    8.4141   14.0270   23.5319 C   0  0  2  0  0  0  0  0  0  0  0  0
    7.4419   14.0570   22.4604 O   0  0  0  0  0  0  0  0  0  0  0  0
    9.6009   14.7610   23.0952 N   0  0  0  0  0  0  0  0  0  0  0  0
    9.6968   15.0295   21.6460 C   0  0  0  0  0  0  0  0  0  0  0  0
   11.0217   15.5753   21.1078 C   0  0  2  0  0  0  0  0  0  0  0  0
   11.1506   15.3778   19.5832 C   0  0  0  0  0  0  0  0  0  0  0  0
   10.4738   16.3437   18.7996 N   0  0  0  0  0  0  0  0  0  0  0  0
   10.6517   14.1989   19.1060 O   0  0  0  0  0  0  0  0  0  0  0  0
   12.4536   15.3194   19.1481 O   0  0  0  0  0  0  0  0  0  0  0  0
   12.1669   14.9473   21.8884 C   0  0  0  0  0  0  0  0  0  0  0  0
   12.0086   15.2902   23.3537 C   0  0  0  0  0  0  0  0  0  0  0  0
   10.6980   14.8156   23.9374 C   0  0  0  0  0  0  0  0  0  0  0  0
   10.6430   14.5489   25.1392 O   0  0  0  0  0  0  0  0  0  0  0  0
    8.1209    9.8972   24.5589 C   0  0  0  0  0  0  0  0  0  0  0  0
  1  2  1  0
  2  3  2  0
  3  4  1  0
  4  5  2  0
  5  6  1  0
  6  7  1  0
  7  8  2  0
  8  9  1  0
  9 10  1  0
 10 11  1  0
 11 12  1  6
 11 13  1  0
 13 14  1  0
 14 15  1  0
 15 16  1  6
 16 17  1  0
 16 18  1  0
 16 19  1  0
 15 20  1  0
 20 21  1  0
 21 22  1  0
 22 23  2  0
  6 24  2  0
 24  2  1  0
 11  4  1  0
 22 13  1  0
  9  5  1  0
M  END
>  <ref_pdb>  (185) 
A4456b

>  <tags>  (185) 
{'fragmenstein_placed', 'openbind_a71ev2a_c1_fragmenstein'}

>  <distance_score>  (185) 
0.686487

>  <energy_score>  (185) 
-47.199856

>  <inchikey>  (185) 
VATPZTFVYWQJBN-UHFFFAOYSA-N

>  <alias>  (185) 
Cc1cc2c3c(ccn3C[C@@]2(O)N2C[C@H](C(N)(O)O)CCC2=O)c1

>  <smiles>  (185) 
C202528-P381

>  <HIPPO Pose ID>  (185) 
84846

>  <ref_mols>  (185) 
A4490a,A3982a

>  <HIPPO Compound ID>  (185) 
202528

$$$$
Cc1cc2c3c(ccn3C[C@@]2(O)N2C(=O)CC[C@]3(CNNN3)[C@H]2O)c1
     RDKit          3D

 25 29  0  0  0  0  0  0  0  0999 V2000
    9.8110    9.1273   22.8541 C   0  0  0  0  0  0  0  0  0  0  0  0
    9.0879   10.2309   23.5659 C   0  0  0  0  0  0  0  0  0  0  0  0
    9.3533   11.5770   23.2177 C   0  0  0  0  0  0  0  0  0  0  0  0
    8.6418   12.5752   23.8388 C   0  0  0  0  0  0  0  0  0  0  0  0
    7.8260   12.1584   24.8468 C   0  0  0  0  0  0  0  0  0  0  0  0
    7.4694   10.9172   25.2423 C   0  0  0  0  0  0  0  0  0  0  0  0
    6.4750   11.1618   26.2412 C   0  0  0  0  0  0  0  0  0  0  0  0
    6.3456   12.5507   26.4237 C   0  0  0  0  0  0  0  0  0  0  0  0
    7.2181   13.1231   25.5715 N   0  0  0  0  0  0  0  0  0  0  0  0
    7.7339   14.4344   25.0971 C   0  0  0  0  0  0  0  0  0  0  0  0
    8.3716   14.0363   23.6580 C   0  0  2  0  0  0  0  0  0  0  0  0
    7.2166   14.1077   22.7707 O   0  0  0  0  0  0  0  0  0  0  0  0
    9.4744   14.7698   23.0451 N   0  0  0  0  0  0  0  0  0  0  0  0
   10.6034   15.0554   23.7873 C   0  0  0  0  0  0  0  0  0  0  0  0
   10.6923   14.7902   24.9903 O   0  0  0  0  0  0  0  0  0  0  0  0
   11.8096   15.6665   23.0924 C   0  0  0  0  0  0  0  0  0  0  0  0
   11.5550   16.3245   21.7466 C   0  0  0  0  0  0  0  0  0  0  0  0
   10.6989   15.4303   20.8766 C   0  0  1  0  0  0  0  0  0  0  0  0
   10.3781   15.9953   19.4976 C   0  0  0  0  0  0  0  0  0  0  0  0
   11.5004   15.6323   18.6462 N   0  0  0  0  0  0  0  0  0  0  0  0
   12.2050   14.5967   19.3321 N   0  0  0  0  0  0  0  0  0  0  0  0
   11.5157   14.2582   20.5507 N   0  0  0  0  0  0  0  0  0  0  0  0
    9.3764   15.1837   21.6415 C   0  0  1  0  0  0  0  0  0  0  0  0
    8.6360   14.2169   20.9085 O   0  0  0  0  0  0  0  0  0  0  0  0
    8.1224    9.8846   24.5621 C   0  0  0  0  0  0  0  0  0  0  0  0
  1  2  1  0
  2  3  2  0
  3  4  1  0
  4  5  2  0
  5  6  1  0
  6  7  1  0
  7  8  2  0
  8  9  1  0
  9 10  1  0
 10 11  1  0
 11 12  1  6
 11 13  1  0
 13 14  1  0
 14 15  2  0
 14 16  1  0
 16 17  1  0
 18 17  1  1
 18 19  1  0
 19 20  1  0
 20 21  1  0
 21 22  1  0
 18 23  1  0
 23 24  1  6
  6 25  2  0
 25  2  1  0
 11  4  1  0
 23 13  1  0
  9  5  1  0
 22 18  1  0
M  END
>  <ref_pdb>  (186) 
A4456b

>  <tags>  (186) 
{'fragmenstein_placed', 'openbind_a71ev2a_c1_fragmenstein'}

>  <distance_score>  (186) 
0.827353

>  <energy_score>  (186) 
-33.526369

>  <inchikey>  (186) 
VGTLZTLJNDMVPQ-UHFFFAOYSA-N

>  <alias>  (186) 
Cc1cc2c3c(ccn3C[C@@]2(O)N2C(=O)CC[C@]3(CNNN3)[C@H]2O)c1

>  <smiles>  (186) 
C202534-P381

>  <HIPPO Pose ID>  (186) 
84852

>  <ref_mols>  (186) 
A4490a,A4020b

>  <HIPPO Compound ID>  (186) 
202534

$$$$
NC(O)(O)[C@H]1CCCN([C@@H](Cc2ncc3ccc(OS)cn23)N=O)C1
     RDKit          3D

 25 27  0  0  0  0  0  0  0  0999 V2000
    9.7606   14.8689   18.4916 N   0  0  0  0  0  0  0  0  0  0  0  0
   10.7277   15.6201   19.2023 C   0  0  0  0  0  0  0  0  0  0  0  0
   10.4739   16.9589   18.9461 O   0  0  0  0  0  0  0  0  0  0  0  0
   11.9573   15.3295   18.6034 O   0  0  0  0  0  0  0  0  0  0  0  0
   10.7360   15.3146   20.7209 C   0  0  1  0  0  0  0  0  0  0  0  0
   12.1073   15.6128   21.3378 C   0  0  0  0  0  0  0  0  0  0  0  0
   12.0934   15.2753   22.8198 C   0  0  0  0  0  0  0  0  0  0  0  0
   11.0350   16.1157   23.5090 C   0  0  0  0  0  0  0  0  0  0  0  0
    9.6910   15.8992   22.9908 N   0  0  0  0  0  0  0  0  0  0  0  0
    8.9366   14.7468   23.5150 C   0  0  1  0  0  0  0  0  0  0  0  0
    9.1183   14.5387   25.0516 C   0  0  0  0  0  0  0  0  0  0  0  0
    8.0972   13.6609   25.7116 C   0  0  0  0  0  0  0  0  0  0  0  0
    7.2103   14.0913   26.5930 N   0  0  0  0  0  0  0  0  0  0  0  0
    6.3363   13.0578   26.7862 C   0  0  0  0  0  0  0  0  0  0  0  0
    6.7534   11.9448   26.1023 C   0  0  0  0  0  0  0  0  0  0  0  0
    6.2848   10.6202   25.9443 C   0  0  0  0  0  0  0  0  0  0  0  0
    6.9809    9.7745   25.1672 C   0  0  0  0  0  0  0  0  0  0  0  0
    8.2080   10.1657   24.5024 C   0  0  0  0  0  0  0  0  0  0  0  0
    8.7614    9.1720   23.7329 O   0  0  0  0  0  0  0  0  0  0  0  0
   10.3887    8.9501   23.9176 S   0  0  0  0  0  0  0  0  0  0  0  0
    8.6425   11.4349   24.6342 C   0  0  0  0  0  0  0  0  0  0  0  0
    7.9092   12.3187   25.4294 N   0  0  0  0  0  0  0  0  0  0  0  0
    7.4622   14.8798   23.2341 N   0  0  0  0  0  0  0  0  0  0  0  0
    6.9175   13.7876   23.0392 O   0  0  0  0  0  0  0  0  0  0  0  0
    9.6339   16.0616   21.5107 C   0  0  0  0  0  0  0  0  0  0  0  0
  1  2  1  0
  2  3  1  0
  2  4  1  0
  5  2  1  6
  5  6  1  0
  6  7  1  0
  7  8  1  0
  8  9  1  0
  9 10  1  0
 10 11  1  1
 11 12  1  0
 12 13  2  0
 13 14  1  0
 14 15  2  0
 15 16  1  0
 16 17  2  0
 17 18  1  0
 18 19  1  0
 19 20  1  0
 18 21  2  0
 21 22  1  0
 10 23  1  0
 23 24  2  0
  9 25  1  0
 25  5  1  0
 22 12  1  0
 22 15  1  0
M  END
>  <ref_pdb>  (187) 
A4456b

>  <tags>  (187) 
{'fragmenstein_placed', 'openbind_a71ev2a_c1_fragmenstein'}

>  <distance_score>  (187) 
0.896374

>  <energy_score>  (187) 
-95.238112

>  <inchikey>  (187) 
ATEYTNCUIPHQQY-UHFFFAOYSA-N

>  <alias>  (187) 
NC(O)(O)[C@H]1CCCN([C@@H](Cc2ncc3ccc(OS)cn23)N=O)C1

>  <smiles>  (187) 
C152685-P388

>  <HIPPO Pose ID>  (187) 
85774

>  <ref_mols>  (187) 
A2304a,A4519a

>  <HIPPO Compound ID>  (187) 
152685

$$$$
CS(=O)(=O)[C@H](CCCOO)[C@H]1CNC(=O)C1
     RDKit          3D

 16 16  0  0  0  0  0  0  0  0999 V2000
    6.3672   14.9097   25.2137 C   0  0  0  0  0  0  0  0  0  0  0  0
    8.0256   14.8103   25.8415 S   0  0  0  0  0  0  0  0  0  0  0  0
    8.6230   16.1252   25.7133 O   0  0  0  0  0  0  0  0  0  0  0  0
    7.9298   14.2200   27.1638 O   0  0  0  0  0  0  0  0  0  0  0  0
    8.9294   13.6677   24.7524 C   0  0  2  0  0  0  0  0  0  0  0  0
    8.8535   14.0168   23.2563 C   0  0  0  0  0  0  0  0  0  0  0  0
    9.3154   15.4231   22.8416 C   0  0  0  0  0  0  0  0  0  0  0  0
   10.7260   15.8286   23.2838 C   0  0  0  0  0  0  0  0  0  0  0  0
   11.7153   14.9413   22.7654 O   0  0  0  0  0  0  0  0  0  0  0  0
   11.9500   15.3804   21.3930 O   0  0  0  0  0  0  0  0  0  0  0  0
    8.6550   12.1887   25.0937 C   0  0  1  0  0  0  0  0  0  0  0  0
    7.2787   11.7454   25.5705 C   0  0  0  0  0  0  0  0  0  0  0  0
    7.3453   10.3215   25.4764 N   0  0  0  0  0  0  0  0  0  0  0  0
    8.3106    9.9157   24.5777 C   0  0  0  0  0  0  0  0  0  0  0  0
    8.5366    8.7692   24.2542 O   0  0  0  0  0  0  0  0  0  0  0  0
    8.9924   11.1413   24.0388 C   0  0  0  0  0  0  0  0  0  0  0  0
  1  2  1  0
  2  3  2  0
  2  4  2  0
  2  5  1  0
  5  6  1  6
  6  7  1  0
  7  8  1  0
  8  9  1  0
  9 10  1  0
  5 11  1  0
 11 12  1  6
 12 13  1  0
 13 14  1  0
 14 15  2  0
 14 16  1  0
 16 11  1  0
M  END
>  <ref_pdb>  (188) 
A4526a

>  <tags>  (188) 
{'fragmenstein_placed', 'openbind_a71ev2a_c1_fragmenstein'}

>  <distance_score>  (188) 
0.909469

>  <energy_score>  (188) 
-52.276904

>  <inchikey>  (188) 
FCAAAVKQVZHQHC-UHFFFAOYSA-N

>  <alias>  (188) 
CS(=O)(=O)[C@H](CCCOO)[C@H]1CNC(=O)C1

>  <smiles>  (188) 
C260673-P397

>  <HIPPO Pose ID>  (188) 
87181

>  <ref_mols>  (188) 
A4877b,A4541b

>  <HIPPO Compound ID>  (188) 
203259

$$$$
Cc1cc2c3c(ccn3C[C@]2(O)N2C[C@H](C(N)(O)O)CCC2=O)c1
     RDKit          3D

 24 27  0  0  0  0  0  0  0  0999 V2000
    9.9498    9.2652   22.8946 C   0  0  0  0  0  0  0  0  0  0  0  0
    9.2795   10.3952   23.6185 C   0  0  0  0  0  0  0  0  0  0  0  0
    9.8137   11.7060   23.5118 C   0  0  0  0  0  0  0  0  0  0  0  0
    9.1880   12.7524   24.1485 C   0  0  0  0  0  0  0  0  0  0  0  0
    7.9960   12.4110   24.7122 C   0  0  0  0  0  0  0  0  0  0  0  0
    7.4346   11.2061   24.9544 C   0  0  0  0  0  0  0  0  0  0  0  0
    6.2708   11.5338   25.7151 C   0  0  0  0  0  0  0  0  0  0  0  0
    6.1393   12.9331   25.7610 C   0  0  0  0  0  0  0  0  0  0  0  0
    7.1924   13.4299   25.0849 N   0  0  0  0  0  0  0  0  0  0  0  0
    7.8149   14.6817   24.5923 C   0  0  0  0  0  0  0  0  0  0  0  0
    9.3665   14.2250   24.3755 C   0  0  1  0  0  0  0  0  0  0  0  0
    9.8831   14.4624   25.6947 O   0  0  0  0  0  0  0  0  0  0  0  0
   10.2601   14.9064   23.4368 N   0  0  0  0  0  0  0  0  0  0  0  0
    9.9254   14.8457   22.0137 C   0  0  0  0  0  0  0  0  0  0  0  0
   10.7681   15.7845   21.1249 C   0  0  2  0  0  0  0  0  0  0  0  0
   10.4165   15.6532   19.6370 C   0  0  0  0  0  0  0  0  0  0  0  0
   11.1404   14.6832   18.8917 N   0  0  0  0  0  0  0  0  0  0  0  0
   10.6008   16.8312   18.9335 O   0  0  0  0  0  0  0  0  0  0  0  0
    9.0693   15.3454   19.5445 O   0  0  0  0  0  0  0  0  0  0  0  0
   12.2458   15.5438   21.3940 C   0  0  0  0  0  0  0  0  0  0  0  0
   12.5081   15.7455   22.8573 C   0  0  0  0  0  0  0  0  0  0  0  0
   11.6335   14.8830   23.7221 C   0  0  0  0  0  0  0  0  0  0  0  0
   12.1169   14.3180   24.7057 O   0  0  0  0  0  0  0  0  0  0  0  0
    8.1409   10.1187   24.4318 C   0  0  0  0  0  0  0  0  0  0  0  0
  1  2  1  0
  2  3  2  0
  3  4  1  0
  4  5  2  0
  5  6  1  0
  6  7  1  0
  7  8  2  0
  8  9  1  0
  9 10  1  0
 10 11  1  0
 11 12  1  1
 11 13  1  0
 13 14  1  0
 14 15  1  0
 15 16  1  6
 16 17  1  0
 16 18  1  0
 16 19  1  0
 15 20  1  0
 20 21  1  0
 21 22  1  0
 22 23  2  0
  6 24  2  0
 24  2  1  0
 11  4  1  0
 22 13  1  0
  9  5  1  0
M  END
>  <ref_pdb>  (189) 
A4526a

>  <tags>  (189) 
{'fragmenstein_placed', 'openbind_a71ev2a_c1_fragmenstein'}

>  <distance_score>  (189) 
0.879646

>  <energy_score>  (189) 
-22.819391

>  <inchikey>  (189) 
GOJVKZFYKWKGEI-UHFFFAOYSA-N

>  <alias>  (189) 
Cc1cc2c3c(ccn3C[C@]2(O)N2C[C@H](C(N)(O)O)CCC2=O)c1

>  <smiles>  (189) 
C202528-P399

>  <HIPPO Pose ID>  (189) 
87365

>  <ref_mols>  (189) 
A3992a,A4546a

>  <HIPPO Compound ID>  (189) 
261944

$$$$
CCN1c2ccccc2[C@H](C)[C@@H]1C=O
     RDKit          3D

 14 15  0  0  0  0  0  0  0  0999 V2000
    9.5927   10.5895   23.7925 C   0  0  0  0  0  0  0  0  0  0  0  0
    8.5368   10.5258   24.8623 C   0  0  0  0  0  0  0  0  0  0  0  0
    7.6758   11.7043   24.9256 N   0  0  0  0  0  0  0  0  0  0  0  0
    6.8630   11.7523   26.0762 C   0  0  0  0  0  0  0  0  0  0  0  0
    6.2334   10.6840   26.6942 C   0  0  0  0  0  0  0  0  0  0  0  0
    5.4377   10.9069   27.8190 C   0  0  0  0  0  0  0  0  0  0  0  0
    5.2822   12.2004   28.3248 C   0  0  0  0  0  0  0  0  0  0  0  0
    5.9056   13.2802   27.6989 C   0  0  0  0  0  0  0  0  0  0  0  0
    6.6822   13.0391   26.5739 C   0  0  0  0  0  0  0  0  0  0  0  0
    7.3937   14.0314   25.7049 C   0  0  2  0  0  0  0  0  0  0  0  0
    6.3945   14.9186   24.9640 C   0  0  0  0  0  0  0  0  0  0  0  0
    8.2505   13.0784   24.8219 C   0  0  2  0  0  0  0  0  0  0  0  0
    8.3217   13.5538   23.3737 C   0  0  0  0  0  0  0  0  0  0  0  0
    7.6207   13.1353   22.4536 O   0  0  0  0  0  0  0  0  0  0  0  0
  1  2  1  0
  2  3  1  0
  3  4  1  0
  4  5  2  0
  5  6  1  0
  6  7  2  0
  7  8  1  0
  8  9  2  0
  9 10  1  0
 10 11  1  6
 10 12  1  0
 12 13  1  6
 13 14  2  0
 12  3  1  0
  9  4  1  0
M  END
>  <ref_pdb>  (190) 
A4580b

>  <tags>  (190) 
{'fragmenstein_placed', 'openbind_a71ev2a_c1_fragmenstein'}

>  <distance_score>  (190) 
0.771404

>  <energy_score>  (190) 
-15.293847

>  <inchikey>  (190) 
BUDYDGJIWBAUAH-UHFFFAOYSA-N

>  <alias>  (190) 
CCN1c2ccccc2[C@H](C)[C@@H]1C=O

>  <smiles>  (190) 
C153198-P411

>  <HIPPO Pose ID>  (190) 
89241

>  <ref_mols>  (190) 
A4583b,A4883b

>  <HIPPO Compound ID>  (190) 
155426

$$$$
CCNn1cc2c(ON)cccc2c1F
     RDKit          3D

 15 16  0  0  0  0  0  0  0  0999 V2000
    6.7250   15.6927   27.7201 C   0  0  0  0  0  0  0  0  0  0  0  0
    7.0795   16.2234   26.3377 C   0  0  0  0  0  0  0  0  0  0  0  0
    6.3616   15.5464   25.2633 N   0  0  0  0  0  0  0  0  0  0  0  0
    6.8895   14.2630   24.9692 N   0  0  0  0  0  0  0  0  0  0  0  0
    6.3674   13.0778   25.4345 C   0  0  0  0  0  0  0  0  0  0  0  0
    7.1342   12.0518   24.9237 C   0  0  0  0  0  0  0  0  0  0  0  0
    7.0300   10.6643   25.1155 C   0  0  0  0  0  0  0  0  0  0  0  0
    6.1899    9.8997   25.9100 O   0  0  0  0  0  0  0  0  0  0  0  0
    5.4447   10.6537   26.9073 N   0  0  0  0  0  0  0  0  0  0  0  0
    7.9737    9.9669   24.3203 C   0  0  0  0  0  0  0  0  0  0  0  0
    8.9426   10.5977   23.4691 C   0  0  0  0  0  0  0  0  0  0  0  0
    9.0766   11.9947   23.3213 C   0  0  0  0  0  0  0  0  0  0  0  0
    8.1197   12.6609   24.0750 C   0  0  0  0  0  0  0  0  0  0  0  0
    7.9473   14.0158   24.1390 C   0  0  0  0  0  0  0  0  0  0  0  0
    8.6763   14.9470   23.5099 F   0  0  0  0  0  0  0  0  0  0  0  0
  1  2  1  0
  2  3  1  0
  3  4  1  0
  4  5  1  0
  5  6  2  0
  6  7  1  0
  7  8  1  0
  8  9  1  0
  7 10  2  0
 10 11  1  0
 11 12  2  0
 12 13  1  0
 13 14  2  0
 14 15  1  0
 14  4  1  0
 13  6  1  0
M  END
>  <ref_pdb>  (191) 
A4580b

>  <tags>  (191) 
{'fragmenstein_placed', 'openbind_a71ev2a_c1_fragmenstein'}

>  <distance_score>  (191) 
0.698636

>  <energy_score>  (191) 
-38.447576

>  <inchikey>  (191) 
FWVFIZNNHNBUSS-UHFFFAOYSA-N

>  <alias>  (191) 
CCNn1cc2c(ON)cccc2c1F

>  <smiles>  (191) 
C155011-P419

>  <HIPPO Pose ID>  (191) 
90249

>  <ref_mols>  (191) 
A3207a,A4611a

>  <HIPPO Compound ID>  (191) 
155423

$$$$
NC(=O)[C@H]1CCCN([C@@]2(O)Cc3c(cc(F)c(F)c3OO)SCCN2)C1
     RDKit          3D

 26 28  0  0  0  0  0  0  0  0999 V2000
   10.9792   14.4891   18.8938 N   0  0  0  0  0  0  0  0  0  0  0  0
   10.4542   15.5912   19.6749 C   0  0  0  0  0  0  0  0  0  0  0  0
   10.2447   16.7299   19.3727 O   0  0  0  0  0  0  0  0  0  0  0  0
   10.2616   15.1375   21.1329 C   0  0  1  0  0  0  0  0  0  0  0  0
   11.6382   15.0818   21.8057 C   0  0  0  0  0  0  0  0  0  0  0  0
   11.5317   14.7887   23.2948 C   0  0  0  0  0  0  0  0  0  0  0  0
   10.5545   15.7510   23.9565 C   0  0  0  0  0  0  0  0  0  0  0  0
    9.2323   15.7014   23.3488 N   0  0  0  0  0  0  0  0  0  0  0  0
    8.2631   14.6898   23.7600 C   0  0  1  0  0  0  0  0  0  0  0  0
    8.1272   13.7037   22.7518 O   0  0  0  0  0  0  0  0  0  0  0  0
    8.6223   13.9679   25.1071 C   0  0  0  0  0  0  0  0  0  0  0  0
    7.7654   12.7854   25.5361 C   0  0  0  0  0  0  0  0  0  0  0  0
    6.6256   12.9622   26.3506 C   0  0  0  0  0  0  0  0  0  0  0  0
    5.9282   11.8536   26.8349 C   0  0  0  0  0  0  0  0  0  0  0  0
    6.3367   10.5776   26.4833 C   0  0  0  0  0  0  0  0  0  0  0  0
    5.6530    9.5279   26.9556 F   0  0  0  0  0  0  0  0  0  0  0  0
    7.4148   10.3822   25.6368 C   0  0  0  0  0  0  0  0  0  0  0  0
    7.7458    9.1370   25.2613 F   0  0  0  0  0  0  0  0  0  0  0  0
    8.1258   11.4766   25.1544 C   0  0  0  0  0  0  0  0  0  0  0  0
    9.1199   11.2974   24.2177 O   0  0  0  0  0  0  0  0  0  0  0  0
   10.0819   10.3618   24.7782 O   0  0  0  0  0  0  0  0  0  0  0  0
    5.9860   14.5678   26.7905 S   0  0  0  0  0  0  0  0  0  0  0  0
    5.0408   14.9350   25.2559 C   0  0  0  0  0  0  0  0  0  0  0  0
    5.7957   14.7375   23.9321 C   0  0  0  0  0  0  0  0  0  0  0  0
    7.0542   15.4688   23.8989 N   0  0  0  0  0  0  0  0  0  0  0  0
    9.2990   16.0449   21.9110 C   0  0  0  0  0  0  0  0  0  0  0  0
  1  2  1  0
  2  3  2  0
  4  2  1  6
  4  5  1  0
  5  6  1  0
  6  7  1  0
  7  8  1  0
  8  9  1  0
  9 10  1  6
  9 11  1  0
 11 12  1  0
 12 13  2  0
 13 14  1  0
 14 15  2  0
 15 16  1  0
 15 17  1  0
 17 18  1  0
 17 19  2  0
 19 20  1  0
 20 21  1  0
 13 22  1  0
 22 23  1  0
 23 24  1  0
 24 25  1  0
  8 26  1  0
 26  4  1  0
 25  9  1  0
 19 12  1  0
M  END
>  <ref_pdb>  (192) 
A4580b

>  <tags>  (192) 
{'fragmenstein_placed', 'openbind_a71ev2a_c1_fragmenstein'}

>  <distance_score>  (192) 
0.751154

>  <energy_score>  (192) 
-21.397937

>  <inchikey>  (192) 
KFEZRMLQHAZDEN-UHFFFAOYSA-N

>  <alias>  (192) 
NC(=O)[C@H]1CCCN([C@@]2(O)Cc3c(cc(F)c(F)c3OO)SCCN2)C1

>  <smiles>  (192) 
C155602-P422

>  <HIPPO Pose ID>  (192) 
90743

>  <ref_mols>  (192) 
A4283a,A4644b

>  <HIPPO Compound ID>  (192) 
155615

$$$$
NC(O)(O)[C@H]1CC[C@H]2C(=O)C[C@](O)(Cc3cc4c(cc3Cl)OCCO4)N2C1
     RDKit          3D

 27 30  0  0  0  0  0  0  0  0999 V2000
   11.5743   15.4879   18.4738 N   0  0  0  0  0  0  0  0  0  0  0  0
   10.5015   15.7459   19.3742 C   0  0  0  0  0  0  0  0  0  0  0  0
   10.3532   17.1184   19.4892 O   0  0  0  0  0  0  0  0  0  0  0  0
    9.3509   15.3499   18.7273 O   0  0  0  0  0  0  0  0  0  0  0  0
   10.7727   15.0694   20.7283 C   0  0  1  0  0  0  0  0  0  0  0  0
   11.8537   15.8018   21.5373 C   0  0  0  0  0  0  0  0  0  0  0  0
   12.2002   14.9938   22.7682 C   0  0  0  0  0  0  0  0  0  0  0  0
   11.0176   14.5090   23.5676 C   0  0  1  0  0  0  0  0  0  0  0  0
   10.4066   15.4381   24.6011 C   0  0  0  0  0  0  0  0  0  0  0  0
   11.0349   16.1559   25.3683 O   0  0  0  0  0  0  0  0  0  0  0  0
    8.9083   15.2765   24.6246 C   0  0  0  0  0  0  0  0  0  0  0  0
    8.7749   13.9806   23.8136 C   0  0  2  0  0  0  0  0  0  0  0  0
    7.5315   13.8612   23.1686 O   0  0  0  0  0  0  0  0  0  0  0  0
    9.0370   12.7263   24.7099 C   0  0  0  0  0  0  0  0  0  0  0  0
    7.8637   11.9924   25.3104 C   0  0  0  0  0  0  0  0  0  0  0  0
    6.8980   12.6798   26.0688 C   0  0  0  0  0  0  0  0  0  0  0  0
    5.8405   11.9956   26.6684 C   0  0  0  0  0  0  0  0  0  0  0  0
    5.7564   10.6120   26.5564 C   0  0  0  0  0  0  0  0  0  0  0  0
    6.7064    9.9208   25.8219 C   0  0  0  0  0  0  0  0  0  0  0  0
    7.7463   10.5980   25.1907 C   0  0  0  0  0  0  0  0  0  0  0  0
    8.8404    9.6422   24.2458 Cl  0  0  0  0  0  0  0  0  0  0  0  0
    4.7660    9.8606   27.1226 O   0  0  0  0  0  0  0  0  0  0  0  0
    4.0012   10.6058   28.0713 C   0  0  0  0  0  0  0  0  0  0  0  0
    3.7086   12.0053   27.5547 C   0  0  0  0  0  0  0  0  0  0  0  0
    4.9256   12.7405   27.3660 O   0  0  0  0  0  0  0  0  0  0  0  0
    9.8443   14.0429   22.7957 N   0  0  0  0  0  0  0  0  0  0  0  0
    9.5409   14.9204   21.6316 C   0  0  0  0  0  0  0  0  0  0  0  0
  1  2  1  0
  2  3  1  0
  2  4  1  0
  5  2  1  6
  5  6  1  0
  6  7  1  0
  8  7  1  6
  8  9  1  0
  9 10  2  0
  9 11  1  0
 11 12  1  0
 12 13  1  6
 12 14  1  0
 14 15  1  0
 15 16  2  0
 16 17  1  0
 17 18  2  0
 18 19  1  0
 19 20  2  0
 20 21  1  0
 18 22  1  0
 22 23  1  0
 23 24  1  0
 24 25  1  0
 12 26  1  0
 26 27  1  0
 27  5  1  0
 26  8  1  0
 20 15  1  0
 25 17  1  0
M  END
>  <ref_pdb>  (193) 
A4580b

>  <tags>  (193) 
{'fragmenstein_placed', 'openbind_a71ev2a_c1_fragmenstein'}

>  <distance_score>  (193) 
0.755321

>  <energy_score>  (193) 
-49.505581

>  <inchikey>  (193) 
KSWWLSZWNYUPKN-UHFFFAOYSA-N

>  <alias>  (193) 
NC(O)(O)[C@H]1CC[C@H]2C(=O)C[C@](O)(Cc3cc4c(cc3Cl)OCCO4)N2C1

>  <smiles>  (193) 
C156617-P425

>  <HIPPO Pose ID>  (193) 
91209

>  <ref_mols>  (193) 
A4669a,A4611a

>  <HIPPO Compound ID>  (193) 
154866

$$$$
Cc1cc([C@@H](C)N2C(=O)CC[C@@]3(CNNN3)[C@H]2O)c2ccccc2c1
     RDKit          3D

 25 28  0  0  0  0  0  0  0  0999 V2000
    9.8134    9.0729   23.0118 C   0  0  0  0  0  0  0  0  0  0  0  0
    9.0309   10.1083   23.7559 C   0  0  0  0  0  0  0  0  0  0  0  0
    9.2575   11.4461   23.5090 C   0  0  0  0  0  0  0  0  0  0  0  0
    8.4837   12.4516   24.1308 C   0  0  0  0  0  0  0  0  0  0  0  0
    8.4158   13.7463   23.3345 C   0  0  1  0  0  0  0  0  0  0  0  0
    7.5522   14.9140   23.7869 C   0  0  0  0  0  0  0  0  0  0  0  0
    9.7056   14.1729   22.7678 N   0  0  0  0  0  0  0  0  0  0  0  0
   10.7765   14.4561   23.6058 C   0  0  0  0  0  0  0  0  0  0  0  0
   10.7583   14.3222   24.8313 O   0  0  0  0  0  0  0  0  0  0  0  0
   12.0387   14.9971   22.9718 C   0  0  0  0  0  0  0  0  0  0  0  0
   12.1371   14.7399   21.4940 C   0  0  0  0  0  0  0  0  0  0  0  0
   10.8944   15.1984   20.7450 C   0  0  2  0  0  0  0  0  0  0  0  0
   11.0443   14.8084   19.2843 C   0  0  0  0  0  0  0  0  0  0  0  0
   10.0577   15.6270   18.6093 N   0  0  0  0  0  0  0  0  0  0  0  0
   10.0472   16.8475   19.3342 N   0  0  0  0  0  0  0  0  0  0  0  0
   10.7798   16.6446   20.5553 N   0  0  0  0  0  0  0  0  0  0  0  0
    9.5928   14.8384   21.4873 C   0  0  1  0  0  0  0  0  0  0  0  0
    8.6527   14.1832   20.6538 O   0  0  0  0  0  0  0  0  0  0  0  0
    7.5863   12.1134   25.1842 C   0  0  0  0  0  0  0  0  0  0  0  0
    6.9302   13.0254   26.0535 C   0  0  0  0  0  0  0  0  0  0  0  0
    5.9635   12.6355   26.9808 C   0  0  0  0  0  0  0  0  0  0  0  0
    5.6253   11.3031   27.0783 C   0  0  0  0  0  0  0  0  0  0  0  0
    6.3000   10.3738   26.2912 C   0  0  0  0  0  0  0  0  0  0  0  0
    7.3075   10.7509   25.3812 C   0  0  0  0  0  0  0  0  0  0  0  0
    8.0278    9.7802   24.6614 C   0  0  0  0  0  0  0  0  0  0  0  0
  1  2  1  0
  2  3  2  0
  3  4  1  0
  4  5  1  0
  5  6  1  1
  5  7  1  0
  7  8  1  0
  8  9  2  0
  8 10  1  0
 10 11  1  0
 12 11  1  1
 12 13  1  0
 13 14  1  0
 14 15  1  0
 15 16  1  0
 12 17  1  0
 17 18  1  6
  4 19  2  0
 19 20  1  0
 20 21  2  0
 21 22  1  0
 22 23  2  0
 23 24  1  0
 24 25  2  0
 25  2  1  0
 17  7  1  0
 24 19  1  0
 16 12  1  0
M  END
>  <ref_pdb>  (194) 
A4673a

>  <tags>  (194) 
{'fragmenstein_placed', 'openbind_a71ev2a_c1_fragmenstein'}

>  <distance_score>  (194) 
0.80507

>  <energy_score>  (194) 
-16.749684

>  <inchikey>  (194) 
HXJSQBOPYILTPT-UHFFFAOYSA-N

>  <alias>  (194) 
Cc1cc([C@@H](C)N2C(=O)CC[C@@]3(CNNN3)[C@H]2O)c2ccccc2c1

>  <smiles>  (194) 
C166354-P442

>  <HIPPO Pose ID>  (194) 
94244

>  <ref_mols>  (194) 
A4710a,A4829a

>  <HIPPO Compound ID>  (194) 
166354

$$$$
CN1NC[C@@](O)(N2CCC[C@@H]2c2c[nH]cn2)Cc2ccccc21
     RDKit          3D

 23 26  0  0  0  0  0  0  0  0999 V2000
    8.4322    9.6615   23.5702 C   0  0  0  0  0  0  0  0  0  0  0  0
    8.3002   11.0949   23.9236 N   0  0  0  0  0  0  0  0  0  0  0  0
    7.7186   11.9873   22.9589 N   0  0  0  0  0  0  0  0  0  0  0  0
    8.4542   13.2722   22.8806 C   0  0  0  0  0  0  0  0  0  0  0  0
    9.7289   13.4045   23.7530 C   0  0  1  0  0  0  0  0  0  0  0  0
   10.5488   12.2355   23.6899 O   0  0  0  0  0  0  0  0  0  0  0  0
   10.5658   14.4983   23.2784 N   0  0  0  0  0  0  0  0  0  0  0  0
   11.8827   14.5836   23.8959 C   0  0  0  0  0  0  0  0  0  0  0  0
   12.6991   15.3096   22.8513 C   0  0  0  0  0  0  0  0  0  0  0  0
   12.2610   14.6317   21.5853 C   0  0  0  0  0  0  0  0  0  0  0  0
   10.7702   14.4945   21.7975 C   0  0  2  0  0  0  0  0  0  0  0  0
    9.9875   15.6222   21.1769 C   0  0  0  0  0  0  0  0  0  0  0  0
    9.6594   15.8227   19.8501 C   0  0  0  0  0  0  0  0  0  0  0  0
    8.9576   16.9968   19.8243 N   0  0  0  0  0  0  0  0  0  0  0  0
    8.8819   17.4598   21.1012 C   0  0  0  0  0  0  0  0  0  0  0  0
    9.4722   16.6476   21.9384 N   0  0  0  0  0  0  0  0  0  0  0  0
    9.1878   13.5841   25.2150 C   0  0  0  0  0  0  0  0  0  0  0  0
    7.9396   12.7639   25.6267 C   0  0  0  0  0  0  0  0  0  0  0  0
    6.9997   13.3257   26.5039 C   0  0  0  0  0  0  0  0  0  0  0  0
    5.9243   12.5637   26.9752 C   0  0  0  0  0  0  0  0  0  0  0  0
    5.7841   11.2270   26.6063 C   0  0  0  0  0  0  0  0  0  0  0  0
    6.6754   10.6587   25.7029 C   0  0  0  0  0  0  0  0  0  0  0  0
    7.7163   11.4326   25.1652 C   0  0  0  0  0  0  0  0  0  0  0  0
  1  2  1  0
  2  3  1  0
  3  4  1  0
  4  5  1  0
  5  6  1  1
  5  7  1  0
  7  8  1  0
  8  9  1  0
  9 10  1  0
 10 11  1  0
 11 12  1  6
 12 13  2  0
 13 14  1  0
 14 15  1  0
 15 16  2  0
  5 17  1  0
 17 18  1  0
 18 19  2  0
 19 20  1  0
 20 21  2  0
 21 22  1  0
 22 23  2  0
 23  2  1  0
 11  7  1  0
 16 12  1  0
 23 18  1  0
M  END
>  <ref_pdb>  (195) 
A4721a

>  <tags>  (195) 
{'fragmenstein_placed', 'openbind_a71ev2a_c1_fragmenstein'}

>  <distance_score>  (195) 
0.915204

>  <energy_score>  (195) 
-33.82352

>  <inchikey>  (195) 
KECOMYVRALMHPG-UHFFFAOYSA-N

>  <alias>  (195) 
CN1NC[C@@](O)(N2CCC[C@@H]2c2c[nH]cn2)Cc2ccccc21

>  <smiles>  (195) 
C145049-P449

>  <HIPPO Pose ID>  (195) 
95226

>  <ref_mols>  (195) 
A4735a,A0501b

>  <HIPPO Compound ID>  (195) 
145049

$$$$
C[C@@H]1[C@H](C)Sc2ccccc2[C@@H]1C=O
     RDKit          3D

 14 15  0  0  0  0  0  0  0  0999 V2000
    9.5669   10.7197   23.2374 C   0  0  0  0  0  0  0  0  0  0  0  0
    9.6691   11.0522   24.7062 C   0  0  2  0  0  0  0  0  0  0  0  0
    8.1671   10.3335   25.4341 S   0  0  0  0  0  0  0  0  0  0  0  0
    7.1394   11.7307   25.7986 C   0  0  0  0  0  0  0  0  0  0  0  0
    5.9659   11.4460   26.5148 C   0  0  0  0  0  0  0  0  0  0  0  0
    5.0871   12.4585   26.8891 C   0  0  0  0  0  0  0  0  0  0  0  0
    5.3606   13.7695   26.5282 C   0  0  0  0  0  0  0  0  0  0  0  0
    6.5212   14.0653   25.8152 C   0  0  0  0  0  0  0  0  0  0  0  0
    7.4333   13.0547   25.4568 C   0  0  0  0  0  0  0  0  0  0  0  0
    8.6888   13.4494   24.7083 C   0  0  2  0  0  0  0  0  0  0  0  0
    8.4595   13.6068   23.2100 C   0  0  0  0  0  0  0  0  0  0  0  0
    7.4927   13.1703   22.5894 O   0  0  0  0  0  0  0  0  0  0  0  0
    9.8767   12.5331   25.0643 C   0  0  2  0  0  0  0  0  0  0  0  0
   11.2057   13.0865   24.5320 C   0  0  0  0  0  0  0  0  0  0  0  0
  2  1  1  6
  2  3  1  0
  3  4  1  0
  4  5  2  0
  5  6  1  0
  6  7  2  0
  7  8  1  0
  8  9  2  0
  9 10  1  0
 10 11  1  6
 11 12  2  0
 10 13  1  0
 13 14  1  6
 13  2  1  0
  9  4  1  0
M  END
>  <ref_pdb>  (196) 
A4721a

>  <tags>  (196) 
{'fragmenstein_placed', 'openbind_a71ev2a_c1_fragmenstein'}

>  <distance_score>  (196) 
0.652425

>  <energy_score>  (196) 
-20.09225

>  <inchikey>  (196) 
AQAMQMSGSHVYSE-UHFFFAOYSA-N

>  <alias>  (196) 
C[C@@H]1[C@H](C)Sc2ccccc2[C@@H]1C=O

>  <smiles>  (196) 
C145578-P452

>  <HIPPO Pose ID>  (196) 
95495

>  <ref_mols>  (196) 
A4742a,A4701a

>  <HIPPO Compound ID>  (196) 
145578

$$$$
C[C@H]1C[C@@H](C(O)(O)N2C[C@H](C(N)(O)O)CC[C@@H]2N)c2ccccc2S1
     RDKit          3D

 25 27  0  0  0  0  0  0  0  0999 V2000
    9.6045   10.8508   23.2214 C   0  0  0  0  0  0  0  0  0  0  0  0
    9.6374   10.9596   24.7235 C   0  0  1  0  0  0  0  0  0  0  0  0
    9.9160   12.3529   25.2531 C   0  0  0  0  0  0  0  0  0  0  0  0
    8.8003   13.4107   25.1740 C   0  0  1  0  0  0  0  0  0  0  0  0
    8.6085   14.1131   23.7706 C   0  0  0  0  0  0  0  0  0  0  0  0
    7.7956   13.2635   22.9823 O   0  0  0  0  0  0  0  0  0  0  0  0
    7.8310   15.2783   23.9264 O   0  0  0  0  0  0  0  0  0  0  0  0
    9.8320   14.4371   23.0316 N   0  0  0  0  0  0  0  0  0  0  0  0
    9.5832   14.7605   21.5868 C   0  0  0  0  0  0  0  0  0  0  0  0
   10.6831   15.5717   20.8478 C   0  0  2  0  0  0  0  0  0  0  0  0
   10.5972   15.4596   19.3075 C   0  0  0  0  0  0  0  0  0  0  0  0
   11.1021   14.2655   18.7332 N   0  0  0  0  0  0  0  0  0  0  0  0
   11.2671   16.4735   18.6508 O   0  0  0  0  0  0  0  0  0  0  0  0
    9.2759   15.5734   18.9046 O   0  0  0  0  0  0  0  0  0  0  0  0
   12.0386   15.1714   21.3944 C   0  0  0  0  0  0  0  0  0  0  0  0
   12.0787   15.3357   22.9080 C   0  0  0  0  0  0  0  0  0  0  0  0
   10.6948   15.4873   23.5632 C   0  0  2  0  0  0  0  0  0  0  0  0
   10.9064   15.4284   24.9972 N   0  0  0  0  0  0  0  0  0  0  0  0
    7.4984   12.9249   25.8041 C   0  0  0  0  0  0  0  0  0  0  0  0
    6.6298   13.8938   26.3537 C   0  0  0  0  0  0  0  0  0  0  0  0
    5.4382   13.5371   26.9782 C   0  0  0  0  0  0  0  0  0  0  0  0
    5.0974   12.1997   27.0829 C   0  0  0  0  0  0  0  0  0  0  0  0
    5.9423   11.2325   26.5434 C   0  0  0  0  0  0  0  0  0  0  0  0
    7.1411   11.5790   25.8969 C   0  0  0  0  0  0  0  0  0  0  0  0
    8.1105   10.2085   25.3296 S   0  0  0  0  0  0  0  0  0  0  0  0
  2  1  1  6
  2  3  1  0
  3  4  1  0
  4  5  1  6
  5  6  1  0
  5  7  1  0
  5  8  1  0
  8  9  1  0
  9 10  1  0
 10 11  1  6
 11 12  1  0
 11 13  1  0
 11 14  1  0
 10 15  1  0
 15 16  1  0
 16 17  1  0
 17 18  1  1
  4 19  1  0
 19 20  2  0
 20 21  1  0
 21 22  2  0
 22 23  1  0
 23 24  2  0
 24 25  1  0
 25  2  1  0
 17  8  1  0
 24 19  1  0
M  END
>  <ref_pdb>  (197) 
A4721a

>  <tags>  (197) 
{'fragmenstein_placed', 'openbind_a71ev2a_c1_fragmenstein'}

>  <distance_score>  (197) 
0.848733

>  <energy_score>  (197) 
-57.850124

>  <inchikey>  (197) 
FBZZLTFHUFQKNB-UHFFFAOYSA-N

>  <alias>  (197) 
C[C@H]1C[C@@H](C(O)(O)N2C[C@H](C(N)(O)O)CC[C@@H]2N)c2ccccc2S1

>  <smiles>  (197) 
C145634-P452

>  <HIPPO Pose ID>  (197) 
95526

>  <ref_mols>  (197) 
A5052a,A4742a

>  <HIPPO Compound ID>  (197) 
145634

$$$$
CN1NC[C@](O)(N2CCC[C@H](S(N)(=O)=O)C2)Cc2cc(F)ccc21
     RDKit          3D

 24 26  0  0  0  0  0  0  0  0999 V2000
    5.3321   15.9585   25.5690 C   0  0  0  0  0  0  0  0  0  0  0  0
    6.2171   14.9626   24.9401 N   0  0  0  0  0  0  0  0  0  0  0  0
    6.1030   14.8337   23.5329 N   0  0  0  0  0  0  0  0  0  0  0  0
    7.4061   14.9373   22.8604 C   0  0  0  0  0  0  0  0  0  0  0  0
    8.6828   14.6005   23.7026 C   0  0  2  0  0  0  0  0  0  0  0  0
    8.7725   15.5658   24.7659 O   0  0  0  0  0  0  0  0  0  0  0  0
    9.9593   14.5938   22.9391 N   0  0  0  0  0  0  0  0  0  0  0  0
   11.0517   15.1976   23.7204 C   0  0  0  0  0  0  0  0  0  0  0  0
   12.3830   15.0627   23.0055 C   0  0  0  0  0  0  0  0  0  0  0  0
   12.3111   15.7285   21.6421 C   0  0  0  0  0  0  0  0  0  0  0  0
   11.2207   15.0380   20.8335 C   0  0  2  0  0  0  0  0  0  0  0  0
   11.1234   15.7503   19.1993 S   0  0  0  0  0  0  0  0  0  0  0  0
   10.0873   14.8115   18.3475 N   0  0  0  0  0  0  0  0  0  0  0  0
   10.4573   17.0249   19.2669 O   0  0  0  0  0  0  0  0  0  0  0  0
   12.3645   15.5463   18.4996 O   0  0  0  0  0  0  0  0  0  0  0  0
    9.8906   15.1561   21.5741 C   0  0  0  0  0  0  0  0  0  0  0  0
    8.5697   13.1848   24.3276 C   0  0  0  0  0  0  0  0  0  0  0  0
    7.3711   12.8066   25.1819 C   0  0  0  0  0  0  0  0  0  0  0  0
    7.3296   11.4691   25.5993 C   0  0  0  0  0  0  0  0  0  0  0  0
    6.2742   11.0206   26.3700 C   0  0  0  0  0  0  0  0  0  0  0  0
    6.1821    9.7207   26.6361 F   0  0  0  0  0  0  0  0  0  0  0  0
    5.2970   11.8783   26.8346 C   0  0  0  0  0  0  0  0  0  0  0  0
    5.3230   13.2089   26.4312 C   0  0  0  0  0  0  0  0  0  0  0  0
    6.3166   13.6835   25.5519 C   0  0  0  0  0  0  0  0  0  0  0  0
  1  2  1  0
  2  3  1  0
  3  4  1  0
  4  5  1  0
  5  6  1  1
  5  7  1  0
  7  8  1  0
  8  9  1  0
  9 10  1  0
 10 11  1  0
 11 12  1  6
 12 13  1  0
 12 14  2  0
 12 15  2  0
 11 16  1  0
  5 17  1  0
 17 18  1  0
 18 19  2  0
 19 20  1  0
 20 21  1  0
 20 22  2  0
 22 23  1  0
 23 24  2  0
 24  2  1  0
 16  7  1  0
 24 18  1  0
M  END
>  <ref_pdb>  (198) 
A4721a

>  <tags>  (198) 
{'fragmenstein_placed', 'openbind_a71ev2a_c1_fragmenstein'}

>  <distance_score>  (198) 
0.915444

>  <energy_score>  (198) 
-77.926634

>  <inchikey>  (198) 
UWQPEPKLQMYNPZ-UHFFFAOYSA-N

>  <alias>  (198) 
CN1NC[C@](O)(N2CCC[C@H](S(N)(=O)=O)C2)Cc2cc(F)ccc21

>  <smiles>  (198) 
C145809-P453

>  <HIPPO Pose ID>  (198) 
95600

>  <ref_mols>  (198) 
A4895b,A4742b

>  <HIPPO Compound ID>  (198) 
145809

$$$$
CN(C)Nc1ccccc1CC(O)(O)N1CCC[C@@H](S(N)(=O)=O)C1
     RDKit          3D

 24 25  0  0  0  0  0  0  0  0999 V2000
    5.1379   15.4483   25.0748 C   0  0  0  0  0  0  0  0  0  0  0  0
    5.5345   15.7491   26.4478 N   0  0  0  0  0  0  0  0  0  0  0  0
    4.3978   15.8653   27.3514 C   0  0  0  0  0  0  0  0  0  0  0  0
    6.5457   14.8951   26.9660 N   0  0  0  0  0  0  0  0  0  0  0  0
    6.5650   13.5015   26.6773 C   0  0  0  0  0  0  0  0  0  0  0  0
    5.5655   12.6905   27.2385 C   0  0  0  0  0  0  0  0  0  0  0  0
    5.5190   11.3234   26.9934 C   0  0  0  0  0  0  0  0  0  0  0  0
    6.4797   10.7457   26.1796 C   0  0  0  0  0  0  0  0  0  0  0  0
    7.4803   11.5269   25.6037 C   0  0  0  0  0  0  0  0  0  0  0  0
    7.5240   12.9161   25.8145 C   0  0  0  0  0  0  0  0  0  0  0  0
    8.6114   13.7484   25.1471 C   0  0  0  0  0  0  0  0  0  0  0  0
    8.9629   13.4650   23.6484 C   0  0  0  0  0  0  0  0  0  0  0  0
    7.7901   13.1974   22.8938 O   0  0  0  0  0  0  0  0  0  0  0  0
    9.7638   12.3032   23.5969 O   0  0  0  0  0  0  0  0  0  0  0  0
    9.6717   14.6078   23.0853 N   0  0  0  0  0  0  0  0  0  0  0  0
   10.9324   14.9572   23.7385 C   0  0  0  0  0  0  0  0  0  0  0  0
   12.1292   14.9832   22.7972 C   0  0  0  0  0  0  0  0  0  0  0  0
   11.9192   15.9498   21.6427 C   0  0  0  0  0  0  0  0  0  0  0  0
   10.5218   15.8239   21.0341 C   0  0  1  0  0  0  0  0  0  0  0  0
   10.5863   15.6426   19.2391 S   0  0  0  0  0  0  0  0  0  0  0  0
   11.5543   14.3116   18.9984 N   0  0  0  0  0  0  0  0  0  0  0  0
   11.2712   16.7402   18.6321 O   0  0  0  0  0  0  0  0  0  0  0  0
    9.3034   15.2582   18.7330 O   0  0  0  0  0  0  0  0  0  0  0  0
    9.6951   14.6718   21.6190 C   0  0  0  0  0  0  0  0  0  0  0  0
  1  2  1  0
  2  3  1  0
  2  4  1  0
  4  5  1  0
  5  6  2  0
  6  7  1  0
  7  8  2  0
  8  9  1  0
  9 10  2  0
 10 11  1  0
 11 12  1  0
 12 13  1  0
 12 14  1  0
 12 15  1  0
 15 16  1  0
 16 17  1  0
 17 18  1  0
 18 19  1  0
 19 20  1  6
 20 21  1  0
 20 22  2  0
 20 23  2  0
 19 24  1  0
 10  5  1  0
 24 15  1  0
M  END
>  <ref_pdb>  (199) 
A4721a

>  <tags>  (199) 
{'fragmenstein_placed', 'openbind_a71ev2a_c1_fragmenstein'}

>  <distance_score>  (199) 
0.760886

>  <energy_score>  (199) 
-65.661271

>  <inchikey>  (199) 
FTILCHVAIXWVQH-UHFFFAOYSA-N

>  <alias>  (199) 
CN(C)Nc1ccccc1CC(O)(O)N1CCC[C@@H](S(N)(=O)=O)C1

>  <smiles>  (199) 
C145866-P453

>  <HIPPO Pose ID>  (199) 
95617

>  <ref_mols>  (199) 
A5222a,A4742b

>  <HIPPO Compound ID>  (199) 
145866

$$$$
CSc1ccccc1[C@H]1C[C@H]2C(=O)C[C@H](S(N)(=O)=O)CN2C1=O
     RDKit          3D

 23 25  0  0  0  0  0  0  0  0999 V2000
    9.6989    9.0593   23.3300 C   0  0  0  0  0  0  0  0  0  0  0  0
    9.4878   10.8510   23.4966 S   0  0  0  0  0  0  0  0  0  0  0  0
    8.0592   11.0335   24.5636 C   0  0  0  0  0  0  0  0  0  0  0  0
    7.2912    9.9157   24.9191 C   0  0  0  0  0  0  0  0  0  0  0  0
    6.1610   10.0323   25.7263 C   0  0  0  0  0  0  0  0  0  0  0  0
    5.7782   11.2659   26.2155 C   0  0  0  0  0  0  0  0  0  0  0  0
    6.5114   12.3901   25.8684 C   0  0  0  0  0  0  0  0  0  0  0  0
    7.6490   12.3043   25.0337 C   0  0  0  0  0  0  0  0  0  0  0  0
    8.2281   13.6334   24.5972 C   0  0  1  0  0  0  0  0  0  0  0  0
    9.6982   13.9738   24.8759 C   0  0  0  0  0  0  0  0  0  0  0  0
   10.0067   15.0448   23.8300 C   0  0  1  0  0  0  0  0  0  0  0  0
   11.4550   15.0402   23.3323 C   0  0  0  0  0  0  0  0  0  0  0  0
   12.3895   14.7969   24.0988 O   0  0  0  0  0  0  0  0  0  0  0  0
   11.7008   15.5681   21.9266 C   0  0  0  0  0  0  0  0  0  0  0  0
   10.6976   14.9503   20.9607 C   0  0  2  0  0  0  0  0  0  0  0  0
   10.9495   15.5184   19.2935 S   0  0  0  0  0  0  0  0  0  0  0  0
    9.8977   14.5854   18.3958 N   0  0  0  0  0  0  0  0  0  0  0  0
   10.4459   16.8659   19.1749 O   0  0  0  0  0  0  0  0  0  0  0  0
   12.2665   15.1359   18.8532 O   0  0  0  0  0  0  0  0  0  0  0  0
    9.2878   15.2682   21.4120 C   0  0  0  0  0  0  0  0  0  0  0  0
    9.0889   14.7556   22.7519 N   0  0  0  0  0  0  0  0  0  0  0  0
    8.0948   13.8689   23.1112 C   0  0  0  0  0  0  0  0  0  0  0  0
    7.2538   13.3850   22.3718 O   0  0  0  0  0  0  0  0  0  0  0  0
  1  2  1  0
  2  3  1  0
  3  4  2  0
  4  5  1  0
  5  6  2  0
  6  7  1  0
  7  8  2  0
  9  8  1  6
  9 10  1  0
 11 10  1  1
 11 12  1  0
 12 13  2  0
 12 14  1  0
 14 15  1  0
 15 16  1  6
 16 17  1  0
 16 18  2  0
 16 19  2  0
 15 20  1  0
 20 21  1  0
 21 22  1  0
 22 23  2  0
  8  3  1  0
 22  9  1  0
 21 11  1  0
M  END
>  <ref_pdb>  (200) 
A4721a

>  <tags>  (200) 
{'fragmenstein_placed', 'openbind_a71ev2a_c1_fragmenstein'}

>  <distance_score>  (200) 
0.596383

>  <energy_score>  (200) 
-61.509314

>  <inchikey>  (200) 
SLPHMEGNVKINDS-UHFFFAOYSA-N

>  <alias>  (200) 
CSc1ccccc1[C@H]1C[C@H]2C(=O)C[C@H](S(N)(=O)=O)CN2C1=O

>  <smiles>  (200) 
C145902-P454

>  <HIPPO Pose ID>  (200) 
95625

>  <ref_mols>  (200) 
A5151a,A4745a

>  <HIPPO Compound ID>  (200) 
145902

$$$$
CSc1ccccc1C(=O)C(=NC(C)=O)N1CCC[C@H](S(N)(=O)=O)C1
     RDKit          3D

 25 26  0  0  0  0  0  0  0  0999 V2000
    9.2352    8.9531   23.4073 C   0  0  0  0  0  0  0  0  0  0  0  0
    9.1062   10.7416   23.6504 S   0  0  0  0  0  0  0  0  0  0  0  0
    7.6846   10.9576   24.7136 C   0  0  0  0  0  0  0  0  0  0  0  0
    6.8509    9.9041   25.0877 C   0  0  0  0  0  0  0  0  0  0  0  0
    5.7491   10.1082   25.9282 C   0  0  0  0  0  0  0  0  0  0  0  0
    5.4466   11.3767   26.4082 C   0  0  0  0  0  0  0  0  0  0  0  0
    6.2564   12.4433   26.0534 C   0  0  0  0  0  0  0  0  0  0  0  0
    7.3632   12.2253   25.2197 C   0  0  0  0  0  0  0  0  0  0  0  0
    8.2224   13.3845   24.9807 C   0  0  0  0  0  0  0  0  0  0  0  0
    9.0832   13.7291   25.7825 O   0  0  0  0  0  0  0  0  0  0  0  0
    7.9634   14.2294   23.7484 C   0  0  0  0  0  0  0  0  0  0  0  0
    6.8420   14.7284   23.6631 N   0  0  0  0  0  0  0  0  0  0  0  0
    6.4657   15.6373   22.7301 C   0  0  0  0  0  0  0  0  0  0  0  0
    5.0907   15.3632   22.1812 C   0  0  0  0  0  0  0  0  0  0  0  0
    7.1201   16.6209   22.4236 O   0  0  0  0  0  0  0  0  0  0  0  0
    9.2051   14.4000   22.8511 N   0  0  0  0  0  0  0  0  0  0  0  0
   10.1034   15.5849   23.3430 C   0  0  0  0  0  0  0  0  0  0  0  0
   11.5681   15.2483   23.1027 C   0  0  0  0  0  0  0  0  0  0  0  0
   11.8575   15.6180   21.6734 C   0  0  0  0  0  0  0  0  0  0  0  0
   10.7760   14.9439   20.8457 C   0  0  2  0  0  0  0  0  0  0  0  0
   10.8587   15.5266   19.1661 S   0  0  0  0  0  0  0  0  0  0  0  0
    9.7541   14.5794   18.3528 N   0  0  0  0  0  0  0  0  0  0  0  0
   10.3271   16.8656   19.0900 O   0  0  0  0  0  0  0  0  0  0  0  0
   12.1397   15.1706   18.6069 O   0  0  0  0  0  0  0  0  0  0  0  0
    9.3968   15.1825   21.4841 C   0  0  0  0  0  0  0  0  0  0  0  0
  1  2  1  0
  2  3  1  0
  3  4  2  0
  4  5  1  0
  5  6  2  0
  6  7  1  0
  7  8  2  0
  8  9  1  0
  9 10  2  0
  9 11  1  0
 11 12  2  3
 12 13  1  0
 13 14  1  0
 13 15  2  0
 11 16  1  0
 16 17  1  0
 17 18  1  0
 18 19  1  0
 19 20  1  0
 20 21  1  6
 21 22  1  0
 21 23  2  0
 21 24  2  0
 20 25  1  0
  8  3  1  0
 25 16  1  0
M  END
>  <ref_pdb>  (201) 
A4721a

>  <tags>  (201) 
{'fragmenstein_placed', 'openbind_a71ev2a_c1_fragmenstein'}

>  <distance_score>  (201) 
0.624536

>  <energy_score>  (201) 
-22.653225

>  <inchikey>  (201) 
CNSOMSHDFFGNBW-UHFFFAOYSA-N

>  <alias>  (201) 
CSc1ccccc1C(=O)C(=NC(C)=O)N1CCC[C@H](S(N)(=O)=O)C1

>  <smiles>  (201) 
C145928-P454

>  <HIPPO Pose ID>  (201) 
95640

>  <ref_mols>  (201) 
A2290a,A1779a,A4745a

>  <HIPPO Compound ID>  (201) 
145928

$$$$
CS[C@H]1CC[C@H]2CCC[C@](O)(N3CCC[C@@](C)(S(N)(=O)=O)C3)C[C@@H]21
     RDKit          3D

 24 26  0  0  0  0  0  0  0  0999 V2000
    8.9109    8.8440   23.5831 C   0  0  0  0  0  0  0  0  0  0  0  0
    9.0380   10.6122   23.6894 S   0  0  0  0  0  0  0  0  0  0  0  0
    7.3827   11.0658   24.3081 C   0  0  1  0  0  0  0  0  0  0  0  0
    6.8015   10.4827   25.5903 C   0  0  0  0  0  0  0  0  0  0  0  0
    6.0232   11.6355   26.2765 C   0  0  0  0  0  0  0  0  0  0  0  0
    6.1147   12.8339   25.3189 C   0  0  1  0  0  0  0  0  0  0  0  0
    6.1048   14.2384   25.9265 C   0  0  0  0  0  0  0  0  0  0  0  0
    7.4620   14.9332   26.1670 C   0  0  0  0  0  0  0  0  0  0  0  0
    8.3056   15.3808   24.9438 C   0  0  0  0  0  0  0  0  0  0  0  0
    8.9221   14.3420   23.9511 C   0  0  2  0  0  0  0  0  0  0  0  0
    9.8373   13.5119   24.6810 O   0  0  0  0  0  0  0  0  0  0  0  0
    9.7122   15.0416   22.9434 N   0  0  0  0  0  0  0  0  0  0  0  0
   11.0778   15.3140   23.4096 C   0  0  0  0  0  0  0  0  0  0  0  0
   12.1056   14.5776   22.5952 C   0  0  0  0  0  0  0  0  0  0  0  0
   12.0962   15.1094   21.1705 C   0  0  0  0  0  0  0  0  0  0  0  0
   10.6917   15.5817   20.7020 C   0  0  1  0  0  0  0  0  0  0  0  0
   10.3866   17.0547   21.0184 C   0  0  0  0  0  0  0  0  0  0  0  0
   10.7207   15.5439   18.8768 S   0  0  0  0  0  0  0  0  0  0  0  0
   10.6312   14.0061   18.4196 N   0  0  0  0  0  0  0  0  0  0  0  0
    9.5978   16.2620   18.3387 O   0  0  0  0  0  0  0  0  0  0  0  0
   12.0461   15.7998   18.3861 O   0  0  0  0  0  0  0  0  0  0  0  0
    9.6281   14.7399   21.4742 C   0  0  0  0  0  0  0  0  0  0  0  0
    7.7638   13.4709   23.4615 C   0  0  0  0  0  0  0  0  0  0  0  0
    7.4128   12.5352   24.6207 C   0  0  2  0  0  0  0  0  0  0  0  0
  1  2  1  0
  3  2  1  1
  3  4  1  0
  4  5  1  0
  6  5  1  1
  6  7  1  0
  7  8  1  0
  8  9  1  0
  9 10  1  0
 10 11  1  1
 10 12  1  0
 12 13  1  0
 13 14  1  0
 14 15  1  0
 15 16  1  0
 16 17  1  6
 16 18  1  0
 18 19  1  0
 18 20  2  0
 18 21  2  0
 16 22  1  0
 10 23  1  0
 24 23  1  6
 24  3  1  0
 24  6  1  0
 22 12  1  0
M  END
>  <ref_pdb>  (202) 
A4721a

>  <tags>  (202) 
{'fragmenstein_placed', 'openbind_a71ev2a_c1_fragmenstein'}

>  <distance_score>  (202) 
0.8955

>  <energy_score>  (202) 
-41.206115

>  <inchikey>  (202) 
ZDZJGSQEJNBHGY-UHFFFAOYSA-N

>  <alias>  (202) 
CS[C@H]1CC[C@H]2CCC[C@](O)(N3CCC[C@@](C)(S(N)(=O)=O)C3)C[C@@H]21

>  <smiles>  (202) 
C146049-P378

>  <HIPPO Pose ID>  (202) 
95694

>  <ref_mols>  (202) 
A4476a,A4745a

>  <HIPPO Compound ID>  (202) 
146049

$$$$
Cc1cc([C@](O)(c2nccn2C)N2CCC[C@H](S(N)(=O)=O)C2)c2ccccc2c1
     RDKit          3D

 29 32  0  0  0  0  0  0  0  0999 V2000
    9.9198    9.1736   22.8510 C   0  0  0  0  0  0  0  0  0  0  0  0
    9.0930   10.1802   23.5756 C   0  0  0  0  0  0  0  0  0  0  0  0
    9.2739   11.5601   23.4662 C   0  0  0  0  0  0  0  0  0  0  0  0
    8.4073   12.4798   24.1125 C   0  0  0  0  0  0  0  0  0  0  0  0
    8.4679   13.9959   23.7423 C   0  0  2  0  0  0  0  0  0  0  0  0
    8.5044   14.6897   25.0012 O   0  0  0  0  0  0  0  0  0  0  0  0
    7.1631   14.3810   23.0182 C   0  0  0  0  0  0  0  0  0  0  0  0
    6.3152   13.5214   22.4655 N   0  0  0  0  0  0  0  0  0  0  0  0
    5.1814   14.2279   22.1543 C   0  0  0  0  0  0  0  0  0  0  0  0
    5.3702   15.5537   22.4081 C   0  0  0  0  0  0  0  0  0  0  0  0
    6.6367   15.6534   22.9122 N   0  0  0  0  0  0  0  0  0  0  0  0
    7.2450   16.9179   23.2261 C   0  0  0  0  0  0  0  0  0  0  0  0
    9.6990   14.3202   22.9932 N   0  0  0  0  0  0  0  0  0  0  0  0
   10.7520   14.9119   23.8139 C   0  0  0  0  0  0  0  0  0  0  0  0
   12.0922   14.8769   23.1002 C   0  0  0  0  0  0  0  0  0  0  0  0
   12.0024   15.6045   21.7691 C   0  0  0  0  0  0  0  0  0  0  0  0
   10.9768   14.8647   20.9186 C   0  0  2  0  0  0  0  0  0  0  0  0
   10.9104   15.5501   19.2685 S   0  0  0  0  0  0  0  0  0  0  0  0
    9.8126   14.5964   18.4555 N   0  0  0  0  0  0  0  0  0  0  0  0
   10.3054   16.8606   19.3054 O   0  0  0  0  0  0  0  0  0  0  0  0
   12.1660   15.2960   18.6038 O   0  0  0  0  0  0  0  0  0  0  0  0
    9.6123   14.8445   21.6203 C   0  0  0  0  0  0  0  0  0  0  0  0
    7.3754   11.9544   24.9767 C   0  0  0  0  0  0  0  0  0  0  0  0
    6.4288   12.6996   25.7348 C   0  0  0  0  0  0  0  0  0  0  0  0
    5.4517   12.1079   26.5403 C   0  0  0  0  0  0  0  0  0  0  0  0
    5.3476   10.7361   26.5867 C   0  0  0  0  0  0  0  0  0  0  0  0
    6.2158    9.9776   25.8228 C   0  0  0  0  0  0  0  0  0  0  0  0
    7.2337   10.5548   25.0656 C   0  0  0  0  0  0  0  0  0  0  0  0
    8.0782    9.6973   24.3796 C   0  0  0  0  0  0  0  0  0  0  0  0
  1  2  1  0
  2  3  2  0
  3  4  1  0
  4  5  1  0
  5  6  1  1
  5  7  1  0
  7  8  2  0
  8  9  1  0
  9 10  2  0
 10 11  1  0
 11 12  1  0
  5 13  1  0
 13 14  1  0
 14 15  1  0
 15 16  1  0
 16 17  1  0
 17 18  1  6
 18 19  1  0
 18 20  2  0
 18 21  2  0
 17 22  1  0
  4 23  2  0
 23 24  1  0
 24 25  2  0
 25 26  1  0
 26 27  2  0
 27 28  1  0
 28 29  2  0
 29  2  1  0
 11  7  1  0
 22 13  1  0
 28 23  1  0
M  END
>  <ref_pdb>  (203) 
A4721a

>  <tags>  (203) 
{'fragmenstein_placed', 'openbind_a71ev2a_c1_fragmenstein'}

>  <distance_score>  (203) 
0.794344

>  <energy_score>  (203) 
-52.579648

>  <inchikey>  (203) 
SCDNAKOYMIYAQA-UHFFFAOYSA-N

>  <alias>  (203) 
Cc1cc([C@](O)(c2nccn2C)N2CCC[C@H](S(N)(=O)=O)C2)c2ccccc2c1

>  <smiles>  (203) 
C146040-P454

>  <HIPPO Pose ID>  (203) 
95695

>  <ref_mols>  (203) 
A4489a,A4745a

>  <HIPPO Compound ID>  (203) 
146040

$$$$
CSc1ccccc1[C@H]1C(=O)[C@H]2C[C@@H](C)[C@H](C(F)F)CN2C1=O
     RDKit          3D

 23 25  0  0  0  0  0  0  0  0999 V2000
    9.3110    9.3087   23.4548 C   0  0  0  0  0  0  0  0  0  0  0  0
    9.1787   11.0844   23.7597 S   0  0  0  0  0  0  0  0  0  0  0  0
    7.7473   11.2748   24.8202 C   0  0  0  0  0  0  0  0  0  0  0  0
    7.0234   10.1723   25.2970 C   0  0  0  0  0  0  0  0  0  0  0  0
    5.9151   10.3313   26.1339 C   0  0  0  0  0  0  0  0  0  0  0  0
    5.5171   11.5969   26.5303 C   0  0  0  0  0  0  0  0  0  0  0  0
    6.2081   12.7042   26.0582 C   0  0  0  0  0  0  0  0  0  0  0  0
    7.3130   12.5685   25.1858 C   0  0  0  0  0  0  0  0  0  0  0  0
    7.8450   13.8561   24.5981 C   0  0  1  0  0  0  0  0  0  0  0  0
    9.2628   14.2989   24.8510 C   0  0  0  0  0  0  0  0  0  0  0  0
    9.9038   14.1175   25.8788 O   0  0  0  0  0  0  0  0  0  0  0  0
    9.7042   15.1916   23.6965 C   0  0  1  0  0  0  0  0  0  0  0  0
   11.1470   15.0989   23.2481 C   0  0  0  0  0  0  0  0  0  0  0  0
   11.2869   15.8042   21.8770 C   0  0  1  0  0  0  0  0  0  0  0  0
   12.7257   15.8487   21.4430 C   0  0  0  0  0  0  0  0  0  0  0  0
   10.3995   15.0736   20.8402 C   0  0  2  0  0  0  0  0  0  0  0  0
   10.5468   15.5258   19.3878 C   0  0  0  0  0  0  0  0  0  0  0  0
   10.3351   16.8607   19.2907 F   0  0  0  0  0  0  0  0  0  0  0  0
   11.8007   15.2846   18.9302 F   0  0  0  0  0  0  0  0  0  0  0  0
    8.9522   15.2035   21.2958 C   0  0  0  0  0  0  0  0  0  0  0  0
    8.7992   14.7260   22.6597 N   0  0  0  0  0  0  0  0  0  0  0  0
    7.7506   13.9390   23.0989 C   0  0  0  0  0  0  0  0  0  0  0  0
    6.9123   13.3992   22.3969 O   0  0  0  0  0  0  0  0  0  0  0  0
  1  2  1  0
  2  3  1  0
  3  4  2  0
  4  5  1  0
  5  6  2  0
  6  7  1  0
  7  8  2  0
  9  8  1  6
  9 10  1  0
 10 11  2  0
 10 12  1  0
 12 13  1  6
 13 14  1  0
 14 15  1  6
 14 16  1  0
 16 17  1  6
 17 18  1  0
 17 19  1  0
 16 20  1  0
 20 21  1  0
 21 22  1  0
 22 23  2  0
  8  3  1  0
 22  9  1  0
 21 12  1  0
M  END
>  <ref_pdb>  (204) 
A4721a

>  <tags>  (204) 
{'fragmenstein_placed', 'openbind_a71ev2a_c1_fragmenstein'}

>  <distance_score>  (204) 
0.602977

>  <energy_score>  (204) 
-41.423616

>  <inchikey>  (204) 
GHLNUKUVXIIUDH-UHFFFAOYSA-N

>  <alias>  (204) 
CSc1ccccc1[C@H]1C(=O)[C@H]2C[C@@H](C)[C@H](C(F)F)CN2C1=O

>  <smiles>  (204) 
C146186-P454

>  <HIPPO Pose ID>  (204) 
95739

>  <ref_mols>  (204) 
A5212a,A4745a

>  <HIPPO Compound ID>  (204) 
146186

$$$$
CSc1ccc(C(F)(F)F)cc1CC(O)(O)N1CCC[C@@H](C(F)F)C1
     RDKit          3D

 25 26  0  0  0  0  0  0  0  0999 V2000
    9.0522    8.8358   23.4509 C   0  0  0  0  0  0  0  0  0  0  0  0
    9.0594   10.6237   23.6962 S   0  0  0  0  0  0  0  0  0  0  0  0
    7.6428   10.9732   24.7424 C   0  0  0  0  0  0  0  0  0  0  0  0
    6.7863    9.9718   25.1992 C   0  0  0  0  0  0  0  0  0  0  0  0
    5.7165   10.2585   26.0548 C   0  0  0  0  0  0  0  0  0  0  0  0
    5.4546   11.5695   26.4594 C   0  0  0  0  0  0  0  0  0  0  0  0
    4.3518   11.8828   27.4425 C   0  0  0  0  0  0  0  0  0  0  0  0
    3.7702   13.0931   27.2200 F   0  0  0  0  0  0  0  0  0  0  0  0
    4.8166   11.9180   28.7226 F   0  0  0  0  0  0  0  0  0  0  0  0
    3.3351   10.9761   27.4378 F   0  0  0  0  0  0  0  0  0  0  0  0
    6.2919   12.5878   25.9917 C   0  0  0  0  0  0  0  0  0  0  0  0
    7.3883   12.3029   25.1546 C   0  0  0  0  0  0  0  0  0  0  0  0
    8.2980   13.4522   24.7609 C   0  0  0  0  0  0  0  0  0  0  0  0
    8.0730   14.1061   23.3545 C   0  0  0  0  0  0  0  0  0  0  0  0
    7.2868   13.2754   22.5112 O   0  0  0  0  0  0  0  0  0  0  0  0
    7.3463   15.3044   23.5055 O   0  0  0  0  0  0  0  0  0  0  0  0
    9.3578   14.3875   22.7306 N   0  0  0  0  0  0  0  0  0  0  0  0
   10.2660   15.2241   23.5052 C   0  0  0  0  0  0  0  0  0  0  0  0
   11.6833   14.8982   23.0390 C   0  0  0  0  0  0  0  0  0  0  0  0
   11.8193   14.8558   21.5191 C   0  0  0  0  0  0  0  0  0  0  0  0
   10.6150   15.4774   20.8202 C   0  0  1  0  0  0  0  0  0  0  0  0
   10.7259   15.3645   19.3036 C   0  0  0  0  0  0  0  0  0  0  0  0
    9.9742   16.3441   18.7355 F   0  0  0  0  0  0  0  0  0  0  0  0
   12.0033   15.5904   18.9045 F   0  0  0  0  0  0  0  0  0  0  0  0
    9.2840   14.8682   21.3352 C   0  0  0  0  0  0  0  0  0  0  0  0
  1  2  1  0
  2  3  1  0
  3  4  2  0
  4  5  1  0
  5  6  2  0
  6  7  1  0
  7  8  1  0
  7  9  1  0
  7 10  1  0
  6 11  1  0
 11 12  2  0
 12 13  1  0
 13 14  1  0
 14 15  1  0
 14 16  1  0
 14 17  1  0
 17 18  1  0
 18 19  1  0
 19 20  1  0
 20 21  1  0
 21 22  1  6
 22 23  1  0
 22 24  1  0
 21 25  1  0
 12  3  1  0
 25 17  1  0
M  END
>  <ref_pdb>  (205) 
A4721a

>  <tags>  (205) 
{'fragmenstein_placed', 'openbind_a71ev2a_c1_fragmenstein'}

>  <distance_score>  (205) 
0.670206

>  <energy_score>  (205) 
-36.945915

>  <inchikey>  (205) 
NHNMNMCQXGGKAG-UHFFFAOYSA-N

>  <alias>  (205) 
CSc1ccc(C(F)(F)F)cc1CC(O)(O)N1CCC[C@@H](C(F)F)C1

>  <smiles>  (205) 
C146205-P454

>  <HIPPO Pose ID>  (205) 
95751

>  <ref_mols>  (205) 
A5383a,A4745a

>  <HIPPO Compound ID>  (205) 
146205

$$$$
CSc1cc(C)cc2c1C[C@](O)(N1CCC[C@@H](CF)[C@@H]1Cl)NC[C@H](c1ccc3ccccc3c1)NC(=O)C2
     RDKit          3D

 38 42  0  0  0  0  0  0  0  0999 V2000
    8.9486    8.9809   23.6583 C   0  0  0  0  0  0  0  0  0  0  0  0
    8.8919   10.7858   23.8035 S   0  0  0  0  0  0  0  0  0  0  0  0
    7.6017   11.1723   25.0231 C   0  0  0  0  0  0  0  0  0  0  0  0
    6.7748   10.1816   25.5792 C   0  0  0  0  0  0  0  0  0  0  0  0
    5.8183   10.4984   26.5565 C   0  0  0  0  0  0  0  0  0  0  0  0
    4.9571    9.4708   27.2291 C   0  0  0  0  0  0  0  0  0  0  0  0
    5.6832   11.8167   26.9712 C   0  0  0  0  0  0  0  0  0  0  0  0
    6.4732   12.8433   26.4436 C   0  0  0  0  0  0  0  0  0  0  0  0
    7.4452   12.5288   25.4596 C   0  0  0  0  0  0  0  0  0  0  0  0
    8.3805   13.6147   24.9433 C   0  0  0  0  0  0  0  0  0  0  0  0
    8.0488   14.3279   23.5804 C   0  0  2  0  0  0  0  0  0  0  0  0
    7.5530   13.3741   22.6664 O   0  0  0  0  0  0  0  0  0  0  0  0
    9.2394   14.9139   23.0042 N   0  0  0  0  0  0  0  0  0  0  0  0
   10.3799   15.3305   23.7919 C   0  0  0  0  0  0  0  0  0  0  0  0
   11.6256   14.6582   23.2206 C   0  0  0  0  0  0  0  0  0  0  0  0
   11.7083   14.7604   21.6964 C   0  0  0  0  0  0  0  0  0  0  0  0
   10.6779   15.7123   21.1117 C   0  0  1  0  0  0  0  0  0  0  0  0
   10.7389   15.7362   19.5890 C   0  0  0  0  0  0  0  0  0  0  0  0
   10.4686   14.5091   19.0932 F   0  0  0  0  0  0  0  0  0  0  0  0
    9.2621   15.3861   21.6209 C   0  0  2  0  0  0  0  0  0  0  0  0
    8.3754   16.9346   21.5792 Cl  0  0  0  0  0  0  0  0  0  0  0  0
    7.1169   15.4157   23.8338 N   0  0  0  0  0  0  0  0  0  0  0  0
    5.8048   15.3430   23.1296 C   0  0  0  0  0  0  0  0  0  0  0  0
    4.6700   14.8757   24.0862 C   0  0  2  0  0  0  0  0  0  0  0  0
    3.2745   15.1299   23.5274 C   0  0  0  0  0  0  0  0  0  0  0  0
    2.9075   14.5719   22.2939 C   0  0  0  0  0  0  0  0  0  0  0  0
    1.6271   14.7619   21.7655 C   0  0  0  0  0  0  0  0  0  0  0  0
    0.6697   15.5136   22.4597 C   0  0  0  0  0  0  0  0  0  0  0  0
   -0.6218   15.7156   21.9453 C   0  0  0  0  0  0  0  0  0  0  0  0
   -1.5629   16.4644   22.6539 C   0  0  0  0  0  0  0  0  0  0  0  0
   -1.2257   17.0175   23.8856 C   0  0  0  0  0  0  0  0  0  0  0  0
    0.0525   16.8214   24.4107 C   0  0  0  0  0  0  0  0  0  0  0  0
    1.0116   16.0730   23.7091 C   0  0  0  0  0  0  0  0  0  0  0  0
    2.3043   15.8696   24.2257 C   0  0  0  0  0  0  0  0  0  0  0  0
    4.9064   15.5379   25.3804 N   0  0  0  0  0  0  0  0  0  0  0  0
    4.8203   14.7236   26.4892 C   0  0  0  0  0  0  0  0  0  0  0  0
    3.7543   14.3555   26.9762 O   0  0  0  0  0  0  0  0  0  0  0  0
    6.1718   14.2300   26.9879 C   0  0  0  0  0  0  0  0  0  0  0  0
  1  2  1  0
  2  3  1  0
  3  4  2  0
  4  5  1  0
  5  6  1  0
  5  7  2  0
  7  8  1  0
  8  9  2  0
  9 10  1  0
 10 11  1  0
 11 12  1  6
 11 13  1  0
 13 14  1  0
 14 15  1  0
 15 16  1  0
 16 17  1  0
 17 18  1  6
 18 19  1  0
 17 20  1  0
 20 21  1  1
 11 22  1  0
 22 23  1  0
 23 24  1  0
 24 25  1  6
 25 26  2  0
 26 27  1  0
 27 28  2  0
 28 29  1  0
 29 30  2  0
 30 31  1  0
 31 32  2  0
 32 33  1  0
 33 34  2  0
 24 35  1  0
 35 36  1  0
 36 37  2  0
 36 38  1  0
  9  3  1  0
 20 13  1  0
 34 25  1  0
 38  8  1  0
 33 28  1  0
M  END
>  <ref_pdb>  (206) 
A4721a

>  <tags>  (206) 
{'fragmenstein_placed', 'openbind_a71ev2a_c1_fragmenstein'}

>  <distance_score>  (206) 
0.805794

>  <energy_score>  (206) 
-136.913482

>  <inchikey>  (206) 
GMHGBJOLLBFRHA-UHFFFAOYSA-N

>  <alias>  (206) 
CSc1cc(C)cc2c1C[C@](O)(N1CCC[C@@H](CF)[C@@H]1Cl)NC[C@H](c1ccc3ccccc3c1)NC(=O)C2

>  <smiles>  (206) 
C146731-P456

>  <HIPPO Pose ID>  (206) 
95945

>  <ref_mols>  (206) 
A4748a,A4707a

>  <HIPPO Compound ID>  (206) 
146731

$$$$
CN1NC[C@](O)(N2CCC[C@H](CF)C2)Cc2ccccc21
     RDKit          3D

 21 23  0  0  0  0  0  0  0  0999 V2000
    9.0569    9.6898   23.6146 C   0  0  0  0  0  0  0  0  0  0  0  0
    8.6228   11.0539   23.9957 N   0  0  0  0  0  0  0  0  0  0  0  0
    8.1288   11.8253   22.9248 N   0  0  0  0  0  0  0  0  0  0  0  0
    8.9103   13.0300   22.7576 C   0  0  0  0  0  0  0  0  0  0  0  0
    8.4746   14.1835   23.6681 C   0  0  2  0  0  0  0  0  0  0  0  0
    7.1154   14.5335   23.3629 O   0  0  0  0  0  0  0  0  0  0  0  0
    9.2752   15.3974   23.3767 N   0  0  0  0  0  0  0  0  0  0  0  0
   10.6162   15.4701   23.9669 C   0  0  0  0  0  0  0  0  0  0  0  0
   11.7810   14.9584   23.1181 C   0  0  0  0  0  0  0  0  0  0  0  0
   11.7677   15.5897   21.7339 C   0  0  0  0  0  0  0  0  0  0  0  0
   10.4371   15.2727   21.0688 C   0  0  2  0  0  0  0  0  0  0  0  0
   10.3870   15.7847   19.6335 C   0  0  0  0  0  0  0  0  0  0  0  0
   11.3482   15.1597   18.9002 F   0  0  0  0  0  0  0  0  0  0  0  0
    9.2877   15.8263   21.9442 C   0  0  0  0  0  0  0  0  0  0  0  0
    8.4596   13.7141   25.1632 C   0  0  0  0  0  0  0  0  0  0  0  0
    7.5347   12.5491   25.5724 C   0  0  0  0  0  0  0  0  0  0  0  0
    6.4887   12.7850   26.4777 C   0  0  0  0  0  0  0  0  0  0  0  0
    5.6827   11.7378   26.9242 C   0  0  0  0  0  0  0  0  0  0  0  0
    5.9236   10.4381   26.4905 C   0  0  0  0  0  0  0  0  0  0  0  0
    6.9523   10.1829   25.5836 C   0  0  0  0  0  0  0  0  0  0  0  0
    7.7508   11.2243   25.0928 C   0  0  0  0  0  0  0  0  0  0  0  0
  1  2  1  0
  2  3  1  0
  3  4  1  0
  4  5  1  0
  5  6  1  6
  5  7  1  0
  7  8  1  0
  8  9  1  0
  9 10  1  0
 10 11  1  0
 11 12  1  6
 12 13  1  0
 11 14  1  0
  5 15  1  0
 15 16  1  0
 16 17  2  0
 17 18  1  0
 18 19  2  0
 19 20  1  0
 20 21  2  0
 21  2  1  0
 14  7  1  0
 21 16  1  0
M  END
>  <ref_pdb>  (207) 
A4721a

>  <tags>  (207) 
{'fragmenstein_placed', 'openbind_a71ev2a_c1_fragmenstein'}

>  <distance_score>  (207) 
0.951798

>  <energy_score>  (207) 
-63.560451

>  <inchikey>  (207) 
UFMKQVZXEYBDBD-UHFFFAOYSA-N

>  <alias>  (207) 
CN1NC[C@](O)(N2CCC[C@H](CF)C2)Cc2ccccc21

>  <smiles>  (207) 
C146746-P456

>  <HIPPO Pose ID>  (207) 
95947

>  <ref_mols>  (207) 
A4748a,A4752a

>  <HIPPO Compound ID>  (207) 
146746

$$$$
CSc1ccccc1C[C@@H](N=O)N1CCC[C@H]([C@@H](N)F)C1
     RDKit          3D

 21 22  0  0  0  0  0  0  0  0999 V2000
    9.2782    8.7878   23.2858 C   0  0  0  0  0  0  0  0  0  0  0  0
    9.4386   10.5449   23.6734 S   0  0  0  0  0  0  0  0  0  0  0  0
    8.0595   10.9165   24.7493 C   0  0  0  0  0  0  0  0  0  0  0  0
    7.1511    9.9350   25.1554 C   0  0  0  0  0  0  0  0  0  0  0  0
    6.0804   10.2233   26.0042 C   0  0  0  0  0  0  0  0  0  0  0  0
    5.9020   11.5142   26.4724 C   0  0  0  0  0  0  0  0  0  0  0  0
    6.7948   12.5095   26.0886 C   0  0  0  0  0  0  0  0  0  0  0  0
    7.8746   12.2315   25.2231 C   0  0  0  0  0  0  0  0  0  0  0  0
    8.7719   13.3987   24.8186 C   0  0  0  0  0  0  0  0  0  0  0  0
    8.6455   13.8804   23.3393 C   0  0  1  0  0  0  0  0  0  0  0  0
    7.1802   13.9955   22.9804 N   0  0  0  0  0  0  0  0  0  0  0  0
    6.5259   14.6346   23.8136 O   0  0  0  0  0  0  0  0  0  0  0  0
    9.4186   15.1019   23.0264 N   0  0  0  0  0  0  0  0  0  0  0  0
   10.8046   15.1152   23.4921 C   0  0  0  0  0  0  0  0  0  0  0  0
   11.7455   14.2393   22.6801 C   0  0  0  0  0  0  0  0  0  0  0  0
   11.7143   14.6532   21.2148 C   0  0  0  0  0  0  0  0  0  0  0  0
   10.2718   14.6199   20.6918 C   0  0  2  0  0  0  0  0  0  0  0  0
   10.1956   14.9777   19.2044 C   0  0  1  0  0  0  0  0  0  0  0  0
   10.5568   16.3347   18.9195 N   0  0  0  0  0  0  0  0  0  0  0  0
   11.0756   14.2025   18.5147 F   0  0  0  0  0  0  0  0  0  0  0  0
    9.3628   15.4786   21.5882 C   0  0  0  0  0  0  0  0  0  0  0  0
  1  2  1  0
  2  3  1  0
  3  4  2  0
  4  5  1  0
  5  6  2  0
  6  7  1  0
  7  8  2  0
  8  9  1  0
 10  9  1  1
 10 11  1  0
 11 12  2  0
 10 13  1  0
 13 14  1  0
 14 15  1  0
 15 16  1  0
 17 16  1  1
 17 18  1  0
 18 19  1  1
 18 20  1  0
 17 21  1  0
  8  3  1  0
 21 13  1  0
M  END
>  <ref_pdb>  (208) 
A4721a

>  <tags>  (208) 
{'fragmenstein_placed', 'openbind_a71ev2a_c1_fragmenstein'}

>  <distance_score>  (208) 
0.74866

>  <energy_score>  (208) 
-49.60358

>  <inchikey>  (208) 
QBLLUUIRPYYVNF-UHFFFAOYSA-N

>  <alias>  (208) 
CSc1ccccc1C[C@@H](N=O)N1CCC[C@H]([C@@H](N)F)C1

>  <smiles>  (208) 
C146754-P457

>  <HIPPO Pose ID>  (208) 
96039

>  <ref_mols>  (208) 
A4751a,A3564a

>  <HIPPO Compound ID>  (208) 
146754

$$$$
CSc1ccccc1C[C@](O)(c1nccn1C)N1C[C@@H]([C@@H](N)F)CCC1=O
     RDKit          3D

 27 29  0  0  0  0  0  0  0  0999 V2000
    9.5041    8.2256   23.3495 C   0  0  0  0  0  0  0  0  0  0  0  0
    9.2820    9.9790   23.1710 S   0  0  0  0  0  0  0  0  0  0  0  0
    8.0967   10.4678   24.4171 C   0  0  0  0  0  0  0  0  0  0  0  0
    7.2279    9.5891   25.0390 C   0  0  0  0  0  0  0  0  0  0  0  0
    6.2991   10.0001   25.9959 C   0  0  0  0  0  0  0  0  0  0  0  0
    6.2917   11.3153   26.4105 C   0  0  0  0  0  0  0  0  0  0  0  0
    7.1717   12.2128   25.8182 C   0  0  0  0  0  0  0  0  0  0  0  0
    8.0246   11.8213   24.7681 C   0  0  0  0  0  0  0  0  0  0  0  0
    8.8361   12.7750   23.9140 C   0  0  0  0  0  0  0  0  0  0  0  0
    9.0604   14.2152   24.2806 C   0  0  2  0  0  0  0  0  0  0  0  0
    9.8578   14.0145   25.4433 O   0  0  0  0  0  0  0  0  0  0  0  0
    7.9564   15.0556   24.8108 C   0  0  0  0  0  0  0  0  0  0  0  0
    8.0411   15.7417   25.9487 N   0  0  0  0  0  0  0  0  0  0  0  0
    6.8371   16.3326   26.1286 C   0  0  0  0  0  0  0  0  0  0  0  0
    5.9807   15.9441   25.1351 C   0  0  0  0  0  0  0  0  0  0  0  0
    6.6834   15.1072   24.3128 N   0  0  0  0  0  0  0  0  0  0  0  0
    6.2248   14.3517   23.1792 C   0  0  0  0  0  0  0  0  0  0  0  0
    9.8651   14.8590   23.2359 N   0  0  0  0  0  0  0  0  0  0  0  0
    9.3969   15.1035   21.8550 C   0  0  0  0  0  0  0  0  0  0  0  0
   10.4657   14.7317   20.8171 C   0  0  1  0  0  0  0  0  0  0  0  0
   10.1155   15.0112   19.3519 C   0  0  1  0  0  0  0  0  0  0  0  0
   10.0696   16.3938   18.9474 N   0  0  0  0  0  0  0  0  0  0  0  0
   11.0715   14.4323   18.5746 F   0  0  0  0  0  0  0  0  0  0  0  0
   11.7964   15.3630   21.1981 C   0  0  0  0  0  0  0  0  0  0  0  0
   12.1927   14.8818   22.5662 C   0  0  0  0  0  0  0  0  0  0  0  0
   11.1387   15.2239   23.5818 C   0  0  0  0  0  0  0  0  0  0  0  0
   11.4023   15.6324   24.7072 O   0  0  0  0  0  0  0  0  0  0  0  0
  1  2  1  0
  2  3  1  0
  3  4  2  0
  4  5  1  0
  5  6  2  0
  6  7  1  0
  7  8  2  0
  8  9  1  0
  9 10  1  0
 10 11  1  1
 10 12  1  0
 12 13  2  0
 13 14  1  0
 14 15  2  0
 15 16  1  0
 16 17  1  0
 10 18  1  0
 18 19  1  0
 20 19  1  1
 20 21  1  0
 21 22  1  1
 21 23  1  0
 20 24  1  0
 24 25  1  0
 25 26  1  0
 26 27  2  0
  8  3  1  0
 16 12  1  0
 26 18  1  0
M  END
>  <ref_pdb>  (209) 
A4721a

>  <tags>  (209) 
{'fragmenstein_placed', 'openbind_a71ev2a_c1_fragmenstein'}

>  <distance_score>  (209) 
0.982101

>  <energy_score>  (209) 
-15.864448

>  <inchikey>  (209) 
PZOIXPIGHIWADF-UHFFFAOYSA-N

>  <alias>  (209) 
CSc1ccccc1C[C@](O)(c1nccn1C)N1C[C@@H]([C@@H](N)F)CCC1=O

>  <smiles>  (209) 
C146975-P457

>  <HIPPO Pose ID>  (209) 
96060

>  <ref_mols>  (209) 
A4751a,A4313a

>  <HIPPO Compound ID>  (209) 
146975

$$$$
CSc1ccc(Br)cc1CC(O)(O)N1CCC[C@@H]([C@H](N)F)C1
     RDKit          3D

 22 23  0  0  0  0  0  0  0  0999 V2000
    9.0059    8.7879   23.2698 C   0  0  0  0  0  0  0  0  0  0  0  0
    9.4598   10.2934   24.1442 S   0  0  0  0  0  0  0  0  0  0  0  0
    7.9317   10.9219   24.8199 C   0  0  0  0  0  0  0  0  0  0  0  0
    6.9786   10.0192   25.3084 C   0  0  0  0  0  0  0  0  0  0  0  0
    5.8338   10.4471   25.9803 C   0  0  0  0  0  0  0  0  0  0  0  0
    5.6249   11.8051   26.1626 C   0  0  0  0  0  0  0  0  0  0  0  0
    4.1107   12.4141   27.1172 Br  0  0  0  0  0  0  0  0  0  0  0  0
    6.5451   12.7288   25.6716 C   0  0  0  0  0  0  0  0  0  0  0  0
    7.7143   12.3064   25.0026 C   0  0  0  0  0  0  0  0  0  0  0  0
    8.6929   13.3944   24.5536 C   0  0  0  0  0  0  0  0  0  0  0  0
    8.8652   13.5970   23.0175 C   0  0  0  0  0  0  0  0  0  0  0  0
    7.5731   13.5477   22.4332 O   0  0  0  0  0  0  0  0  0  0  0  0
    9.6429   12.5477   22.5272 O   0  0  0  0  0  0  0  0  0  0  0  0
    9.4836   14.8542   22.6360 N   0  0  0  0  0  0  0  0  0  0  0  0
   10.7480   15.1584   23.3005 C   0  0  0  0  0  0  0  0  0  0  0  0
   11.9571   14.4715   22.6978 C   0  0  0  0  0  0  0  0  0  0  0  0
   12.0800   14.7407   21.2065 C   0  0  0  0  0  0  0  0  0  0  0  0
   10.8900   15.4770   20.5878 C   0  0  1  0  0  0  0  0  0  0  0  0
   10.9688   15.3215   19.0615 C   0  0  2  0  0  0  0  0  0  0  0  0
    9.8913   15.9504   18.3473 N   0  0  0  0  0  0  0  0  0  0  0  0
   10.8890   14.0187   18.7099 F   0  0  0  0  0  0  0  0  0  0  0  0
    9.5390   15.0437   21.1670 C   0  0  0  0  0  0  0  0  0  0  0  0
  1  2  1  0
  2  3  1  0
  3  4  2  0
  4  5  1  0
  5  6  2  0
  6  7  1  0
  6  8  1  0
  8  9  2  0
  9 10  1  0
 10 11  1  0
 11 12  1  0
 11 13  1  0
 11 14  1  0
 14 15  1  0
 15 16  1  0
 16 17  1  0
 18 17  1  1
 18 19  1  0
 19 20  1  6
 19 21  1  0
 18 22  1  0
  9  3  1  0
 22 14  1  0
M  END
>  <ref_pdb>  (210) 
A4721a

>  <tags>  (210) 
{'fragmenstein_placed', 'openbind_a71ev2a_c1_fragmenstein'}

>  <distance_score>  (210) 
0.619176

>  <energy_score>  (210) 
-28.888149

>  <inchikey>  (210) 
DGNULVMAHZSAPG-UHFFFAOYSA-N

>  <alias>  (210) 
CSc1ccc(Br)cc1CC(O)(O)N1CCC[C@@H]([C@H](N)F)C1

>  <smiles>  (210) 
C146980-P457

>  <HIPPO Pose ID>  (210) 
96064

>  <ref_mols>  (210) 
A4751a,A4324a

>  <HIPPO Compound ID>  (210) 
146980

$$$$
CNC=N[C@@H](Cc1ccccc1SC)N1C[C@@H]([C@@H](N)F)CCC1=O
     RDKit          3D

 24 25  0  0  0  0  0  0  0  0999 V2000
    4.3103   13.8683   20.7554 C   0  0  0  0  0  0  0  0  0  0  0  0
    4.5877   13.6320   22.1356 N   0  0  0  0  0  0  0  0  0  0  0  0
    5.9456   13.7076   22.9375 C   0  0  0  0  0  0  0  0  0  0  0  0
    7.0400   14.0577   22.5863 N   0  0  0  0  0  0  0  0  0  0  0  0
    8.1448   14.3870   23.5036 C   0  0  1  0  0  0  0  0  0  0  0  0
    8.3755   13.5082   24.7826 C   0  0  0  0  0  0  0  0  0  0  0  0
    7.5525   12.2942   25.1512 C   0  0  0  0  0  0  0  0  0  0  0  0
    6.5084   12.4736   26.0861 C   0  0  0  0  0  0  0  0  0  0  0  0
    5.7195   11.4065   26.4973 C   0  0  0  0  0  0  0  0  0  0  0  0
    5.9822   10.1404   26.0019 C   0  0  0  0  0  0  0  0  0  0  0  0
    7.0409    9.9448   25.1108 C   0  0  0  0  0  0  0  0  0  0  0  0
    7.8416   11.0012   24.6693 C   0  0  0  0  0  0  0  0  0  0  0  0
    9.2416   10.7441   23.5822 S   0  0  0  0  0  0  0  0  0  0  0  0
    9.2595    8.9640   23.2427 C   0  0  0  0  0  0  0  0  0  0  0  0
    9.3798   14.5405   22.7120 N   0  0  0  0  0  0  0  0  0  0  0  0
    9.2418   15.1014   21.3570 C   0  0  0  0  0  0  0  0  0  0  0  0
   10.4625   14.7794   20.5148 C   0  0  1  0  0  0  0  0  0  0  0  0
   10.3243   15.1340   19.0429 C   0  0  1  0  0  0  0  0  0  0  0  0
   10.1700   16.5333   18.7429 N   0  0  0  0  0  0  0  0  0  0  0  0
   11.4574   14.7338   18.4098 F   0  0  0  0  0  0  0  0  0  0  0  0
   11.6961   15.3531   21.1929 C   0  0  0  0  0  0  0  0  0  0  0  0
   11.8252   14.7023   22.5518 C   0  0  0  0  0  0  0  0  0  0  0  0
   10.5695   14.8657   23.3832 C   0  0  0  0  0  0  0  0  0  0  0  0
   10.6557   15.1424   24.5802 O   0  0  0  0  0  0  0  0  0  0  0  0
  1  2  1  0
  2  3  1  0
  3  4  2  3
  4  5  1  0
  5  6  1  1
  6  7  1  0
  7  8  2  0
  8  9  1  0
  9 10  2  0
 10 11  1  0
 11 12  2  0
 12 13  1  0
 13 14  1  0
  5 15  1  0
 15 16  1  0
 17 16  1  1
 17 18  1  0
 18 19  1  1
 18 20  1  0
 17 21  1  0
 21 22  1  0
 22 23  1  0
 23 24  2  0
 12  7  1  0
 23 15  1  0
M  END
>  <ref_pdb>  (211) 
A4721a

>  <tags>  (211) 
{'fragmenstein_placed', 'openbind_a71ev2a_c1_fragmenstein'}

>  <distance_score>  (211) 
0.731708

>  <energy_score>  (211) 
-14.376717

>  <inchikey>  (211) 
SDHZANYRAZLTEC-UHFFFAOYSA-N

>  <alias>  (211) 
CNC=N[C@@H](Cc1ccccc1SC)N1C[C@@H]([C@@H](N)F)CCC1=O

>  <smiles>  (211) 
C146994-P457

>  <HIPPO Pose ID>  (211) 
96076

>  <ref_mols>  (211) 
A4751a,A4381a

>  <HIPPO Compound ID>  (211) 
146994

$$$$
CSc1ccccc1C[C@@](O)(N1CCc2nccc(O)c2C1)N1CC(O)C1
     RDKit          3D

 27 30  0  0  0  0  0  0  0  0999 V2000
    9.0744    8.5522   23.3516 C   0  0  0  0  0  0  0  0  0  0  0  0
    9.2515   10.2758   23.8634 S   0  0  0  0  0  0  0  0  0  0  0  0
    7.9213   10.5863   25.0254 C   0  0  0  0  0  0  0  0  0  0  0  0
    7.1694    9.5564   25.5755 C   0  0  0  0  0  0  0  0  0  0  0  0
    6.1547    9.8023   26.5071 C   0  0  0  0  0  0  0  0  0  0  0  0
    5.8995   11.0848   26.9491 C   0  0  0  0  0  0  0  0  0  0  0  0
    6.6511   12.1241   26.4374 C   0  0  0  0  0  0  0  0  0  0  0  0
    7.6415   11.8967   25.4661 C   0  0  0  0  0  0  0  0  0  0  0  0
    8.4066   13.0977   24.9599 C   0  0  0  0  0  0  0  0  0  0  0  0
    7.8706   13.7611   23.6255 C   0  0  1  0  0  0  0  0  0  0  0  0
    7.5593   12.7343   22.7075 O   0  0  0  0  0  0  0  0  0  0  0  0
    6.6054   14.4395   23.8974 N   0  0  0  0  0  0  0  0  0  0  0  0
    6.4577   15.4212   24.9638 C   0  0  0  0  0  0  0  0  0  0  0  0
    5.0698   15.3355   25.5958 C   0  0  0  0  0  0  0  0  0  0  0  0
    3.9844   15.1500   24.5796 C   0  0  0  0  0  0  0  0  0  0  0  0
    2.7215   15.1747   25.0776 N   0  0  0  0  0  0  0  0  0  0  0  0
    1.7170   15.0350   24.2007 C   0  0  0  0  0  0  0  0  0  0  0  0
    1.9010   14.8748   22.8400 C   0  0  0  0  0  0  0  0  0  0  0  0
    3.2057   14.8486   22.3591 C   0  0  0  0  0  0  0  0  0  0  0  0
    3.4190   14.7855   21.0108 O   0  0  0  0  0  0  0  0  0  0  0  0
    4.2887   14.9458   23.2297 C   0  0  0  0  0  0  0  0  0  0  0  0
    5.7356   14.8330   22.7765 C   0  0  0  0  0  0  0  0  0  0  0  0
    8.9843   14.5902   23.1594 N   0  0  0  0  0  0  0  0  0  0  0  0
   10.2210   13.8215   22.8685 C   0  0  0  0  0  0  0  0  0  0  0  0
   10.4594   14.6601   21.6142 C   0  0  0  0  0  0  0  0  0  0  0  0
   11.5059   15.6577   21.6983 O   0  0  0  0  0  0  0  0  0  0  0  0
    8.9578   15.0553   21.7606 C   0  0  0  0  0  0  0  0  0  0  0  0
  1  2  1  0
  2  3  1  0
  3  4  2  0
  4  5  1  0
  5  6  2  0
  6  7  1  0
  7  8  2  0
  8  9  1  0
  9 10  1  0
 10 11  1  6
 10 12  1  0
 12 13  1  0
 13 14  1  0
 14 15  1  0
 15 16  2  0
 16 17  1  0
 17 18  2  0
 18 19  1  0
 19 20  1  0
 19 21  2  0
 21 22  1  0
 10 23  1  0
 23 24  1  0
 24 25  1  0
 25 26  1  0
 25 27  1  0
  8  3  1  0
 22 12  1  0
 27 23  1  0
 21 15  1  0
M  END
>  <ref_pdb>  (212) 
A4721a

>  <tags>  (212) 
{'fragmenstein_placed', 'openbind_a71ev2a_c1_fragmenstein'}

>  <distance_score>  (212) 
0.877009

>  <energy_score>  (212) 
-68.911515

>  <inchikey>  (212) 
XUMJFNBFJWTOOR-UHFFFAOYSA-N

>  <alias>  (212) 
CSc1ccccc1C[C@@](O)(N1CCc2nccc(O)c2C1)N1CC(O)C1

>  <smiles>  (212) 
C147247-P458

>  <HIPPO Pose ID>  (212) 
96258

>  <ref_mols>  (212) 
A4752a,A3186a

>  <HIPPO Compound ID>  (212) 
147247

$$$$
CSc1ccccc1CC(O)(O)N1CCc2nccc(O)c2C1=O
     RDKit          3D

 24 26  0  0  0  0  0  0  0  0999 V2000
    9.1540    8.6961   23.2673 C   0  0  0  0  0  0  0  0  0  0  0  0
    9.3828   10.4406   23.7025 S   0  0  0  0  0  0  0  0  0  0  0  0
    8.1077   10.8011   24.9003 C   0  0  0  0  0  0  0  0  0  0  0  0
    7.3649    9.7842   25.5075 C   0  0  0  0  0  0  0  0  0  0  0  0
    6.4198   10.0594   26.4975 C   0  0  0  0  0  0  0  0  0  0  0  0
    6.2339   11.3569   26.9370 C   0  0  0  0  0  0  0  0  0  0  0  0
    6.9756   12.3791   26.3594 C   0  0  0  0  0  0  0  0  0  0  0  0
    7.8845   12.1318   25.3126 C   0  0  0  0  0  0  0  0  0  0  0  0
    8.5649   13.3242   24.6617 C   0  0  0  0  0  0  0  0  0  0  0  0
    7.7889   13.9121   23.4539 C   0  0  0  0  0  0  0  0  0  0  0  0
    7.6502   12.9494   22.4519 O   0  0  0  0  0  0  0  0  0  0  0  0
    8.5741   14.8800   22.8157 O   0  0  0  0  0  0  0  0  0  0  0  0
    6.4655   14.4711   23.7634 N   0  0  0  0  0  0  0  0  0  0  0  0
    6.2935   15.4093   24.8630 C   0  0  0  0  0  0  0  0  0  0  0  0
    4.9879   15.1829   25.6096 C   0  0  0  0  0  0  0  0  0  0  0  0
    3.8484   15.1247   24.6476 C   0  0  0  0  0  0  0  0  0  0  0  0
    2.6116   15.3158   25.1779 N   0  0  0  0  0  0  0  0  0  0  0  0
    1.5702   15.2803   24.3249 C   0  0  0  0  0  0  0  0  0  0  0  0
    1.6986   15.0794   22.9621 C   0  0  0  0  0  0  0  0  0  0  0  0
    2.9729   14.8780   22.4504 C   0  0  0  0  0  0  0  0  0  0  0  0
    3.0779   14.7564   21.0910 O   0  0  0  0  0  0  0  0  0  0  0  0
    4.0758   14.8647   23.3011 C   0  0  0  0  0  0  0  0  0  0  0  0
    5.4315   14.4939   22.8229 C   0  0  0  0  0  0  0  0  0  0  0  0
    5.5558   14.1230   21.6535 O   0  0  0  0  0  0  0  0  0  0  0  0
  1  2  1  0
  2  3  1  0
  3  4  2  0
  4  5  1  0
  5  6  2  0
  6  7  1  0
  7  8  2  0
  8  9  1  0
  9 10  1  0
 10 11  1  0
 10 12  1  0
 10 13  1  0
 13 14  1  0
 14 15  1  0
 15 16  1  0
 16 17  2  0
 17 18  1  0
 18 19  2  0
 19 20  1  0
 20 21  1  0
 20 22  2  0
 22 23  1  0
 23 24  2  0
  8  3  1  0
 23 13  1  0
 22 16  1  0
M  END
>  <ref_pdb>  (213) 
A4721a

>  <tags>  (213) 
{'fragmenstein_placed', 'openbind_a71ev2a_c1_fragmenstein'}

>  <distance_score>  (213) 
0.628862

>  <energy_score>  (213) 
-54.361047

>  <inchikey>  (213) 
SDACINWTWMUFBU-UHFFFAOYSA-N

>  <alias>  (213) 
CSc1ccccc1CC(O)(O)N1CCc2nccc(O)c2C1=O

>  <smiles>  (213) 
C147248-P458

>  <HIPPO Pose ID>  (213) 
96259

>  <ref_mols>  (213) 
A4752a,A3188a

>  <HIPPO Compound ID>  (213) 
147248

$$$$
CSc1ccccc1C[C@@](O)(N1CCc2nccc(O)c2C1)N1CCC[C@H](S(N)(=O)=O)C1
     RDKit          3D

 32 35  0  0  0  0  0  0  0  0999 V2000
    9.0536    8.5778   23.3529 C   0  0  0  0  0  0  0  0  0  0  0  0
    9.1791   10.3141   23.8529 S   0  0  0  0  0  0  0  0  0  0  0  0
    7.8356   10.5914   25.0186 C   0  0  0  0  0  0  0  0  0  0  0  0
    7.1206    9.5475   25.5856 C   0  0  0  0  0  0  0  0  0  0  0  0
    6.1127    9.7799   26.5282 C   0  0  0  0  0  0  0  0  0  0  0  0
    5.8342   11.0594   26.9665 C   0  0  0  0  0  0  0  0  0  0  0  0
    6.5525   12.1127   26.4379 C   0  0  0  0  0  0  0  0  0  0  0  0
    7.5255   11.9007   25.4494 C   0  0  0  0  0  0  0  0  0  0  0  0
    8.3035   13.0999   24.9650 C   0  0  0  0  0  0  0  0  0  0  0  0
    7.9009   13.7534   23.5676 C   0  0  1  0  0  0  0  0  0  0  0  0
    7.6647   12.7313   22.6167 O   0  0  0  0  0  0  0  0  0  0  0  0
    6.6447   14.4673   23.7936 N   0  0  0  0  0  0  0  0  0  0  0  0
    6.4631   15.4685   24.8309 C   0  0  0  0  0  0  0  0  0  0  0  0
    5.1002   15.3413   25.5036 C   0  0  0  0  0  0  0  0  0  0  0  0
    3.9968   15.1207   24.5176 C   0  0  0  0  0  0  0  0  0  0  0  0
    2.7440   15.1913   25.0409 N   0  0  0  0  0  0  0  0  0  0  0  0
    1.7191   15.0795   24.1836 C   0  0  0  0  0  0  0  0  0  0  0  0
    1.8791   14.9165   22.8230 C   0  0  0  0  0  0  0  0  0  0  0  0
    3.1723   14.8347   22.3195 C   0  0  0  0  0  0  0  0  0  0  0  0
    3.2707   14.7797   20.9580 O   0  0  0  0  0  0  0  0  0  0  0  0
    4.2777   14.8818   23.1676 C   0  0  0  0  0  0  0  0  0  0  0  0
    5.7174   14.7260   22.6964 C   0  0  0  0  0  0  0  0  0  0  0  0
    9.0449   14.5549   23.0494 N   0  0  0  0  0  0  0  0  0  0  0  0
   10.3592   13.8926   23.1719 C   0  0  0  0  0  0  0  0  0  0  0  0
   11.5603   14.7322   22.7691 C   0  0  0  0  0  0  0  0  0  0  0  0
   11.4035   15.4523   21.4562 C   0  0  0  0  0  0  0  0  0  0  0  0
   10.1276   15.0322   20.7569 C   0  0  2  0  0  0  0  0  0  0  0  0
    9.8651   15.9412   19.1826 S   0  0  0  0  0  0  0  0  0  0  0  0
   11.2284   15.5474   18.3077 N   0  0  0  0  0  0  0  0  0  0  0  0
    8.8327   15.4236   18.3388 O   0  0  0  0  0  0  0  0  0  0  0  0
    9.8114   17.3480   19.4492 O   0  0  0  0  0  0  0  0  0  0  0  0
    8.8754   15.1044   21.6650 C   0  0  0  0  0  0  0  0  0  0  0  0
  1  2  1  0
  2  3  1  0
  3  4  2  0
  4  5  1  0
  5  6  2  0
  6  7  1  0
  7  8  2  0
  8  9  1  0
  9 10  1  0
 10 11  1  6
 10 12  1  0
 12 13  1  0
 13 14  1  0
 14 15  1  0
 15 16  2  0
 16 17  1  0
 17 18  2  0
 18 19  1  0
 19 20  1  0
 19 21  2  0
 21 22  1  0
 10 23  1  0
 23 24  1  0
 24 25  1  0
 25 26  1  0
 26 27  1  0
 27 28  1  6
 28 29  1  0
 28 30  2  0
 28 31  2  0
 27 32  1  0
  8  3  1  0
 22 12  1  0
 32 23  1  0
 21 15  1  0
M  END
>  <ref_pdb>  (214) 
A4721a

>  <tags>  (214) 
{'fragmenstein_placed', 'openbind_a71ev2a_c1_fragmenstein'}

>  <distance_score>  (214) 
0.765506

>  <energy_score>  (214) 
-64.576641

>  <inchikey>  (214) 
DQTZBOLCJXAMAV-UHFFFAOYSA-N

>  <alias>  (214) 
CSc1ccccc1C[C@@](O)(N1CCc2nccc(O)c2C1)N1CCC[C@H](S(N)(=O)=O)C1

>  <smiles>  (214) 
C145997-P458

>  <HIPPO Pose ID>  (214) 
96265

>  <ref_mols>  (214) 
A3207a,A4752a

>  <HIPPO Compound ID>  (214) 
145997

$$$$
CSc1ccccc1C[C@](O)(N1CCc2nccc(O)c2C1)N1CCC[C@H](C(F)F)C1
     RDKit          3D

 31 34  0  0  0  0  0  0  0  0999 V2000
    9.1134    8.3005   23.2418 C   0  0  0  0  0  0  0  0  0  0  0  0
    9.4096    9.9743   23.8154 S   0  0  0  0  0  0  0  0  0  0  0  0
    7.9880   10.3285   24.8300 C   0  0  0  0  0  0  0  0  0  0  0  0
    7.4787    9.4029   25.7219 C   0  0  0  0  0  0  0  0  0  0  0  0
    6.4723    9.7266   26.6433 C   0  0  0  0  0  0  0  0  0  0  0  0
    5.9080   10.9771   26.6556 C   0  0  0  0  0  0  0  0  0  0  0  0
    6.3432   11.8796   25.7133 C   0  0  0  0  0  0  0  0  0  0  0  0
    7.3920   11.5849   24.8161 C   0  0  0  0  0  0  0  0  0  0  0  0
    7.7885   12.6029   23.7859 C   0  0  0  0  0  0  0  0  0  0  0  0
    8.1237   14.0097   24.2962 C   0  0  2  0  0  0  0  0  0  0  0  0
    8.6887   13.9117   25.6095 O   0  0  0  0  0  0  0  0  0  0  0  0
    6.8903   14.7795   24.4073 N   0  0  0  0  0  0  0  0  0  0  0  0
    6.6002   15.6182   25.5601 C   0  0  0  0  0  0  0  0  0  0  0  0
    5.1990   15.3765   26.1166 C   0  0  0  0  0  0  0  0  0  0  0  0
    4.1661   15.1284   25.0536 C   0  0  0  0  0  0  0  0  0  0  0  0
    2.8927   14.9991   25.5123 N   0  0  0  0  0  0  0  0  0  0  0  0
    1.9196   14.8290   24.6003 C   0  0  0  0  0  0  0  0  0  0  0  0
    2.1484   14.8012   23.2413 C   0  0  0  0  0  0  0  0  0  0  0  0
    3.4595   14.9252   22.7983 C   0  0  0  0  0  0  0  0  0  0  0  0
    3.6147   14.9829   21.4399 O   0  0  0  0  0  0  0  0  0  0  0  0
    4.5211   15.0344   23.7034 C   0  0  0  0  0  0  0  0  0  0  0  0
    5.9855   15.0647   23.2967 C   0  0  0  0  0  0  0  0  0  0  0  0
    9.2106   14.5039   23.4378 N   0  0  0  0  0  0  0  0  0  0  0  0
   10.5574   14.0748   23.8550 C   0  0  0  0  0  0  0  0  0  0  0  0
   11.6745   13.9834   22.8243 C   0  0  0  0  0  0  0  0  0  0  0  0
   11.5407   15.0225   21.7397 C   0  0  0  0  0  0  0  0  0  0  0  0
   10.1863   14.7811   21.0993 C   0  0  2  0  0  0  0  0  0  0  0  0
    9.9805   15.6405   19.8658 C   0  0  0  0  0  0  0  0  0  0  0  0
   10.9911   15.4210   18.9953 F   0  0  0  0  0  0  0  0  0  0  0  0
    9.9429   16.9486   20.2059 F   0  0  0  0  0  0  0  0  0  0  0  0
    8.9851   14.8807   22.0500 C   0  0  0  0  0  0  0  0  0  0  0  0
  1  2  1  0
  2  3  1  0
  3  4  2  0
  4  5  1  0
  5  6  2  0
  6  7  1  0
  7  8  2  0
  8  9  1  0
  9 10  1  0
 10 11  1  1
 10 12  1  0
 12 13  1  0
 13 14  1  0
 14 15  1  0
 15 16  2  0
 16 17  1  0
 17 18  2  0
 18 19  1  0
 19 20  1  0
 19 21  2  0
 21 22  1  0
 10 23  1  0
 23 24  1  0
 24 25  1  0
 25 26  1  0
 26 27  1  0
 27 28  1  6
 28 29  1  0
 28 30  1  0
 27 31  1  0
  8  3  1  0
 22 12  1  0
 31 23  1  0
 21 15  1  0
M  END
>  <ref_pdb>  (215) 
A4721a

>  <tags>  (215) 
{'fragmenstein_placed', 'openbind_a71ev2a_c1_fragmenstein'}

>  <distance_score>  (215) 
0.910021

>  <energy_score>  (215) 
-45.748163

>  <inchikey>  (215) 
MHQFRAYZEAVYBY-UHFFFAOYSA-N

>  <alias>  (215) 
CSc1ccccc1C[C@](O)(N1CCc2nccc(O)c2C1)N1CCC[C@H](C(F)F)C1

>  <smiles>  (215) 
C146309-P458

>  <HIPPO Pose ID>  (215) 
96266

>  <ref_mols>  (215) 
A4752a,A3208a

>  <HIPPO Compound ID>  (215) 
146309

$$$$
CSc1ccccc1C[C@@](O)(N1CCc2nccc(O)c2C1)N1CCC[C@@H](CF)C1
     RDKit          3D

 30 33  0  0  0  0  0  0  0  0999 V2000
    9.0341    8.6375   23.3779 C   0  0  0  0  0  0  0  0  0  0  0  0
    9.2085   10.3452   23.9521 S   0  0  0  0  0  0  0  0  0  0  0  0
    7.8448   10.6288   25.0873 C   0  0  0  0  0  0  0  0  0  0  0  0
    7.1112    9.5771   25.6190 C   0  0  0  0  0  0  0  0  0  0  0  0
    6.0830    9.7930   26.5429 C   0  0  0  0  0  0  0  0  0  0  0  0
    5.7925   11.0654   26.9940 C   0  0  0  0  0  0  0  0  0  0  0  0
    6.5185   12.1286   26.4960 C   0  0  0  0  0  0  0  0  0  0  0  0
    7.5231   11.9316   25.5339 C   0  0  0  0  0  0  0  0  0  0  0  0
    8.2760   13.1546   25.0610 C   0  0  0  0  0  0  0  0  0  0  0  0
    7.8447   13.7737   23.6518 C   0  0  1  0  0  0  0  0  0  0  0  0
    7.4988   12.7025   22.7965 O   0  0  0  0  0  0  0  0  0  0  0  0
    6.5960   14.5074   23.8642 N   0  0  0  0  0  0  0  0  0  0  0  0
    6.4314   15.5225   24.8918 C   0  0  0  0  0  0  0  0  0  0  0  0
    5.0591   15.4205   25.5511 C   0  0  0  0  0  0  0  0  0  0  0  0
    3.9646   15.1851   24.5561 C   0  0  0  0  0  0  0  0  0  0  0  0
    2.7059   15.2243   25.0637 N   0  0  0  0  0  0  0  0  0  0  0  0
    1.6956   15.0609   24.1969 C   0  0  0  0  0  0  0  0  0  0  0  0
    1.8699   14.8733   22.8382 C   0  0  0  0  0  0  0  0  0  0  0  0
    3.1706   14.8342   22.3497 C   0  0  0  0  0  0  0  0  0  0  0  0
    3.3751   14.7556   21.0010 O   0  0  0  0  0  0  0  0  0  0  0  0
    4.2586   14.9438   23.2104 C   0  0  0  0  0  0  0  0  0  0  0  0
    5.6995   14.8194   22.7434 C   0  0  0  0  0  0  0  0  0  0  0  0
    8.9705   14.5464   23.0422 N   0  0  0  0  0  0  0  0  0  0  0  0
   10.3100   14.0054   23.3750 C   0  0  0  0  0  0  0  0  0  0  0  0
   11.4584   14.1569   22.3844 C   0  0  0  0  0  0  0  0  0  0  0  0
   11.3849   15.3836   21.5202 C   0  0  0  0  0  0  0  0  0  0  0  0
    9.9706   15.6497   20.9786 C   0  0  1  0  0  0  0  0  0  0  0  0
    9.9863   15.6987   19.4403 C   0  0  0  0  0  0  0  0  0  0  0  0
   10.8820   14.8042   18.9469 F   0  0  0  0  0  0  0  0  0  0  0  0
    8.9075   14.6833   21.5756 C   0  0  0  0  0  0  0  0  0  0  0  0
  1  2  1  0
  2  3  1  0
  3  4  2  0
  4  5  1  0
  5  6  2  0
  6  7  1  0
  7  8  2  0
  8  9  1  0
  9 10  1  0
 10 11  1  6
 10 12  1  0
 12 13  1  0
 13 14  1  0
 14 15  1  0
 15 16  2  0
 16 17  1  0
 17 18  2  0
 18 19  1  0
 19 20  1  0
 19 21  2  0
 21 22  1  0
 10 23  1  0
 23 24  1  0
 24 25  1  0
 25 26  1  0
 26 27  1  0
 27 28  1  6
 28 29  1  0
 27 30  1  0
  8  3  1  0
 22 12  1  0
 30 23  1  0
 21 15  1  0
M  END
>  <ref_pdb>  (216) 
A4721a

>  <tags>  (216) 
{'fragmenstein_placed', 'openbind_a71ev2a_c1_fragmenstein'}

>  <distance_score>  (216) 
0.738351

>  <energy_score>  (216) 
-56.670637

>  <inchikey>  (216) 
MCFJGPMGCQZSPL-UHFFFAOYSA-N

>  <alias>  (216) 
CSc1ccccc1C[C@@](O)(N1CCc2nccc(O)c2C1)N1CCC[C@@H](CF)C1

>  <smiles>  (216) 
C146932-P458

>  <HIPPO Pose ID>  (216) 
96267

>  <ref_mols>  (216) 
A4752a,A3218a

>  <HIPPO Compound ID>  (216) 
146932

$$$$
CCOCCC[C@@H](C)C(F)(F)F
     RDKit          3D

 12 11  0  0  0  0  0  0  0  0999 V2000
    5.4008   11.2329   26.7700 C   0  0  0  0  0  0  0  0  0  0  0  0
    6.3347   10.1010   26.3877 C   0  0  0  0  0  0  0  0  0  0  0  0
    6.8521   10.2062   25.0737 O   0  0  0  0  0  0  0  0  0  0  0  0
    8.0577   10.9407   24.9065 C   0  0  0  0  0  0  0  0  0  0  0  0
    7.9184   12.3795   25.3769 C   0  0  0  0  0  0  0  0  0  0  0  0
    9.0072   13.3232   24.8908 C   0  0  0  0  0  0  0  0  0  0  0  0
    9.0030   13.6233   23.3816 C   0  0  1  0  0  0  0  0  0  0  0  0
    7.6271   14.0197   22.8477 C   0  0  0  0  0  0  0  0  0  0  0  0
    9.9963   14.7423   23.0950 C   0  0  0  0  0  0  0  0  0  0  0  0
   11.2276   14.4218   23.5523 F   0  0  0  0  0  0  0  0  0  0  0  0
   10.0846   14.9973   21.7762 F   0  0  0  0  0  0  0  0  0  0  0  0
    9.6326   15.8898   23.7154 F   0  0  0  0  0  0  0  0  0  0  0  0
  1  2  1  0
  2  3  1  0
  3  4  1  0
  4  5  1  0
  5  6  1  0
  6  7  1  0
  7  8  1  1
  7  9  1  0
  9 10  1  0
  9 11  1  0
  9 12  1  0
M  END
>  <ref_pdb>  (217) 
A4721a

>  <tags>  (217) 
{'fragmenstein_placed', 'openbind_a71ev2a_c1_fragmenstein'}

>  <distance_score>  (217) 
0.740835

>  <energy_score>  (217) 
-9.262796

>  <inchikey>  (217) 
QDCKVDNVBDQFNM-UHFFFAOYSA-N

>  <alias>  (217) 
CCOCCC[C@@H](C)C(F)(F)F

>  <smiles>  (217) 
C148261-P461

>  <HIPPO Pose ID>  (217) 
96790

>  <ref_mols>  (217) 
A4032a,A4774a

>  <HIPPO Compound ID>  (217) 
148261

$$$$
CSc1ccccc1C[C@@](O)(N1CCc2nccc(O)c2C1)N1CCC[C@@H](O)C1
     RDKit          3D

 29 32  0  0  0  0  0  0  0  0999 V2000
    9.1794    8.4846   23.2729 C   0  0  0  0  0  0  0  0  0  0  0  0
    9.2909   10.2311   23.5873 S   0  0  0  0  0  0  0  0  0  0  0  0
    7.9627   10.6151   24.7363 C   0  0  0  0  0  0  0  0  0  0  0  0
    7.0920    9.6760   25.2689 C   0  0  0  0  0  0  0  0  0  0  0  0
    6.1196   10.0349   26.2064 C   0  0  0  0  0  0  0  0  0  0  0  0
    6.0403   11.3391   26.6632 C   0  0  0  0  0  0  0  0  0  0  0  0
    6.8994   12.2937   26.1368 C   0  0  0  0  0  0  0  0  0  0  0  0
    7.8173   11.9584   25.1328 C   0  0  0  0  0  0  0  0  0  0  0  0
    8.6712   12.9697   24.4074 C   0  0  0  0  0  0  0  0  0  0  0  0
    8.6077   14.4797   24.6705 C   0  0  1  0  0  0  0  0  0  0  0  0
    9.1686   14.6471   25.9704 O   0  0  0  0  0  0  0  0  0  0  0  0
    9.5158   15.1616   23.7427 N   0  0  0  0  0  0  0  0  0  0  0  0
   10.9349   14.7450   23.7650 C   0  0  0  0  0  0  0  0  0  0  0  0
   11.4399   13.9313   22.5694 C   0  0  0  0  0  0  0  0  0  0  0  0
   11.1343   14.6671   21.3033 C   0  0  0  0  0  0  0  0  0  0  0  0
   11.9010   14.4590   20.2164 N   0  0  0  0  0  0  0  0  0  0  0  0
   11.4769   15.0107   19.0585 C   0  0  0  0  0  0  0  0  0  0  0  0
   10.4441   15.9204   18.9785 C   0  0  0  0  0  0  0  0  0  0  0  0
    9.7853   16.2235   20.1537 C   0  0  0  0  0  0  0  0  0  0  0  0
    8.9363   17.2818   20.2512 O   0  0  0  0  0  0  0  0  0  0  0  0
   10.0122   15.4721   21.2887 C   0  0  0  0  0  0  0  0  0  0  0  0
    8.9886   15.3196   22.3711 C   0  0  0  0  0  0  0  0  0  0  0  0
    7.2877   15.0866   24.6821 N   0  0  0  0  0  0  0  0  0  0  0  0
    6.9377   16.0892   25.6734 C   0  0  0  0  0  0  0  0  0  0  0  0
    5.6281   16.8090   25.3568 C   0  0  0  0  0  0  0  0  0  0  0  0
    4.4598   15.8509   25.2328 C   0  0  0  0  0  0  0  0  0  0  0  0
    4.8349   14.6221   24.4126 C   0  0  1  0  0  0  0  0  0  0  0  0
    3.8259   14.4147   23.4218 O   0  0  0  0  0  0  0  0  0  0  0  0
    6.2321   14.7140   23.7504 C   0  0  0  0  0  0  0  0  0  0  0  0
  1  2  1  0
  2  3  1  0
  3  4  2  0
  4  5  1  0
  5  6  2  0
  6  7  1  0
  7  8  2  0
  8  9  1  0
  9 10  1  0
 10 11  1  1
 10 12  1  0
 12 13  1  0
 13 14  1  0
 14 15  1  0
 15 16  2  0
 16 17  1  0
 17 18  2  0
 18 19  1  0
 19 20  1  0
 19 21  2  0
 21 22  1  0
 10 23  1  0
 23 24  1  0
 24 25  1  0
 25 26  1  0
 26 27  1  0
 27 28  1  6
 27 29  1  0
  8  3  1  0
 22 12  1  0
 29 23  1  0
 21 15  1  0
M  END
>  <ref_pdb>  (218) 
A4791a

>  <tags>  (218) 
{'fragmenstein_placed', 'openbind_a71ev2a_c1_fragmenstein'}

>  <distance_score>  (218) 
0.951147

>  <energy_score>  (218) 
-42.495513

>  <inchikey>  (218) 
KEBCBYAFIMRJNC-UHFFFAOYSA-N

>  <alias>  (218) 
CSc1ccccc1C[C@@](O)(N1CCc2nccc(O)c2C1)N1CCC[C@@H](O)C1

>  <smiles>  (218) 
C147255-P467

>  <HIPPO Pose ID>  (218) 
97924

>  <ref_mols>  (218) 
A4794a,A4695a

>  <HIPPO Compound ID>  (218) 
147255

$$$$
CSc1ccccc1C1=C[C@H]2N(CC[C@]2(O)c2cnn[nH]2)C1=O
     RDKit          3D

 23 26  0  0  0  0  0  0  0  0999 V2000
    9.5278    9.1334   23.1571 C   0  0  0  0  0  0  0  0  0  0  0  0
    9.5348   10.8555   23.6323 S   0  0  0  0  0  0  0  0  0  0  0  0
    8.1018   11.0868   24.6835 C   0  0  0  0  0  0  0  0  0  0  0  0
    7.5003   10.0476   25.3943 C   0  0  0  0  0  0  0  0  0  0  0  0
    6.4603   10.2949   26.2963 C   0  0  0  0  0  0  0  0  0  0  0  0
    6.0048   11.5897   26.5025 C   0  0  0  0  0  0  0  0  0  0  0  0
    6.5761   12.6371   25.7913 C   0  0  0  0  0  0  0  0  0  0  0  0
    7.6137   12.3962   24.8804 C   0  0  0  0  0  0  0  0  0  0  0  0
    8.2749   13.5498   24.2847 C   0  0  0  0  0  0  0  0  0  0  0  0
    8.4690   13.8518   22.9892 C   0  0  0  0  0  0  0  0  0  0  0  0
    9.4705   14.9390   22.7994 C   0  0  1  0  0  0  0  0  0  0  0  0
    9.8578   15.1876   24.1659 N   0  0  0  0  0  0  0  0  0  0  0  0
   11.2817   15.2726   24.3069 C   0  0  0  0  0  0  0  0  0  0  0  0
   11.7698   15.5783   22.9003 C   0  0  0  0  0  0  0  0  0  0  0  0
   10.8266   14.7130   22.0558 C   0  0  1  0  0  0  0  0  0  0  0  0
   11.3325   13.3828   22.1343 O   0  0  0  0  0  0  0  0  0  0  0  0
   10.8293   15.1167   20.6409 C   0  0  0  0  0  0  0  0  0  0  0  0
   10.1214   16.0496   19.9212 C   0  0  0  0  0  0  0  0  0  0  0  0
   10.4676   15.9703   18.6089 N   0  0  0  0  0  0  0  0  0  0  0  0
   11.4258   15.0614   18.4955 N   0  0  0  0  0  0  0  0  0  0  0  0
   11.7028   14.6112   19.7207 N   0  0  0  0  0  0  0  0  0  0  0  0
    9.1653   14.4248   25.0685 C   0  0  0  0  0  0  0  0  0  0  0  0
    9.3259   14.3977   26.2752 O   0  0  0  0  0  0  0  0  0  0  0  0
  1  2  1  0
  2  3  1  0
  3  4  2  0
  4  5  1  0
  5  6  2  0
  6  7  1  0
  7  8  2  0
  8  9  1  0
  9 10  2  0
 11 10  1  1
 11 12  1  0
 12 13  1  0
 13 14  1  0
 14 15  1  0
 15 16  1  6
 15 17  1  0
 17 18  2  0
 18 19  1  0
 19 20  2  0
 20 21  1  0
 12 22  1  0
 22 23  2  0
  8  3  1  0
 22  9  1  0
 15 11  1  0
 21 17  1  0
M  END
>  <ref_pdb>  (219) 
A4791a

>  <tags>  (219) 
{'fragmenstein_placed', 'openbind_a71ev2a_c1_fragmenstein'}

>  <distance_score>  (219) 
0.89747

>  <energy_score>  (219) 
-49.162644

>  <inchikey>  (219) 
OAZGZFZJSHMQAF-UHFFFAOYSA-N

>  <alias>  (219) 
CSc1ccccc1C1=C[C@H]2N(CC[C@]2(O)c2cnn[nH]2)C1=O

>  <smiles>  (219) 
C181196-P468

>  <HIPPO Pose ID>  (219) 
98028

>  <ref_mols>  (219) 
A4798a,A3280a

>  <HIPPO Compound ID>  (219) 
181196

$$$$
CSc1ccccc1C1=C[C@H]2N(CC[C@]2(O)c2cn(O)nn2)C1=O
     RDKit          3D

 24 27  0  0  0  0  0  0  0  0999 V2000
    9.4698    9.2740   23.2188 C   0  0  0  0  0  0  0  0  0  0  0  0
    9.4546   10.9962   23.7085 S   0  0  0  0  0  0  0  0  0  0  0  0
    7.9985   11.2153   24.7349 C   0  0  0  0  0  0  0  0  0  0  0  0
    7.4250   10.1651   25.4541 C   0  0  0  0  0  0  0  0  0  0  0  0
    6.3687   10.3917   26.3416 C   0  0  0  0  0  0  0  0  0  0  0  0
    5.8602   11.6746   26.5127 C   0  0  0  0  0  0  0  0  0  0  0  0
    6.4036   12.7342   25.7922 C   0  0  0  0  0  0  0  0  0  0  0  0
    7.4710   12.5166   24.9091 C   0  0  0  0  0  0  0  0  0  0  0  0
    8.1621   13.6737   24.3479 C   0  0  0  0  0  0  0  0  0  0  0  0
    8.4217   13.9653   23.0610 C   0  0  0  0  0  0  0  0  0  0  0  0
    9.5183   14.9673   22.9120 C   0  0  1  0  0  0  0  0  0  0  0  0
    9.8655   15.1997   24.2933 N   0  0  0  0  0  0  0  0  0  0  0  0
   11.2869   15.1884   24.4869 C   0  0  0  0  0  0  0  0  0  0  0  0
   11.8434   15.4387   23.0945 C   0  0  0  0  0  0  0  0  0  0  0  0
   10.8858   14.6217   22.2200 C   0  0  1  0  0  0  0  0  0  0  0  0
   11.2585   13.2510   22.3949 O   0  0  0  0  0  0  0  0  0  0  0  0
   10.9556   15.0204   20.7975 C   0  0  0  0  0  0  0  0  0  0  0  0
   10.2321   15.9671   20.1168 C   0  0  0  0  0  0  0  0  0  0  0  0
   10.5787   15.7366   18.8390 N   0  0  0  0  0  0  0  0  0  0  0  0
    9.7676   16.0121   17.7900 O   0  0  0  0  0  0  0  0  0  0  0  0
   11.4934   14.7880   18.6965 N   0  0  0  0  0  0  0  0  0  0  0  0
   11.7853   14.3660   19.9156 N   0  0  0  0  0  0  0  0  0  0  0  0
    9.0858   14.4855   25.1649 C   0  0  0  0  0  0  0  0  0  0  0  0
    9.1981   14.4467   26.3770 O   0  0  0  0  0  0  0  0  0  0  0  0
  1  2  1  0
  2  3  1  0
  3  4  2  0
  4  5  1  0
  5  6  2  0
  6  7  1  0
  7  8  2  0
  8  9  1  0
  9 10  2  0
 11 10  1  1
 11 12  1  0
 12 13  1  0
 13 14  1  0
 14 15  1  0
 15 16  1  6
 15 17  1  0
 17 18  2  0
 18 19  1  0
 19 20  1  0
 19 21  1  0
 21 22  2  0
 12 23  1  0
 23 24  2  0
  8  3  1  0
 23  9  1  0
 15 11  1  0
 22 17  1  0
M  END
>  <ref_pdb>  (220) 
A4791a

>  <tags>  (220) 
{'fragmenstein_placed', 'openbind_a71ev2a_c1_fragmenstein'}

>  <distance_score>  (220) 
0.942332

>  <energy_score>  (220) 
-77.744004

>  <inchikey>  (220) 
XBUJMKISRHCTDR-UHFFFAOYSA-N

>  <alias>  (220) 
CSc1ccccc1C1=C[C@H]2N(CC[C@]2(O)c2cn(O)nn2)C1=O

>  <smiles>  (220) 
C181214-P468

>  <HIPPO Pose ID>  (220) 
98040

>  <ref_mols>  (220) 
A3593a,A4798a,A3621a

>  <HIPPO Compound ID>  (220) 
181214

$$$$
CSc1ccccc1[C@@]12C[C@@H](N3CCCCC3)N=C1N1CC[C@](O)(c3cnn[nH]3)[C@H]1C2=O
     RDKit          3D

 32 37  0  0  0  0  0  0  0  0999 V2000
    9.4562    9.6357   23.2762 C   0  0  0  0  0  0  0  0  0  0  0  0
    9.3343   11.3626   23.8126 S   0  0  0  0  0  0  0  0  0  0  0  0
    7.8967   11.4504   24.8714 C   0  0  0  0  0  0  0  0  0  0  0  0
    7.4825   10.2766   25.5295 C   0  0  0  0  0  0  0  0  0  0  0  0
    6.4083   10.2619   26.4137 C   0  0  0  0  0  0  0  0  0  0  0  0
    5.6967   11.4171   26.6297 C   0  0  0  0  0  0  0  0  0  0  0  0
    6.0543   12.5716   25.9445 C   0  0  0  0  0  0  0  0  0  0  0  0
    7.1872   12.6584   25.1003 C   0  0  0  0  0  0  0  0  0  0  0  0
    7.5769   14.0465   24.5451 C   0  0  1  0  0  0  0  0  0  0  0  0
    6.7195   15.2538   24.9584 C   0  0  0  0  0  0  0  0  0  0  0  0
    7.2905   15.6787   26.3510 C   0  0  1  0  0  0  0  0  0  0  0  0
    6.6156   15.1336   27.5283 N   0  0  0  0  0  0  0  0  0  0  0  0
    5.3145   15.7701   27.7592 C   0  0  0  0  0  0  0  0  0  0  0  0
    4.5161   14.9654   28.7931 C   0  0  0  0  0  0  0  0  0  0  0  0
    5.3923   14.3697   29.8969 C   0  0  0  0  0  0  0  0  0  0  0  0
    6.6769   15.1688   30.0542 C   0  0  0  0  0  0  0  0  0  0  0  0
    7.4602   15.2447   28.7341 C   0  0  0  0  0  0  0  0  0  0  0  0
    8.7352   15.3315   26.2821 N   0  0  0  0  0  0  0  0  0  0  0  0
    8.8226   14.6423   25.1960 C   0  0  0  0  0  0  0  0  0  0  0  0
    9.8724   14.6079   24.3439 N   0  0  0  0  0  0  0  0  0  0  0  0
   11.2161   15.0849   24.4772 C   0  0  0  0  0  0  0  0  0  0  0  0
   11.6481   15.3958   23.0298 C   0  0  0  0  0  0  0  0  0  0  0  0
   10.6359   14.6299   22.1530 C   0  0  2  0  0  0  0  0  0  0  0  0
   11.0683   13.2840   22.1164 O   0  0  0  0  0  0  0  0  0  0  0  0
   10.5696   15.1532   20.7773 C   0  0  0  0  0  0  0  0  0  0  0  0
   10.0905   16.3153   20.2161 C   0  0  0  0  0  0  0  0  0  0  0  0
   10.2931   16.2883   18.8675 N   0  0  0  0  0  0  0  0  0  0  0  0
   10.8878   15.1452   18.5655 N   0  0  0  0  0  0  0  0  0  0  0  0
   11.0123   14.4536   19.6959 N   0  0  0  0  0  0  0  0  0  0  0  0
    9.3707   14.8305   22.9729 C   0  0  1  0  0  0  0  0  0  0  0  0
    8.0240   14.0670   23.0469 C   0  0  0  0  0  0  0  0  0  0  0  0
    7.3551   13.6457   22.1087 O   0  0  0  0  0  0  0  0  0  0  0  0
  1  2  1  0
  2  3  1  0
  3  4  2  0
  4  5  1  0
  5  6  2  0
  6  7  1  0
  7  8  2  0
  9  8  1  1
  9 10  1  0
 10 11  1  0
 11 12  1  1
 12 13  1  0
 13 14  1  0
 14 15  1  0
 15 16  1  0
 16 17  1  0
 11 18  1  0
 18 19  2  0
 19 20  1  0
 20 21  1  0
 21 22  1  0
 22 23  1  0
 23 24  1  6
 23 25  1  0
 25 26  2  0
 26 27  1  0
 27 28  2  0
 28 29  1  0
 23 30  1  0
 30 31  1  6
 31 32  2  0
  8  3  1  0
 19  9  1  0
 30 20  1  0
 31  9  1  0
 17 12  1  0
 29 25  1  0
M  END
>  <ref_pdb>  (221) 
A4791a

>  <tags>  (221) 
{'fragmenstein_placed', 'openbind_a71ev2a_c1_fragmenstein'}

>  <distance_score>  (221) 
0.854764

>  <energy_score>  (221) 
-76.000479

>  <inchikey>  (221) 
YINOIWFULAQOLY-UHFFFAOYSA-N

>  <alias>  (221) 
CSc1ccccc1[C@@]12C[C@@H](N3CCCCC3)N=C1N1CC[C@](O)(c3cnn[nH]3)[C@H]1C2=O

>  <smiles>  (221) 
C181219-P468

>  <HIPPO Pose ID>  (221) 
98042

>  <ref_mols>  (221) 
A3634a,A4798a

>  <HIPPO Compound ID>  (221) 
181219

$$$$
CSc1ccccc1CC(O)(O)N1C[C@@](O)(c2cn(O)nn2)[C@@](F)(OCF)C1
     RDKit          3D

 28 30  0  0  0  0  0  0  0  0999 V2000
    9.3734    9.2620   23.3302 C   0  0  0  0  0  0  0  0  0  0  0  0
    9.2416   10.9418   23.9259 S   0  0  0  0  0  0  0  0  0  0  0  0
    7.7809   11.0510   24.9319 C   0  0  0  0  0  0  0  0  0  0  0  0
    7.3177    9.9912   25.6991 C   0  0  0  0  0  0  0  0  0  0  0  0
    6.2957   10.1610   26.6423 C   0  0  0  0  0  0  0  0  0  0  0  0
    5.7197   11.4045   26.8374 C   0  0  0  0  0  0  0  0  0  0  0  0
    6.1032   12.4526   26.0190 C   0  0  0  0  0  0  0  0  0  0  0  0
    7.1009   12.2729   25.0398 C   0  0  0  0  0  0  0  0  0  0  0  0
    7.3163   13.3950   24.0626 C   0  0  0  0  0  0  0  0  0  0  0  0
    8.4431   14.4072   24.3455 C   0  0  0  0  0  0  0  0  0  0  0  0
    8.5315   14.6612   25.7277 O   0  0  0  0  0  0  0  0  0  0  0  0
    7.9871   15.5837   23.7327 O   0  0  0  0  0  0  0  0  0  0  0  0
    9.7764   14.0817   23.8743 N   0  0  0  0  0  0  0  0  0  0  0  0
   10.7592   15.1921   24.0380 C   0  0  0  0  0  0  0  0  0  0  0  0
   11.0274   15.7721   22.6419 C   0  0  2  0  0  0  0  0  0  0  0  0
   12.1805   16.4548   22.6086 F   0  0  0  0  0  0  0  0  0  0  0  0
    9.9148   16.6104   22.2990 O   0  0  0  0  0  0  0  0  0  0  0  0
   10.0713   17.7711   21.5121 C   0  0  0  0  0  0  0  0  0  0  0  0
   11.1783   18.4588   21.8801 F   0  0  0  0  0  0  0  0  0  0  0  0
   11.0636   14.4695   21.8386 C   0  0  2  0  0  0  0  0  0  0  0  0
   12.1537   13.5956   22.1563 O   0  0  0  0  0  0  0  0  0  0  0  0
   10.9895   14.7442   20.4017 C   0  0  0  0  0  0  0  0  0  0  0  0
    9.9300   15.3214   19.7671 C   0  0  0  0  0  0  0  0  0  0  0  0
   10.3595   15.4627   18.5203 N   0  0  0  0  0  0  0  0  0  0  0  0
    9.5335   15.8295   17.5107 O   0  0  0  0  0  0  0  0  0  0  0  0
   11.5304   14.8826   18.3046 N   0  0  0  0  0  0  0  0  0  0  0  0
   11.9690   14.4660   19.4880 N   0  0  0  0  0  0  0  0  0  0  0  0
    9.7913   13.8177   22.4026 C   0  0  0  0  0  0  0  0  0  0  0  0
  1  2  1  0
  2  3  1  0
  3  4  2  0
  4  5  1  0
  5  6  2  0
  6  7  1  0
  7  8  2  0
  8  9  1  0
  9 10  1  0
 10 11  1  0
 10 12  1  0
 10 13  1  0
 13 14  1  0
 14 15  1  0
 15 16  1  1
 15 17  1  0
 17 18  1  0
 18 19  1  0
 15 20  1  0
 20 21  1  6
 20 22  1  0
 22 23  2  0
 23 24  1  0
 24 25  1  0
 24 26  1  0
 26 27  2  0
 20 28  1  0
  8  3  1  0
 28 13  1  0
 27 22  1  0
M  END
>  <ref_pdb>  (222) 
A4791a

>  <tags>  (222) 
{'fragmenstein_placed', 'openbind_a71ev2a_c1_fragmenstein'}

>  <distance_score>  (222) 
0.901141

>  <energy_score>  (222) 
-32.842353

>  <inchikey>  (222) 
NHXUVFLIZLDSSZ-UHFFFAOYSA-N

>  <alias>  (222) 
CSc1ccccc1CC(O)(O)N1C[C@@](O)(c2cn(O)nn2)[C@@](F)(OCF)C1

>  <smiles>  (222) 
C181232-P468

>  <HIPPO Pose ID>  (222) 
98050

>  <ref_mols>  (222) 
A4798a,A3571a

>  <HIPPO Compound ID>  (222) 
181232

$$$$
CS[C@H]1CC[C@]2(COCO2)C[C@@H]1CC(O)(O)N1CC[C@](O)(c2cnn[nH]2)C1
     RDKit          3D

 27 30  0  0  0  0  0  0  0  0999 V2000
    9.2703    9.4944   23.5371 C   0  0  0  0  0  0  0  0  0  0  0  0
    9.1626   11.2149   24.0422 S   0  0  0  0  0  0  0  0  0  0  0  0
    7.4914   11.3734   24.7997 C   0  0  1  0  0  0  0  0  0  0  0  0
    7.2592   10.2900   25.8405 C   0  0  0  0  0  0  0  0  0  0  0  0
    6.1100   10.4904   26.8295 C   0  0  0  0  0  0  0  0  0  0  0  0
    5.9019   11.9298   27.3072 C   0  0  1  0  0  0  0  0  0  0  0  0
    4.6099   12.0960   28.0975 C   0  0  0  0  0  0  0  0  0  0  0  0
    4.9496   11.6104   29.3928 O   0  0  0  0  0  0  0  0  0  0  0  0
    6.2973   12.0448   29.5601 C   0  0  0  0  0  0  0  0  0  0  0  0
    6.9029   12.2580   28.2803 O   0  0  0  0  0  0  0  0  0  0  0  0
    5.9681   12.8989   26.1379 C   0  0  0  0  0  0  0  0  0  0  0  0
    7.2797   12.7951   25.3364 C   0  0  2  0  0  0  0  0  0  0  0  0
    7.2178   13.8471   24.1983 C   0  0  0  0  0  0  0  0  0  0  0  0
    8.3385   14.8992   24.2695 C   0  0  0  0  0  0  0  0  0  0  0  0
    7.9811   16.0163   23.4940 O   0  0  0  0  0  0  0  0  0  0  0  0
    8.3597   15.3635   25.6026 O   0  0  0  0  0  0  0  0  0  0  0  0
    9.6014   14.3660   23.8289 N   0  0  0  0  0  0  0  0  0  0  0  0
   10.8128   15.0906   24.1977 C   0  0  0  0  0  0  0  0  0  0  0  0
   11.5046   15.5347   22.9156 C   0  0  0  0  0  0  0  0  0  0  0  0
   11.0435   14.5306   21.8884 C   0  0  2  0  0  0  0  0  0  0  0  0
   11.9218   13.4105   21.8986 O   0  0  0  0  0  0  0  0  0  0  0  0
   11.0295   15.0686   20.5185 C   0  0  0  0  0  0  0  0  0  0  0  0
   10.2194   15.9795   19.8809 C   0  0  0  0  0  0  0  0  0  0  0  0
   10.5382   16.0224   18.5617 N   0  0  0  0  0  0  0  0  0  0  0  0
   11.5725   15.2149   18.3699 N   0  0  0  0  0  0  0  0  0  0  0  0
   11.9254   14.7161   19.5567 N   0  0  0  0  0  0  0  0  0  0  0  0
    9.6448   14.1453   22.3703 C   0  0  0  0  0  0  0  0  0  0  0  0
  1  2  1  0
  3  2  1  1
  3  4  1  0
  4  5  1  0
  6  5  1  6
  6  7  1  0
  7  8  1  0
  8  9  1  0
  9 10  1  0
  6 11  1  0
 11 12  1  0
 12 13  1  6
 13 14  1  0
 14 15  1  0
 14 16  1  0
 14 17  1  0
 17 18  1  0
 18 19  1  0
 19 20  1  0
 20 21  1  6
 20 22  1  0
 22 23  2  0
 23 24  1  0
 24 25  2  0
 25 26  1  0
 20 27  1  0
 12  3  1  0
 27 17  1  0
 10  6  1  0
 26 22  1  0
M  END
>  <ref_pdb>  (223) 
A4791a

>  <tags>  (223) 
{'fragmenstein_placed', 'openbind_a71ev2a_c1_fragmenstein'}

>  <distance_score>  (223) 
0.925591

>  <energy_score>  (223) 
-38.638153

>  <inchikey>  (223) 
JXGWKTGHPXMKHC-UHFFFAOYSA-N

>  <alias>  (223) 
CS[C@H]1CC[C@]2(COCO2)C[C@@H]1CC(O)(O)N1CC[C@](O)(c2cnn[nH]2)C1

>  <smiles>  (223) 
C181248-P468

>  <HIPPO Pose ID>  (223) 
98060

>  <ref_mols>  (223) 
A3968a,A4798a

>  <HIPPO Compound ID>  (223) 
181248

$$$$
O=C1c2cccc3nccc(c23)[C@@]1(O)N1CC[C@](O)(c2cn(O)nn2)C1
     RDKit          3D

 26 30  0  0  0  0  0  0  0  0999 V2000
    7.2313   15.4352   25.7107 O   0  0  0  0  0  0  0  0  0  0  0  0
    7.7017   14.3419   25.4476 C   0  0  0  0  0  0  0  0  0  0  0  0
    7.0438   13.0615   25.7641 C   0  0  0  0  0  0  0  0  0  0  0  0
    5.9561   12.7635   26.5561 C   0  0  0  0  0  0  0  0  0  0  0  0
    5.6783   11.4107   26.7741 C   0  0  0  0  0  0  0  0  0  0  0  0
    6.4398   10.4044   26.1432 C   0  0  0  0  0  0  0  0  0  0  0  0
    7.5111   10.7117   25.3142 C   0  0  0  0  0  0  0  0  0  0  0  0
    8.2662    9.8096   24.6621 N   0  0  0  0  0  0  0  0  0  0  0  0
    9.3334   10.2669   23.9576 C   0  0  0  0  0  0  0  0  0  0  0  0
    9.7391   11.5996   23.9548 C   0  0  0  0  0  0  0  0  0  0  0  0
    8.9538   12.5216   24.6179 C   0  0  0  0  0  0  0  0  0  0  0  0
    7.8053   12.0604   25.2135 C   0  0  0  0  0  0  0  0  0  0  0  0
    9.1310   13.9826   24.9345 C   0  0  2  0  0  0  0  0  0  0  0  0
    9.8464   14.1173   26.1701 O   0  0  0  0  0  0  0  0  0  0  0  0
    9.7076   14.8909   23.9663 N   0  0  0  0  0  0  0  0  0  0  0  0
   11.1510   15.1082   24.1803 C   0  0  0  0  0  0  0  0  0  0  0  0
   11.7064   15.5509   22.8449 C   0  0  0  0  0  0  0  0  0  0  0  0
   10.9798   14.6120   21.9177 C   0  0  2  0  0  0  0  0  0  0  0  0
   11.6020   13.3275   22.0630 O   0  0  0  0  0  0  0  0  0  0  0  0
   11.0036   15.0411   20.5118 C   0  0  0  0  0  0  0  0  0  0  0  0
   10.2483   15.9953   19.8780 C   0  0  0  0  0  0  0  0  0  0  0  0
   10.4787   15.7231   18.5818 N   0  0  0  0  0  0  0  0  0  0  0  0
    9.5456   15.9026   17.6024 O   0  0  0  0  0  0  0  0  0  0  0  0
   11.4005   14.7872   18.3938 N   0  0  0  0  0  0  0  0  0  0  0  0
   11.7724   14.3756   19.5905 N   0  0  0  0  0  0  0  0  0  0  0  0
    9.5517   14.5711   22.5356 C   0  0  0  0  0  0  0  0  0  0  0  0
  1  2  2  0
  2  3  1  0
  3  4  2  0
  4  5  1  0
  5  6  2  0
  6  7  1  0
  7  8  2  0
  8  9  1  0
  9 10  2  0
 10 11  1  0
 11 12  2  0
 11 13  1  0
 13 14  1  1
 13 15  1  0
 15 16  1  0
 16 17  1  0
 17 18  1  0
 18 19  1  6
 18 20  1  0
 20 21  2  0
 21 22  1  0
 22 23  1  0
 22 24  1  0
 24 25  2  0
 18 26  1  0
 13  2  1  0
 26 15  1  0
 12  3  1  0
 25 20  1  0
 12  7  1  0
M  END
>  <ref_pdb>  (224) 
A4791a

>  <tags>  (224) 
{'fragmenstein_placed', 'openbind_a71ev2a_c1_fragmenstein'}

>  <distance_score>  (224) 
0.931541

>  <energy_score>  (224) 
-25.798522

>  <inchikey>  (224) 
HENXKPUZOUQMOO-UHFFFAOYSA-N

>  <alias>  (224) 
O=C1c2cccc3nccc(c23)[C@@]1(O)N1CC[C@](O)(c2cn(O)nn2)C1

>  <smiles>  (224) 
C181267-P468

>  <HIPPO Pose ID>  (224) 
98070

>  <ref_mols>  (224) 
A4291a,A4798a

>  <HIPPO Compound ID>  (224) 
181267

$$$$
ON[C@@H]1N([C@]2(O)CCc3ccccc32)CC[C@]1(O)c1cn[nH]n1
     RDKit          3D

 23 26  0  0  0  0  0  0  0  0999 V2000
    7.8218   16.1951   21.5242 O   0  0  0  0  0  0  0  0  0  0  0  0
    8.8038   15.9874   22.5577 N   0  0  0  0  0  0  0  0  0  0  0  0
    9.3823   14.6395   22.3905 C   0  0  2  0  0  0  0  0  0  0  0  0
    9.5390   14.0948   23.7447 N   0  0  0  0  0  0  0  0  0  0  0  0
    8.3177   13.9770   24.5171 C   0  0  2  0  0  0  0  0  0  0  0  0
    7.1613   14.1736   23.6949 O   0  0  0  0  0  0  0  0  0  0  0  0
    8.1426   14.8432   25.7798 C   0  0  0  0  0  0  0  0  0  0  0  0
    6.9384   14.2293   26.5246 C   0  0  0  0  0  0  0  0  0  0  0  0
    7.0994   12.7762   26.1853 C   0  0  0  0  0  0  0  0  0  0  0  0
    6.4298   11.6985   26.7363 C   0  0  0  0  0  0  0  0  0  0  0  0
    6.7245   10.4296   26.2436 C   0  0  0  0  0  0  0  0  0  0  0  0
    7.6890   10.2598   25.2355 C   0  0  0  0  0  0  0  0  0  0  0  0
    8.3223   11.3555   24.6451 C   0  0  0  0  0  0  0  0  0  0  0  0
    8.0076   12.6174   25.1165 C   0  0  0  0  0  0  0  0  0  0  0  0
   10.7364   14.7732   24.2689 C   0  0  0  0  0  0  0  0  0  0  0  0
   11.5669   15.2605   23.0289 C   0  0  0  0  0  0  0  0  0  0  0  0
   10.8612   14.5895   21.8607 C   0  0  1  0  0  0  0  0  0  0  0  0
   11.3950   13.2481   21.9277 O   0  0  0  0  0  0  0  0  0  0  0  0
   10.9700   15.1397   20.4535 C   0  0  0  0  0  0  0  0  0  0  0  0
   10.3360   16.2600   19.8753 C   0  0  0  0  0  0  0  0  0  0  0  0
   10.4596   16.2453   18.5507 N   0  0  0  0  0  0  0  0  0  0  0  0
   11.2405   15.1761   18.3667 N   0  0  0  0  0  0  0  0  0  0  0  0
   11.5741   14.4535   19.4565 N   0  0  0  0  0  0  0  0  0  0  0  0
  1  2  1  0
  3  2  1  1
  3  4  1  0
  4  5  1  0
  5  6  1  6
  5  7  1  0
  7  8  1  0
  8  9  1  0
  9 10  2  0
 10 11  1  0
 11 12  2  0
 12 13  1  0
 13 14  2  0
  4 15  1  0
 15 16  1  0
 16 17  1  0
 17 18  1  6
 17 19  1  0
 19 20  1  0
 20 21  2  0
 21 22  1  0
 22 23  1  0
 17  3  1  0
 23 19  2  0
 14  5  1  0
 14  9  1  0
M  END
>  <ref_pdb>  (225) 
A4791a

>  <tags>  (225) 
{'fragmenstein_placed', 'openbind_a71ev2a_c1_fragmenstein'}

>  <distance_score>  (225) 
0.742717

>  <energy_score>  (225) 
-34.969955

>  <inchikey>  (225) 
SBCSSJJDLUIWJO-UHFFFAOYSA-N

>  <alias>  (225) 
ON[C@@H]1N([C@]2(O)CCc3ccccc32)CC[C@]1(O)c1cn[nH]n1

>  <smiles>  (225) 
C181280-P468

>  <HIPPO Pose ID>  (225) 
98076

>  <ref_mols>  (225) 
A4798a,A4319a

>  <HIPPO Compound ID>  (225) 
181280

$$$$
O=C1[C@@H]2CCC[C@H]3CCC[C@H]([C@H]32)[C@]1(N1CC[C@](O)(c2cnn[nH]2)C1)n1cccn1
     RDKit          3D

 29 34  0  0  0  0  0  0  0  0999 V2000
    6.9209   14.8397   23.0399 O   0  0  0  0  0  0  0  0  0  0  0  0
    7.2575   14.3750   24.1249 C   0  0  0  0  0  0  0  0  0  0  0  0
    6.2853   13.5498   24.9790 C   0  0  2  0  0  0  0  0  0  0  0  0
    5.0978   14.1948   25.6671 C   0  0  0  0  0  0  0  0  0  0  0  0
    4.8094   13.5409   27.0362 C   0  0  0  0  0  0  0  0  0  0  0  0
    5.2112   12.0524   27.1242 C   0  0  0  0  0  0  0  0  0  0  0  0
    6.6597   11.7450   26.6804 C   0  0  1  0  0  0  0  0  0  0  0  0
    6.8038   10.5007   25.8146 C   0  0  0  0  0  0  0  0  0  0  0  0
    8.0958   10.3985   25.0044 C   0  0  0  0  0  0  0  0  0  0  0  0
    8.4778   11.6666   24.2438 C   0  0  0  0  0  0  0  0  0  0  0  0
    8.5529   12.8389   25.2313 C   0  0  2  0  0  0  0  0  0  0  0  0
    7.2451   12.9558   26.0130 C   0  0  1  0  0  0  0  0  0  0  0  0
    8.6943   14.2969   24.7004 C   0  0  1  0  0  0  0  0  0  0  0  0
    9.8476   14.3466   23.7904 N   0  0  0  0  0  0  0  0  0  0  0  0
   11.0365   15.1381   24.0999 C   0  0  0  0  0  0  0  0  0  0  0  0
   11.6867   15.5253   22.7754 C   0  0  0  0  0  0  0  0  0  0  0  0
   11.0164   14.6083   21.7859 C   0  0  2  0  0  0  0  0  0  0  0  0
   11.7293   13.3734   21.8029 O   0  0  0  0  0  0  0  0  0  0  0  0
   11.0245   15.1106   20.4139 C   0  0  0  0  0  0  0  0  0  0  0  0
   10.2255   16.0018   19.7401 C   0  0  0  0  0  0  0  0  0  0  0  0
   10.5872   16.0291   18.4338 N   0  0  0  0  0  0  0  0  0  0  0  0
   11.6332   15.2281   18.2863 N   0  0  0  0  0  0  0  0  0  0  0  0
   11.9494   14.7470   19.4865 N   0  0  0  0  0  0  0  0  0  0  0  0
    9.6014   14.4738   22.3635 C   0  0  0  0  0  0  0  0  0  0  0  0
    8.8517   15.2188   25.8776 N   0  0  0  0  0  0  0  0  0  0  0  0
    9.8042   15.1450   26.8814 C   0  0  0  0  0  0  0  0  0  0  0  0
    9.3952   15.9782   27.8944 C   0  0  0  0  0  0  0  0  0  0  0  0
    8.1719   16.4989   27.4487 C   0  0  0  0  0  0  0  0  0  0  0  0
    7.8431   16.0568   26.2332 N   0  0  0  0  0  0  0  0  0  0  0  0
  1  2  2  0
  2  3  1  0
  3  4  1  1
  4  5  1  0
  5  6  1  0
  7  6  1  6
  7  8  1  0
  8  9  1  0
  9 10  1  0
 11 10  1  6
 11 12  1  0
 11 13  1  0
 13 14  1  6
 14 15  1  0
 15 16  1  0
 16 17  1  0
 17 18  1  6
 17 19  1  0
 19 20  2  0
 20 21  1  0
 21 22  2  0
 22 23  1  0
 17 24  1  0
 13 25  1  0
 25 26  1  0
 26 27  2  0
 27 28  1  0
 28 29  2  0
 13  2  1  0
 24 14  1  0
 29 25  1  0
 12  3  1  6
 23 19  1  0
 12  7  1  0
M  END
>  <ref_pdb>  (226) 
A4791a

>  <tags>  (226) 
{'fragmenstein_placed', 'openbind_a71ev2a_c1_fragmenstein'}

>  <distance_score>  (226) 
0.940403

>  <energy_score>  (226) 
-46.763563

>  <inchikey>  (226) 
RCSDJPHGQZWBKU-UHFFFAOYSA-N

>  <alias>  (226) 
O=C1[C@@H]2CCC[C@H]3CCC[C@H]([C@H]32)[C@]1(N1CC[C@](O)(c2cnn[nH]2)C1)n1cccn1

>  <smiles>  (226) 
C181298-P468

>  <HIPPO Pose ID>  (226) 
98089

>  <ref_mols>  (226) 
A4380a,A4798a

>  <HIPPO Compound ID>  (226) 
181298

$$$$
CSc1cccc2c1C(=O)[C@@H]([C@@H](O)N1CC[C@](O)(c3cnn[nH]3)C1)C2
     RDKit          3D

 25 28  0  0  0  0  0  0  0  0999 V2000
    5.1698    9.4794   27.8435 C   0  0  0  0  0  0  0  0  0  0  0  0
    5.6863   11.1040   27.2601 S   0  0  0  0  0  0  0  0  0  0  0  0
    6.8354   10.8532   25.9322 C   0  0  0  0  0  0  0  0  0  0  0  0
    7.4220    9.6434   25.6173 C   0  0  0  0  0  0  0  0  0  0  0  0
    8.4784    9.4867   24.6897 C   0  0  0  0  0  0  0  0  0  0  0  0
    8.8817   10.5186   23.9033 C   0  0  0  0  0  0  0  0  0  0  0  0
    8.2367   11.6953   24.1415 C   0  0  0  0  0  0  0  0  0  0  0  0
    7.2904   11.8824   25.1507 C   0  0  0  0  0  0  0  0  0  0  0  0
    6.9895   13.3081   25.1849 C   0  0  0  0  0  0  0  0  0  0  0  0
    6.1970   13.8450   25.9364 O   0  0  0  0  0  0  0  0  0  0  0  0
    7.8336   14.0214   24.1628 C   0  0  1  0  0  0  0  0  0  0  0  0
    8.8697   14.9222   24.8204 C   0  0  1  0  0  0  0  0  0  0  0  0
    9.4857   14.2664   25.9196 O   0  0  0  0  0  0  0  0  0  0  0  0
    9.8803   15.4516   23.9282 N   0  0  0  0  0  0  0  0  0  0  0  0
   11.2803   15.1124   24.1524 C   0  0  0  0  0  0  0  0  0  0  0  0
   11.9569   15.5278   22.8428 C   0  0  0  0  0  0  0  0  0  0  0  0
   10.9761   14.9766   21.8456 C   0  0  2  0  0  0  0  0  0  0  0  0
   11.1626   13.5592   21.8867 O   0  0  0  0  0  0  0  0  0  0  0  0
   11.1002   15.3429   20.4390 C   0  0  0  0  0  0  0  0  0  0  0  0
   10.3529   16.1447   19.6110 C   0  0  0  0  0  0  0  0  0  0  0  0
   10.7321   15.9399   18.3276 N   0  0  0  0  0  0  0  0  0  0  0  0
   11.7311   15.0693   18.3322 N   0  0  0  0  0  0  0  0  0  0  0  0
   12.0265   14.7955   19.6023 N   0  0  0  0  0  0  0  0  0  0  0  0
    9.6550   15.4754   22.4762 C   0  0  0  0  0  0  0  0  0  0  0  0
    8.4974   12.9069   23.3697 C   0  0  0  0  0  0  0  0  0  0  0  0
  1  2  1  0
  2  3  1  0
  3  4  2  0
  4  5  1  0
  5  6  2  0
  6  7  1  0
  7  8  2  0
  8  9  1  0
  9 10  2  0
  9 11  1  0
 11 12  1  0
 12 13  1  1
 12 14  1  0
 14 15  1  0
 15 16  1  0
 16 17  1  0
 17 18  1  6
 17 19  1  0
 19 20  2  0
 20 21  1  0
 21 22  2  0
 22 23  1  0
 17 24  1  0
 11 25  1  1
  8  3  1  0
 24 14  1  0
 25  7  1  0
 23 19  1  0
M  END
>  <ref_pdb>  (227) 
A4791a

>  <tags>  (227) 
{'fragmenstein_placed', 'openbind_a71ev2a_c1_fragmenstein'}

>  <distance_score>  (227) 
0.988696

>  <energy_score>  (227) 
-24.199614

>  <inchikey>  (227) 
IHTQCZLWKVCOSP-UHFFFAOYSA-N

>  <alias>  (227) 
CSc1cccc2c1C(=O)[C@@H]([C@@H](O)N1CC[C@](O)(c3cnn[nH]3)C1)C2

>  <smiles>  (227) 
C181304-P468

>  <HIPPO Pose ID>  (227) 
98094

>  <ref_mols>  (227) 
A4214b,A4798a

>  <HIPPO Compound ID>  (227) 
181304

$$$$
CS[C@@H]1CC[C@H]2CCN[C@]3(O)C(=C[C@@H]4N3CC[C@]4(O)c3cnn[nH]3)[C@H]21
     RDKit          3D

 25 29  0  0  0  0  0  0  0  0999 V2000
    9.6574    9.2206   23.7987 C   0  0  0  0  0  0  0  0  0  0  0  0
    8.9726   10.8000   23.3506 S   0  0  0  0  0  0  0  0  0  0  0  0
    8.1526   11.4430   24.8573 C   0  0  2  0  0  0  0  0  0  0  0  0
    7.2908   10.4852   25.6598 C   0  0  0  0  0  0  0  0  0  0  0  0
    6.4637   11.3931   26.5541 C   0  0  0  0  0  0  0  0  0  0  0  0
    6.2228   12.6787   25.7498 C   0  0  1  0  0  0  0  0  0  0  0  0
    6.3042   13.9294   26.6146 C   0  0  0  0  0  0  0  0  0  0  0  0
    7.6877   14.3579   27.1404 C   0  0  0  0  0  0  0  0  0  0  0  0
    8.8498   14.3437   26.2299 N   0  0  0  0  0  0  0  0  0  0  0  0
    8.5380   14.8257   24.9245 C   0  0  2  0  0  0  0  0  0  0  0  0
    7.7153   15.9534   25.0226 O   0  0  0  0  0  0  0  0  0  0  0  0
    7.8521   13.8397   24.0243 C   0  0  0  0  0  0  0  0  0  0  0  0
    8.4156   13.8671   22.7948 C   0  0  0  0  0  0  0  0  0  0  0  0
    9.8274   14.2077   23.0797 C   0  0  2  0  0  0  0  0  0  0  0  0
    9.6821   15.2080   24.1420 N   0  0  0  0  0  0  0  0  0  0  0  0
   11.0354   15.3846   24.5770 C   0  0  0  0  0  0  0  0  0  0  0  0
   11.7198   15.6231   23.2066 C   0  0  0  0  0  0  0  0  0  0  0  0
   10.9864   14.7037   22.2162 C   0  0  1  0  0  0  0  0  0  0  0  0
   11.9029   13.6385   21.9416 O   0  0  0  0  0  0  0  0  0  0  0  0
   10.6402   15.2925   20.9137 C   0  0  0  0  0  0  0  0  0  0  0  0
   10.0404   16.4563   20.4995 C   0  0  0  0  0  0  0  0  0  0  0  0
   10.0485   16.5071   19.1335 N   0  0  0  0  0  0  0  0  0  0  0  0
   10.5904   15.3885   18.6789 N   0  0  0  0  0  0  0  0  0  0  0  0
   10.8912   14.6379   19.7392 N   0  0  0  0  0  0  0  0  0  0  0  0
    7.1522   12.6028   24.5202 C   0  0  1  0  0  0  0  0  0  0  0  0
  1  2  1  0
  3  2  1  6
  3  4  1  0
  4  5  1  0
  6  5  1  1
  6  7  1  0
  7  8  1  0
  8  9  1  0
  9 10  1  0
 10 11  1  1
 10 12  1  0
 12 13  2  0
 14 13  1  6
 14 15  1  0
 15 16  1  0
 16 17  1  0
 17 18  1  0
 18 19  1  6
 18 20  1  0
 20 21  2  0
 21 22  1  0
 22 23  2  0
 23 24  1  0
 25 12  1  1
 25  3  1  0
 25  6  1  0
 15 10  1  0
 24 20  1  0
 18 14  1  0
M  END
>  <ref_pdb>  (228) 
A4791a

>  <tags>  (228) 
{'fragmenstein_placed', 'openbind_a71ev2a_c1_fragmenstein'}

>  <distance_score>  (228) 
0.973494

>  <energy_score>  (228) 
-34.725192

>  <inchikey>  (228) 
RZZOPLWGHOACNB-UHFFFAOYSA-N

>  <alias>  (228) 
CS[C@@H]1CC[C@H]2CCN[C@]3(O)C(=C[C@@H]4N3CC[C@]4(O)c3cnn[nH]3)[C@H]21

>  <smiles>  (228) 
C181314-P468

>  <HIPPO Pose ID>  (228) 
98099

>  <ref_mols>  (228) 
A4798a,A4402a

>  <HIPPO Compound ID>  (228) 
181314

$$$$
CSc1ccccc1C(=O)[C@](O)(F)N1CC[C@](O)(c2cn(O)nn2)C1
     RDKit          3D

 25 27  0  0  0  0  0  0  0  0999 V2000
    9.4388    9.3706   23.2418 C   0  0  0  0  0  0  0  0  0  0  0  0
    9.3279   11.0987   23.7258 S   0  0  0  0  0  0  0  0  0  0  0  0
    7.8966   11.2215   24.7861 C   0  0  0  0  0  0  0  0  0  0  0  0
    7.4349   10.1594   25.5602 C   0  0  0  0  0  0  0  0  0  0  0  0
    6.3842   10.3279   26.4736 C   0  0  0  0  0  0  0  0  0  0  0  0
    5.7681   11.5656   26.6257 C   0  0  0  0  0  0  0  0  0  0  0  0
    6.1673   12.6258   25.8252 C   0  0  0  0  0  0  0  0  0  0  0  0
    7.2205   12.4441   24.9196 C   0  0  0  0  0  0  0  0  0  0  0  0
    7.5800   13.5907   24.0784 C   0  0  0  0  0  0  0  0  0  0  0  0
    6.9755   13.7155   23.0091 O   0  0  0  0  0  0  0  0  0  0  0  0
    8.7253   14.5051   24.6189 C   0  0  2  0  0  0  0  0  0  0  0  0
    9.0114   14.3044   25.9806 O   0  0  0  0  0  0  0  0  0  0  0  0
    8.3785   15.8073   24.5029 F   0  0  0  0  0  0  0  0  0  0  0  0
    9.9545   14.2603   23.8954 N   0  0  0  0  0  0  0  0  0  0  0  0
   11.0828   15.1282   24.2371 C   0  0  0  0  0  0  0  0  0  0  0  0
   11.7851   15.5010   22.9287 C   0  0  0  0  0  0  0  0  0  0  0  0
   11.2110   14.5331   21.9212 C   0  0  2  0  0  0  0  0  0  0  0  0
   11.9034   13.2896   22.0648 O   0  0  0  0  0  0  0  0  0  0  0  0
   11.2137   15.0017   20.5215 C   0  0  0  0  0  0  0  0  0  0  0  0
   10.3857   15.9268   19.9264 C   0  0  0  0  0  0  0  0  0  0  0  0
   10.5838   15.6900   18.6191 N   0  0  0  0  0  0  0  0  0  0  0  0
    9.6374   15.9003   17.6592 O   0  0  0  0  0  0  0  0  0  0  0  0
   11.5299   14.7917   18.3826 N   0  0  0  0  0  0  0  0  0  0  0  0
   11.9628   14.3737   19.5591 N   0  0  0  0  0  0  0  0  0  0  0  0
    9.7815   14.3800   22.4443 C   0  0  0  0  0  0  0  0  0  0  0  0
  1  2  1  0
  2  3  1  0
  3  4  2  0
  4  5  1  0
  5  6  2  0
  6  7  1  0
  7  8  2  0
  8  9  1  0
  9 10  2  0
  9 11  1  0
 11 12  1  1
 11 13  1  0
 11 14  1  0
 14 15  1  0
 15 16  1  0
 16 17  1  0
 17 18  1  6
 17 19  1  0
 19 20  2  0
 20 21  1  0
 21 22  1  0
 21 23  1  0
 23 24  2  0
 17 25  1  0
  8  3  1  0
 25 14  1  0
 24 19  1  0
M  END
>  <ref_pdb>  (229) 
A4791a

>  <tags>  (229) 
{'fragmenstein_placed', 'openbind_a71ev2a_c1_fragmenstein'}

>  <distance_score>  (229) 
0.610689

>  <energy_score>  (229) 
-74.303165

>  <inchikey>  (229) 
SPVYDJGENJIVBR-UHFFFAOYSA-N

>  <alias>  (229) 
CSc1ccccc1C(=O)[C@](O)(F)N1CC[C@](O)(c2cn(O)nn2)C1

>  <smiles>  (229) 
C181316-P468

>  <HIPPO Pose ID>  (229) 
98100

>  <ref_mols>  (229) 
A4406a,A4798a

>  <HIPPO Compound ID>  (229) 
181316

$$$$
CSc1ccccc1[C@@H]1C(=O)[C@H]2N(CC[C@]2(O)c2cnn[nH]2)C1=O
     RDKit          3D

 24 27  0  0  0  0  0  0  0  0999 V2000
    9.4641    9.4976   23.2362 C   0  0  0  0  0  0  0  0  0  0  0  0
    9.3931   11.2165   23.7858 S   0  0  0  0  0  0  0  0  0  0  0  0
    7.9432   11.3310   24.8158 C   0  0  0  0  0  0  0  0  0  0  0  0
    7.4486   10.2063   25.4895 C   0  0  0  0  0  0  0  0  0  0  0  0
    6.3964   10.3021   26.4025 C   0  0  0  0  0  0  0  0  0  0  0  0
    5.8185   11.5304   26.6656 C   0  0  0  0  0  0  0  0  0  0  0  0
    6.2699   12.6523   25.9840 C   0  0  0  0  0  0  0  0  0  0  0  0
    7.3238   12.5767   25.0443 C   0  0  0  0  0  0  0  0  0  0  0  0
    7.7651   13.9019   24.4557 C   0  0  2  0  0  0  0  0  0  0  0  0
    8.1704   13.9885   22.9932 C   0  0  0  0  0  0  0  0  0  0  0  0
    7.5516   13.4663   22.0692 O   0  0  0  0  0  0  0  0  0  0  0  0
    9.3031   15.0000   22.8454 C   0  0  1  0  0  0  0  0  0  0  0  0
    9.7347   15.1152   24.2327 N   0  0  0  0  0  0  0  0  0  0  0  0
   11.1653   15.1764   24.3582 C   0  0  0  0  0  0  0  0  0  0  0  0
   11.6378   15.4826   22.9436 C   0  0  0  0  0  0  0  0  0  0  0  0
   10.6065   14.7249   22.0936 C   0  0  1  0  0  0  0  0  0  0  0  0
   10.9593   13.3557   22.1568 O   0  0  0  0  0  0  0  0  0  0  0  0
   10.5853   15.1748   20.6930 C   0  0  0  0  0  0  0  0  0  0  0  0
   10.1405   16.3205   20.0727 C   0  0  0  0  0  0  0  0  0  0  0  0
   10.3588   16.2282   18.7315 N   0  0  0  0  0  0  0  0  0  0  0  0
   10.9377   15.0626   18.4920 N   0  0  0  0  0  0  0  0  0  0  0  0
   11.0319   14.4199   19.6530 N   0  0  0  0  0  0  0  0  0  0  0  0
    8.9544   14.4857   25.1733 C   0  0  0  0  0  0  0  0  0  0  0  0
    9.2099   14.4288   26.3651 O   0  0  0  0  0  0  0  0  0  0  0  0
  1  2  1  0
  2  3  1  0
  3  4  2  0
  4  5  1  0
  5  6  2  0
  6  7  1  0
  7  8  2  0
  9  8  1  1
  9 10  1  0
 10 11  2  0
 12 10  1  1
 12 13  1  0
 13 14  1  0
 14 15  1  0
 15 16  1  0
 16 17  1  6
 16 18  1  0
 18 19  2  0
 19 20  1  0
 20 21  2  0
 21 22  1  0
 13 23  1  0
 23 24  2  0
  8  3  1  0
 23  9  1  0
 16 12  1  0
 22 18  1  0
M  END
>  <ref_pdb>  (230) 
A4791a

>  <tags>  (230) 
{'fragmenstein_placed', 'openbind_a71ev2a_c1_fragmenstein'}

>  <distance_score>  (230) 
0.653704

>  <energy_score>  (230) 
-57.878332

>  <inchikey>  (230) 
PSFZHIZHBUGQQO-UHFFFAOYSA-N

>  <alias>  (230) 
CSc1ccccc1[C@@H]1C(=O)[C@H]2N(CC[C@]2(O)c2cnn[nH]2)C1=O

>  <smiles>  (230) 
C181317-P468

>  <HIPPO Pose ID>  (230) 
98101

>  <ref_mols>  (230) 
A4415a,A4798a,A4935a

>  <HIPPO Compound ID>  (230) 
181317

$$$$
CSc1ccccc1C(=O)[C@@](O)(F)N1CC[C@](O)(c2[nH]nnc2O)C1
     RDKit          3D

 25 27  0  0  0  0  0  0  0  0999 V2000
    9.4437    9.2404   23.2579 C   0  0  0  0  0  0  0  0  0  0  0  0
    9.2882   10.9738   23.6685 S   0  0  0  0  0  0  0  0  0  0  0  0
    7.9356   11.1446   24.8170 C   0  0  0  0  0  0  0  0  0  0  0  0
    7.3970   10.0830   25.5388 C   0  0  0  0  0  0  0  0  0  0  0  0
    6.3648   10.2826   26.4680 C   0  0  0  0  0  0  0  0  0  0  0  0
    5.8398   11.5515   26.6859 C   0  0  0  0  0  0  0  0  0  0  0  0
    6.3326   12.6223   25.9560 C   0  0  0  0  0  0  0  0  0  0  0  0
    7.3766   12.4137   25.0438 C   0  0  0  0  0  0  0  0  0  0  0  0
    7.8544   13.5954   24.3134 C   0  0  0  0  0  0  0  0  0  0  0  0
    7.1049   14.0939   23.4732 O   0  0  0  0  0  0  0  0  0  0  0  0
    9.2196   14.1530   24.7614 C   0  0  1  0  0  0  0  0  0  0  0  0
    8.9448   15.0765   25.7942 O   0  0  0  0  0  0  0  0  0  0  0  0
   10.0374   13.2300   25.3265 F   0  0  0  0  0  0  0  0  0  0  0  0
    9.9055   14.8694   23.7034 N   0  0  0  0  0  0  0  0  0  0  0  0
   11.3181   15.0713   24.0190 C   0  0  0  0  0  0  0  0  0  0  0  0
   11.8641   15.5869   22.7009 C   0  0  0  0  0  0  0  0  0  0  0  0
   11.1762   14.6916   21.6765 C   0  0  2  0  0  0  0  0  0  0  0  0
   12.0510   13.6072   21.4091 O   0  0  0  0  0  0  0  0  0  0  0  0
   10.8410   15.3842   20.4234 C   0  0  0  0  0  0  0  0  0  0  0  0
   10.0681   16.5185   20.4298 N   0  0  0  0  0  0  0  0  0  0  0  0
    9.9036   17.0006   19.1983 N   0  0  0  0  0  0  0  0  0  0  0  0
   10.4791   16.1630   18.3572 N   0  0  0  0  0  0  0  0  0  0  0  0
   11.0669   15.1931   19.0863 C   0  0  0  0  0  0  0  0  0  0  0  0
   11.7268   14.1815   18.5335 O   0  0  0  0  0  0  0  0  0  0  0  0
    9.9259   14.1761   22.4068 C   0  0  0  0  0  0  0  0  0  0  0  0
  1  2  1  0
  2  3  1  0
  3  4  2  0
  4  5  1  0
  5  6  2  0
  6  7  1  0
  7  8  2  0
  8  9  1  0
  9 10  2  0
  9 11  1  0
 11 12  1  1
 11 13  1  0
 11 14  1  0
 14 15  1  0
 15 16  1  0
 16 17  1  0
 17 18  1  6
 17 19  1  0
 19 20  1  0
 20 21  1  0
 21 22  2  0
 22 23  1  0
 23 24  1  0
 17 25  1  0
  8  3  1  0
 25 14  1  0
 23 19  2  0
M  END
>  <ref_pdb>  (231) 
A4791a

>  <tags>  (231) 
{'fragmenstein_placed', 'openbind_a71ev2a_c1_fragmenstein'}

>  <distance_score>  (231) 
0.863993

>  <energy_score>  (231) 
-70.315112

>  <inchikey>  (231) 
ZOFDXDPWBKSIDB-UHFFFAOYSA-N

>  <alias>  (231) 
CSc1ccccc1C(=O)[C@@](O)(F)N1CC[C@](O)(c2[nH]nnc2O)C1

>  <smiles>  (231) 
C181318-P468

>  <HIPPO Pose ID>  (231) 
98102

>  <ref_mols>  (231) 
A4416a,A4798a

>  <HIPPO Compound ID>  (231) 
181318

$$$$
CN1NC[C@@](O)(N2CC[C@](O)(c3cnn[nH]3)C2)Cc2ccccc21
     RDKit          3D

 24 27  0  0  0  0  0  0  0  0999 V2000
    4.7848   14.3234   26.8278 C   0  0  0  0  0  0  0  0  0  0  0  0
    6.2291   14.0181   26.8033 N   0  0  0  0  0  0  0  0  0  0  0  0
    7.0648   15.1361   26.4240 N   0  0  0  0  0  0  0  0  0  0  0  0
    8.4597   14.7593   26.0717 C   0  0  0  0  0  0  0  0  0  0  0  0
    8.5813   14.4293   24.5457 C   0  0  1  0  0  0  0  0  0  0  0  0
    8.3894   15.6702   23.8870 O   0  0  0  0  0  0  0  0  0  0  0  0
    9.8625   13.8633   24.0829 N   0  0  0  0  0  0  0  0  0  0  0  0
   11.0636   14.6539   24.3833 C   0  0  0  0  0  0  0  0  0  0  0  0
   11.5382   15.3061   23.0932 C   0  0  0  0  0  0  0  0  0  0  0  0
   11.1178   14.3325   22.0192 C   0  0  2  0  0  0  0  0  0  0  0  0
   12.1210   13.3415   21.8522 O   0  0  0  0  0  0  0  0  0  0  0  0
   10.9312   14.9785   20.7037 C   0  0  0  0  0  0  0  0  0  0  0  0
   10.0019   15.8677   20.2139 C   0  0  0  0  0  0  0  0  0  0  0  0
   10.2300   16.0812   18.8874 N   0  0  0  0  0  0  0  0  0  0  0  0
   11.3065   15.3891   18.5436 N   0  0  0  0  0  0  0  0  0  0  0  0
   11.7789   14.8027   19.6475 N   0  0  0  0  0  0  0  0  0  0  0  0
    9.8566   13.6866   22.5994 C   0  0  0  0  0  0  0  0  0  0  0  0
    7.4007   13.5129   24.1390 C   0  0  0  0  0  0  0  0  0  0  0  0
    7.1453   12.4191   25.1271 C   0  0  0  0  0  0  0  0  0  0  0  0
    7.5625   11.1196   24.8330 C   0  0  0  0  0  0  0  0  0  0  0  0
    7.1454   10.0659   25.6314 C   0  0  0  0  0  0  0  0  0  0  0  0
    6.3372   10.3033   26.7354 C   0  0  0  0  0  0  0  0  0  0  0  0
    6.0359   11.6105   27.1007 C   0  0  0  0  0  0  0  0  0  0  0  0
    6.4597   12.6970   26.3199 C   0  0  0  0  0  0  0  0  0  0  0  0
  1  2  1  0
  2  3  1  0
  3  4  1  0
  4  5  1  0
  5  6  1  6
  5  7  1  0
  7  8  1  0
  8  9  1  0
  9 10  1  0
 10 11  1  6
 10 12  1  0
 12 13  2  0
 13 14  1  0
 14 15  2  0
 15 16  1  0
 10 17  1  0
  5 18  1  0
 18 19  1  0
 19 20  2  0
 20 21  1  0
 21 22  2  0
 22 23  1  0
 23 24  2  0
 24  2  1  0
 17  7  1  0
 24 19  1  0
 16 12  1  0
M  END
>  <ref_pdb>  (232) 
A4791a

>  <tags>  (232) 
{'fragmenstein_placed', 'openbind_a71ev2a_c1_fragmenstein'}

>  <distance_score>  (232) 
0.95153

>  <energy_score>  (232) 
-75.294377

>  <inchikey>  (232) 
IKIOITOSBVZGHJ-UHFFFAOYSA-N

>  <alias>  (232) 
CN1NC[C@@](O)(N2CC[C@](O)(c3cnn[nH]3)C2)Cc2ccccc21

>  <smiles>  (232) 
C181320-P468

>  <HIPPO Pose ID>  (232) 
98103

>  <ref_mols>  (232) 
A4856a,A4798a,A4421a

>  <HIPPO Compound ID>  (232) 
181320

$$$$
Cc1ccc(CC(O)(O)N2CC[C@](O)(c3cnn[nH]3)C2)c([SH](C)C)c1
     RDKit          3D

 25 27  0  0  0  0  0  0  0  0999 V2000
    5.2627    9.8537   27.8642 C   0  0  0  0  0  0  0  0  0  0  0  0
    5.8373   10.8538   26.9023 C   0  0  0  0  0  0  0  0  0  0  0  0
    5.3836   12.1678   26.9187 C   0  0  0  0  0  0  0  0  0  0  0  0
    5.9436   13.1122   26.0639 C   0  0  0  0  0  0  0  0  0  0  0  0
    6.9982   12.7839   25.1928 C   0  0  0  0  0  0  0  0  0  0  0  0
    7.5895   13.9212   24.3905 C   0  0  0  0  0  0  0  0  0  0  0  0
    8.9787   14.4687   24.8401 C   0  0  0  0  0  0  0  0  0  0  0  0
    9.5046   13.7486   25.9133 O   0  0  0  0  0  0  0  0  0  0  0  0
    8.7708   15.7381   25.3959 O   0  0  0  0  0  0  0  0  0  0  0  0
   10.0171   14.4852   23.8488 N   0  0  0  0  0  0  0  0  0  0  0  0
   11.2547   15.2117   24.1531 C   0  0  0  0  0  0  0  0  0  0  0  0
   11.8362   15.6683   22.8062 C   0  0  0  0  0  0  0  0  0  0  0  0
   11.0623   14.8441   21.8133 C   0  0  2  0  0  0  0  0  0  0  0  0
   11.6951   13.5627   21.7597 O   0  0  0  0  0  0  0  0  0  0  0  0
   11.0151   15.3336   20.4403 C   0  0  0  0  0  0  0  0  0  0  0  0
   10.1925   16.2143   19.7844 C   0  0  0  0  0  0  0  0  0  0  0  0
   10.4560   16.1633   18.4548 N   0  0  0  0  0  0  0  0  0  0  0  0
   11.4690   15.3285   18.2712 N   0  0  0  0  0  0  0  0  0  0  0  0
   11.8583   14.8914   19.4658 N   0  0  0  0  0  0  0  0  0  0  0  0
    9.6763   14.8326   22.4780 C   0  0  0  0  0  0  0  0  0  0  0  0
    7.4432   11.4535   25.1568 C   0  0  0  0  0  0  0  0  0  0  0  0
    8.9513   11.0251   24.3955 S   0  0  0  0  0  0  0  0  0  0  0  0
    9.1621    9.3272   24.1090 C   0  0  0  0  0  0  0  0  0  0  0  0
    9.1968   11.6022   22.8009 C   0  0  0  0  0  0  0  0  0  0  0  0
    6.8492   10.5009   25.9971 C   0  0  0  0  0  0  0  0  0  0  0  0
  1  2  1  0
  2  3  2  0
  3  4  1  0
  4  5  2  0
  5  6  1  0
  6  7  1  0
  7  8  1  0
  7  9  1  0
  7 10  1  0
 10 11  1  0
 11 12  1  0
 12 13  1  0
 13 14  1  6
 13 15  1  0
 15 16  2  0
 16 17  1  0
 17 18  2  0
 18 19  1  0
 13 20  1  0
  5 21  1  0
 21 22  1  0
 22 23  1  0
 22 24  1  0
 21 25  2  0
 25  2  1  0
 20 10  1  0
 19 15  1  0
M  END
>  <ref_pdb>  (233) 
A4791a

>  <tags>  (233) 
{'fragmenstein_placed', 'openbind_a71ev2a_c1_fragmenstein'}

>  <distance_score>  (233) 
0.887219

>  <energy_score>  (233) 
-21.787764

>  <inchikey>  (233) 
XAWSNWWGAIHPIO-UHFFFAOYSA-N

>  <alias>  (233) 
Cc1ccc(CC(O)(O)N2CC[C@](O)(c3cnn[nH]3)C2)c([SH](C)C)c1

>  <smiles>  (233) 
C181344-P468

>  <HIPPO Pose ID>  (233) 
98116

>  <ref_mols>  (233) 
A4798a,A4524a

>  <HIPPO Compound ID>  (233) 
181344

$$$$
C[C@@H]1CC[C@@](O)(N2CC[C@](O)(c3cnn[nH]3)C2)Cc2ccccc21
     RDKit          3D

 24 27  0  0  0  0  0  0  0  0999 V2000
    9.2289    9.5787   23.2372 C   0  0  0  0  0  0  0  0  0  0  0  0
    8.8380   11.0138   23.6168 C   0  0  2  0  0  0  0  0  0  0  0  0
   10.1327   11.7914   23.8185 C   0  0  0  0  0  0  0  0  0  0  0  0
   10.1052   12.8757   24.8632 C   0  0  0  0  0  0  0  0  0  0  0  0
    9.2256   14.0909   24.5930 C   0  0  1  0  0  0  0  0  0  0  0  0
    9.1738   14.8197   25.8224 O   0  0  0  0  0  0  0  0  0  0  0  0
    9.7971   15.0069   23.6263 N   0  0  0  0  0  0  0  0  0  0  0  0
   11.1920   15.3906   23.8745 C   0  0  0  0  0  0  0  0  0  0  0  0
   11.7189   15.8517   22.5350 C   0  0  0  0  0  0  0  0  0  0  0  0
   11.0912   14.8313   21.6191 C   0  0  2  0  0  0  0  0  0  0  0  0
   11.8615   13.6297   21.6673 O   0  0  0  0  0  0  0  0  0  0  0  0
   11.0534   15.2576   20.2327 C   0  0  0  0  0  0  0  0  0  0  0  0
   10.2567   16.1414   19.5539 C   0  0  0  0  0  0  0  0  0  0  0  0
   10.5732   16.0965   18.2423 N   0  0  0  0  0  0  0  0  0  0  0  0
   11.6036   15.2746   18.1005 N   0  0  0  0  0  0  0  0  0  0  0  0
   11.9449   14.8337   19.3025 N   0  0  0  0  0  0  0  0  0  0  0  0
    9.6919   14.6326   22.2136 C   0  0  0  0  0  0  0  0  0  0  0  0
    7.7546   13.7051   24.2517 C   0  0  0  0  0  0  0  0  0  0  0  0
    7.2749   12.4790   25.0063 C   0  0  0  0  0  0  0  0  0  0  0  0
    6.3182   12.6524   26.0170 C   0  0  0  0  0  0  0  0  0  0  0  0
    5.8591   11.5648   26.7451 C   0  0  0  0  0  0  0  0  0  0  0  0
    6.3541   10.2985   26.4687 C   0  0  0  0  0  0  0  0  0  0  0  0
    7.3243   10.1163   25.4801 C   0  0  0  0  0  0  0  0  0  0  0  0
    7.8034   11.1916   24.7266 C   0  0  0  0  0  0  0  0  0  0  0  0
  2  1  1  1
  2  3  1  0
  3  4  1  0
  4  5  1  0
  5  6  1  1
  5  7  1  0
  7  8  1  0
  8  9  1  0
  9 10  1  0
 10 11  1  6
 10 12  1  0
 12 13  2  0
 13 14  1  0
 14 15  2  0
 15 16  1  0
 10 17  1  0
  5 18  1  0
 18 19  1  0
 19 20  2  0
 20 21  1  0
 21 22  2  0
 22 23  1  0
 23 24  2  0
 24  2  1  0
 17  7  1  0
 24 19  1  0
 16 12  1  0
M  END
>  <ref_pdb>  (234) 
A4791a

>  <tags>  (234) 
{'fragmenstein_placed', 'openbind_a71ev2a_c1_fragmenstein'}

>  <distance_score>  (234) 
0.743097

>  <energy_score>  (234) 
-46.761679

>  <inchikey>  (234) 
FYJSPFYXYVMCOE-UHFFFAOYSA-N

>  <alias>  (234) 
C[C@@H]1CC[C@@](O)(N2CC[C@](O)(c3cnn[nH]3)C2)Cc2ccccc21

>  <smiles>  (234) 
C181372-P468

>  <HIPPO Pose ID>  (234) 
98135

>  <ref_mols>  (234) 
A4735a,A4798a

>  <HIPPO Compound ID>  (234) 
181372

$$$$
CSc1cccc2c1C[C@@](O)(N1CC[C@](O)(c3cnn[nH]3)C1)N(C)CS2
     RDKit          3D

 26 29  0  0  0  0  0  0  0  0999 V2000
    9.4485    9.1980   23.1534 C   0  0  0  0  0  0  0  0  0  0  0  0
    9.3735   10.8804   23.7654 S   0  0  0  0  0  0  0  0  0  0  0  0
    7.8970   10.9717   24.7773 C   0  0  0  0  0  0  0  0  0  0  0  0
    7.4489    9.9009   25.5356 C   0  0  0  0  0  0  0  0  0  0  0  0
    6.4180   10.0530   26.4647 C   0  0  0  0  0  0  0  0  0  0  0  0
    5.8403   11.2905   26.6710 C   0  0  0  0  0  0  0  0  0  0  0  0
    6.2361   12.3724   25.8954 C   0  0  0  0  0  0  0  0  0  0  0  0
    7.2048   12.1911   24.8970 C   0  0  0  0  0  0  0  0  0  0  0  0
    7.4983   13.3214   23.9495 C   0  0  0  0  0  0  0  0  0  0  0  0
    8.4525   14.3943   24.5621 C   0  0  1  0  0  0  0  0  0  0  0  0
    9.2083   13.8338   25.6221 O   0  0  0  0  0  0  0  0  0  0  0  0
    9.4157   14.9930   23.6199 N   0  0  0  0  0  0  0  0  0  0  0  0
   10.7858   15.2099   24.1107 C   0  0  0  0  0  0  0  0  0  0  0  0
   11.5641   15.6044   22.8629 C   0  0  0  0  0  0  0  0  0  0  0  0
   11.0260   14.6409   21.8299 C   0  0  2  0  0  0  0  0  0  0  0  0
   11.8819   13.4963   21.8017 O   0  0  0  0  0  0  0  0  0  0  0  0
   10.9822   15.1865   20.4723 C   0  0  0  0  0  0  0  0  0  0  0  0
   10.1586   16.1025   19.8651 C   0  0  0  0  0  0  0  0  0  0  0  0
   10.4426   16.1486   18.5385 N   0  0  0  0  0  0  0  0  0  0  0  0
   11.4695   15.3403   18.3143 N   0  0  0  0  0  0  0  0  0  0  0  0
   11.8458   14.8261   19.4842 N   0  0  0  0  0  0  0  0  0  0  0  0
    9.6323   14.2609   22.3595 C   0  0  0  0  0  0  0  0  0  0  0  0
    7.6443   15.4648   25.1690 N   0  0  0  0  0  0  0  0  0  0  0  0
    6.7708   16.1850   24.2276 C   0  0  0  0  0  0  0  0  0  0  0  0
    6.8771   15.0552   26.3659 C   0  0  0  0  0  0  0  0  0  0  0  0
    5.4399   13.9291   26.2013 S   0  0  0  0  0  0  0  0  0  0  0  0
  1  2  1  0
  2  3  1  0
  3  4  2  0
  4  5  1  0
  5  6  2  0
  6  7  1  0
  7  8  2  0
  8  9  1  0
  9 10  1  0
 10 11  1  1
 10 12  1  0
 12 13  1  0
 13 14  1  0
 14 15  1  0
 15 16  1  6
 15 17  1  0
 17 18  2  0
 18 19  1  0
 19 20  2  0
 20 21  1  0
 15 22  1  0
 10 23  1  0
 23 24  1  0
 23 25  1  0
 25 26  1  0
  8  3  1  0
 22 12  1  0
 26  7  1  0
 21 17  1  0
M  END
>  <ref_pdb>  (235) 
A4791a

>  <tags>  (235) 
{'fragmenstein_placed', 'openbind_a71ev2a_c1_fragmenstein'}

>  <distance_score>  (235) 
0.948289

>  <energy_score>  (235) 
-68.76304

>  <inchikey>  (235) 
BBCCSNBROVPFPM-UHFFFAOYSA-N

>  <alias>  (235) 
CSc1cccc2c1C[C@@](O)(N1CC[C@](O)(c3cnn[nH]3)C1)N(C)CS2

>  <smiles>  (235) 
C181421-P468

>  <HIPPO Pose ID>  (235) 
98170

>  <ref_mols>  (235) 
A4998a,A4798a

>  <HIPPO Compound ID>  (235) 
181421

$$$$
CSc1ccc(Br)cc1CC(O)(O)N1C[C@@](O)(c2cn(O)nn2)C[C@@H]1C
     RDKit          3D

 26 28  0  0  0  0  0  0  0  0999 V2000
    9.4410    9.3179   23.3626 C   0  0  0  0  0  0  0  0  0  0  0  0
    9.2685   11.0611   23.7503 S   0  0  0  0  0  0  0  0  0  0  0  0
    7.8845   11.2054   24.8692 C   0  0  0  0  0  0  0  0  0  0  0  0
    7.3919   10.1308   25.6090 C   0  0  0  0  0  0  0  0  0  0  0  0
    6.4157   10.3097   26.5991 C   0  0  0  0  0  0  0  0  0  0  0  0
    5.9419   11.5791   26.8820 C   0  0  0  0  0  0  0  0  0  0  0  0
    4.7485   11.8769   28.3045 Br  0  0  0  0  0  0  0  0  0  0  0  0
    6.3512   12.6473   26.1121 C   0  0  0  0  0  0  0  0  0  0  0  0
    7.2864   12.4620   25.0784 C   0  0  0  0  0  0  0  0  0  0  0  0
    7.5740   13.6759   24.2351 C   0  0  0  0  0  0  0  0  0  0  0  0
    8.8166   14.4945   24.6564 C   0  0  0  0  0  0  0  0  0  0  0  0
    9.0658   14.3391   26.0309 O   0  0  0  0  0  0  0  0  0  0  0  0
    8.4808   15.8401   24.5084 O   0  0  0  0  0  0  0  0  0  0  0  0
   10.0182   14.1961   23.9240 N   0  0  0  0  0  0  0  0  0  0  0  0
    9.8351   14.2830   22.4646 C   0  0  0  0  0  0  0  0  0  0  0  0
   11.2391   14.4887   21.8971 C   0  0  1  0  0  0  0  0  0  0  0  0
   11.9738   13.2694   22.0033 O   0  0  0  0  0  0  0  0  0  0  0  0
   11.2012   14.9691   20.5022 C   0  0  0  0  0  0  0  0  0  0  0  0
   10.3645   15.8982   19.9268 C   0  0  0  0  0  0  0  0  0  0  0  0
   10.5607   15.6870   18.6138 N   0  0  0  0  0  0  0  0  0  0  0  0
    9.6104   15.9045   17.6588 O   0  0  0  0  0  0  0  0  0  0  0  0
   11.5010   14.7884   18.3587 N   0  0  0  0  0  0  0  0  0  0  0  0
   11.9422   14.3548   19.5246 N   0  0  0  0  0  0  0  0  0  0  0  0
   11.8009   15.4697   22.8923 C   0  0  0  0  0  0  0  0  0  0  0  0
   11.2197   14.9929   24.2314 C   0  0  2  0  0  0  0  0  0  0  0  0
   12.2006   14.0822   24.9733 C   0  0  0  0  0  0  0  0  0  0  0  0
  1  2  1  0
  2  3  1  0
  3  4  2  0
  4  5  1  0
  5  6  2  0
  6  7  1  0
  6  8  1  0
  8  9  2  0
  9 10  1  0
 10 11  1  0
 11 12  1  0
 11 13  1  0
 11 14  1  0
 14 15  1  0
 15 16  1  0
 16 17  1  6
 16 18  1  0
 18 19  2  0
 19 20  1  0
 20 21  1  0
 20 22  1  0
 22 23  2  0
 16 24  1  0
 24 25  1  0
 25 26  1  6
  9  3  1  0
 25 14  1  0
 23 18  1  0
M  END
>  <ref_pdb>  (236) 
A4791a

>  <tags>  (236) 
{'fragmenstein_placed', 'openbind_a71ev2a_c1_fragmenstein'}

>  <distance_score>  (236) 
0.579778

>  <energy_score>  (236) 
-50.388727

>  <inchikey>  (236) 
SYWXCKSDPOORPI-UHFFFAOYSA-N

>  <alias>  (236) 
CSc1ccc(Br)cc1CC(O)(O)N1C[C@@](O)(c2cn(O)nn2)C[C@@H]1C

>  <smiles>  (236) 
C181426-P468

>  <HIPPO Pose ID>  (236) 
98172

>  <ref_mols>  (236) 
A4798a,A5022b

>  <HIPPO Compound ID>  (236) 
181426

$$$$
OC(O)(C[C@@H]1CCC[C@H]2CSCC[C@@H]21)N1CC[C@](O)(c2cnn[nH]2)C1
     RDKit          3D

 25 28  0  0  0  0  0  0  0  0999 V2000
   11.4753   13.4618   21.9568 O   0  0  0  0  0  0  0  0  0  0  0  0
   11.0170   14.8181   21.9338 C   0  0  2  0  0  0  0  0  0  0  0  0
   11.0367   15.2494   20.5364 C   0  0  0  0  0  0  0  0  0  0  0  0
   10.2429   16.0990   19.8044 C   0  0  0  0  0  0  0  0  0  0  0  0
   10.5665   15.9969   18.4902 N   0  0  0  0  0  0  0  0  0  0  0  0
   11.5824   15.1513   18.3862 N   0  0  0  0  0  0  0  0  0  0  0  0
   11.9293   14.7790   19.6192 N   0  0  0  0  0  0  0  0  0  0  0  0
   11.8714   15.5922   22.9015 C   0  0  0  0  0  0  0  0  0  0  0  0
   11.2590   15.2285   24.2634 C   0  0  0  0  0  0  0  0  0  0  0  0
    9.9448   14.6557   23.9793 N   0  0  0  0  0  0  0  0  0  0  0  0
    8.9208   14.7278   24.9800 C   0  0  0  0  0  0  0  0  0  0  0  0
    9.2980   13.8557   25.9998 O   0  0  0  0  0  0  0  0  0  0  0  0
    8.9139   15.9346   25.6691 O   0  0  0  0  0  0  0  0  0  0  0  0
    7.4731   14.4626   24.5077 C   0  0  0  0  0  0  0  0  0  0  0  0
    6.7822   13.1895   24.9960 C   0  0  2  0  0  0  0  0  0  0  0  0
    6.4508   13.2657   26.4960 C   0  0  0  0  0  0  0  0  0  0  0  0
    5.6181   12.0798   26.9318 C   0  0  0  0  0  0  0  0  0  0  0  0
    6.2652   10.7528   26.5841 C   0  0  0  0  0  0  0  0  0  0  0  0
    7.4883   10.8371   25.6536 C   0  0  1  0  0  0  0  0  0  0  0  0
    7.7875    9.4603   25.1234 C   0  0  0  0  0  0  0  0  0  0  0  0
    9.2195    9.1756   24.0666 S   0  0  0  0  0  0  0  0  0  0  0  0
    9.3365   10.6734   23.1530 C   0  0  0  0  0  0  0  0  0  0  0  0
    8.7222   11.9015   23.7663 C   0  0  0  0  0  0  0  0  0  0  0  0
    7.3964   11.8436   24.5330 C   0  0  2  0  0  0  0  0  0  0  0  0
    9.6437   14.9901   22.5940 C   0  0  0  0  0  0  0  0  0  0  0  0
  2  1  1  6
  2  3  1  0
  3  4  2  0
  4  5  1  0
  5  6  2  0
  6  7  1  0
  2  8  1  0
  8  9  1  0
  9 10  1  0
 10 11  1  0
 11 12  1  0
 11 13  1  0
 11 14  1  0
 15 14  1  1
 15 16  1  0
 16 17  1  0
 17 18  1  0
 19 18  1  6
 19 20  1  0
 20 21  1  0
 21 22  1  0
 22 23  1  0
 24 23  1  1
 10 25  1  0
 25  2  1  0
  7  3  1  0
 24 15  1  0
 24 19  1  0
M  END
>  <ref_pdb>  (237) 
A4791a

>  <tags>  (237) 
{'fragmenstein_placed', 'openbind_a71ev2a_c1_fragmenstein'}

>  <distance_score>  (237) 
0.958006

>  <energy_score>  (237) 
-21.828453

>  <inchikey>  (237) 
CGLRTFOBKGPTSK-UHFFFAOYSA-N

>  <alias>  (237) 
OC(O)(C[C@@H]1CCC[C@H]2CSCC[C@@H]21)N1CC[C@](O)(c2cnn[nH]2)C1

>  <smiles>  (237) 
C181432-P468

>  <HIPPO Pose ID>  (237) 
98180

>  <ref_mols>  (237) 
A5090a,A4798a,A5091a

>  <HIPPO Compound ID>  (237) 
181432

$$$$
CSc1ccc(C(=O)Nc2ccncc2)cc1C(=O)C(=O)N1CC[C@](O)(c2cn(O)nn2)C1
     RDKit          3D

 33 36  0  0  0  0  0  0  0  0999 V2000
    9.2489    9.5903   23.5410 C   0  0  0  0  0  0  0  0  0  0  0  0
    8.8911   11.3235   23.8645 S   0  0  0  0  0  0  0  0  0  0  0  0
    7.5714   11.3937   25.0601 C   0  0  0  0  0  0  0  0  0  0  0  0
    7.1378   10.2965   25.8015 C   0  0  0  0  0  0  0  0  0  0  0  0
    6.1627   10.4395   26.8032 C   0  0  0  0  0  0  0  0  0  0  0  0
    5.6053   11.6912   27.0887 C   0  0  0  0  0  0  0  0  0  0  0  0
    4.5904   11.8083   28.1810 C   0  0  0  0  0  0  0  0  0  0  0  0
    3.8178   10.8996   28.2837 O   0  0  0  0  0  0  0  0  0  0  0  0
    4.7396   13.0076   28.9601 N   0  0  0  0  0  0  0  0  0  0  0  0
    3.9757   13.5180   30.0094 C   0  0  0  0  0  0  0  0  0  0  0  0
    4.3619   14.7245   30.5875 C   0  0  0  0  0  0  0  0  0  0  0  0
    3.5999   15.2227   31.6315 C   0  0  0  0  0  0  0  0  0  0  0  0
    2.5055   14.6057   32.1213 N   0  0  0  0  0  0  0  0  0  0  0  0
    2.1521   13.4409   31.5370 C   0  0  0  0  0  0  0  0  0  0  0  0
    2.8484   12.8614   30.4893 C   0  0  0  0  0  0  0  0  0  0  0  0
    5.9646   12.7858   26.3084 C   0  0  0  0  0  0  0  0  0  0  0  0
    6.9396   12.6254   25.3150 C   0  0  0  0  0  0  0  0  0  0  0  0
    7.1916   13.7886   24.4649 C   0  0  0  0  0  0  0  0  0  0  0  0
    6.5371   13.9743   23.4470 O   0  0  0  0  0  0  0  0  0  0  0  0
    8.2596   14.7828   24.8977 C   0  0  0  0  0  0  0  0  0  0  0  0
    7.9175   15.7391   25.5373 O   0  0  0  0  0  0  0  0  0  0  0  0
    9.5234   14.4334   24.3662 N   0  0  0  0  0  0  0  0  0  0  0  0
   10.8683   15.0854   24.5212 C   0  0  0  0  0  0  0  0  0  0  0  0
   11.8625   14.9402   23.3709 C   0  0  0  0  0  0  0  0  0  0  0  0
   10.9452   14.4629   22.3135 C   0  0  2  0  0  0  0  0  0  0  0  0
   10.9889   13.0363   22.3627 O   0  0  0  0  0  0  0  0  0  0  0  0
   11.1298   14.9594   20.9309 C   0  0  0  0  0  0  0  0  0  0  0  0
   10.3606   15.8473   20.2118 C   0  0  0  0  0  0  0  0  0  0  0  0
   10.7585   15.6355   18.9396 N   0  0  0  0  0  0  0  0  0  0  0  0
   10.0115   15.9417   17.8421 O   0  0  0  0  0  0  0  0  0  0  0  0
   11.7348   14.7413   18.8407 N   0  0  0  0  0  0  0  0  0  0  0  0
   12.0185   14.3481   20.0756 N   0  0  0  0  0  0  0  0  0  0  0  0
    9.6681   14.9717   22.9740 C   0  0  0  0  0  0  0  0  0  0  0  0
  1  2  1  0
  2  3  1  0
  3  4  2  0
  4  5  1  0
  5  6  2  0
  6  7  1  0
  7  8  2  0
  7  9  1  0
  9 10  1  0
 10 11  2  0
 11 12  1  0
 12 13  2  0
 13 14  1  0
 14 15  2  0
  6 16  1  0
 16 17  2  0
 17 18  1  0
 18 19  2  0
 18 20  1  0
 20 21  2  0
 20 22  1  0
 22 23  1  0
 23 24  1  0
 24 25  1  0
 25 26  1  6
 25 27  1  0
 27 28  2  0
 28 29  1  0
 29 30  1  0
 29 31  1  0
 31 32  2  0
 25 33  1  0
 17  3  1  0
 33 22  1  0
 15 10  1  0
 32 27  1  0
M  END
>  <ref_pdb>  (238) 
A4791a

>  <tags>  (238) 
{'fragmenstein_placed', 'openbind_a71ev2a_c1_fragmenstein'}

>  <distance_score>  (238) 
0.928112

>  <energy_score>  (238) 
-25.15497

>  <inchikey>  (238) 
HRAPKXFSNLPORY-UHFFFAOYSA-N

>  <alias>  (238) 
CSc1ccc(C(=O)Nc2ccncc2)cc1C(=O)C(=O)N1CC[C@](O)(c2cn(O)nn2)C1

>  <smiles>  (238) 
C181440-P468

>  <HIPPO Pose ID>  (238) 
98182

>  <ref_mols>  (238) 
A4798a,A5203a

>  <HIPPO Compound ID>  (238) 
181440

$$$$
CS[C@@H]1CC[C@]2(CCNN2)C[C@H]1CC(O)(O)N1CC[C@](O)(c2cnn[nH]2)C1
     RDKit          3D

 27 30  0  0  0  0  0  0  0  0999 V2000
    9.5036    9.3516   23.8320 C   0  0  0  0  0  0  0  0  0  0  0  0
    8.7255   10.9420   23.5947 S   0  0  0  0  0  0  0  0  0  0  0  0
    7.8302   11.3442   25.1692 C   0  0  2  0  0  0  0  0  0  0  0  0
    7.0653   10.2054   25.8189 C   0  0  0  0  0  0  0  0  0  0  0  0
    6.0684   10.5953   26.9132 C   0  0  0  0  0  0  0  0  0  0  0  0
    5.9479   12.0876   27.2753 C   0  0  1  0  0  0  0  0  0  0  0  0
    4.6744   12.3371   28.0943 C   0  0  0  0  0  0  0  0  0  0  0  0
    5.1114   12.0863   29.5148 C   0  0  0  0  0  0  0  0  0  0  0  0
    6.4476   12.6627   29.5291 N   0  0  0  0  0  0  0  0  0  0  0  0
    7.0278   12.4535   28.2153 N   0  0  0  0  0  0  0  0  0  0  0  0
    5.9836   12.9900   26.0371 C   0  0  0  0  0  0  0  0  0  0  0  0
    6.9097   12.5527   24.8892 C   0  0  1  0  0  0  0  0  0  0  0  0
    7.5579   13.7658   24.1764 C   0  0  0  0  0  0  0  0  0  0  0  0
    8.9076   14.3115   24.7084 C   0  0  0  0  0  0  0  0  0  0  0  0
    8.5772   15.2814   25.6716 O   0  0  0  0  0  0  0  0  0  0  0  0
    9.6783   13.4012   25.4233 O   0  0  0  0  0  0  0  0  0  0  0  0
    9.7112   14.9693   23.7016 N   0  0  0  0  0  0  0  0  0  0  0  0
   11.1055   15.2176   24.0898 C   0  0  0  0  0  0  0  0  0  0  0  0
   11.7626   15.6099   22.7793 C   0  0  0  0  0  0  0  0  0  0  0  0
   11.1658   14.6137   21.8046 C   0  0  2  0  0  0  0  0  0  0  0  0
   12.0267   13.4826   21.7054 O   0  0  0  0  0  0  0  0  0  0  0  0
   11.0058   15.1646   20.4573 C   0  0  0  0  0  0  0  0  0  0  0  0
   10.1155   16.0599   19.9168 C   0  0  0  0  0  0  0  0  0  0  0  0
   10.3355   16.1591   18.5811 N   0  0  0  0  0  0  0  0  0  0  0  0
   11.3819   15.4012   18.2853 N   0  0  0  0  0  0  0  0  0  0  0  0
   11.8268   14.8577   19.4168 N   0  0  0  0  0  0  0  0  0  0  0  0
    9.8368   14.2003   22.4494 C   0  0  0  0  0  0  0  0  0  0  0  0
  1  2  1  0
  3  2  1  6
  3  4  1  0
  4  5  1  0
  6  5  1  6
  6  7  1  0
  7  8  1  0
  8  9  1  0
  9 10  1  0
  6 11  1  0
 11 12  1  0
 12 13  1  1
 13 14  1  0
 14 15  1  0
 14 16  1  0
 14 17  1  0
 17 18  1  0
 18 19  1  0
 19 20  1  0
 20 21  1  6
 20 22  1  0
 22 23  2  0
 23 24  1  0
 24 25  2  0
 25 26  1  0
 20 27  1  0
 12  3  1  0
 27 17  1  0
 10  6  1  0
 26 22  1  0
M  END
>  <ref_pdb>  (239) 
A4791a

>  <tags>  (239) 
{'fragmenstein_placed', 'openbind_a71ev2a_c1_fragmenstein'}

>  <distance_score>  (239) 
0.665101

>  <energy_score>  (239) 
-47.06985

>  <inchikey>  (239) 
DBXWMQHMKJRNCH-UHFFFAOYSA-N

>  <alias>  (239) 
CS[C@@H]1CC[C@]2(CCNN2)C[C@H]1CC(O)(O)N1CC[C@](O)(c2cnn[nH]2)C1

>  <smiles>  (239) 
C181441-P468

>  <HIPPO Pose ID>  (239) 
98183

>  <ref_mols>  (239) 
A4798a,A5203b

>  <HIPPO Compound ID>  (239) 
181441

$$$$
CCSc1ccccc1CC(O)(O)N1CC[C@](O)(c2cnn[nH]2)C1
     RDKit          3D

 24 26  0  0  0  0  0  0  0  0999 V2000
    9.9068    9.0549   22.6072 C   0  0  0  0  0  0  0  0  0  0  0  0
    9.6770    9.8121   23.8635 C   0  0  0  0  0  0  0  0  0  0  0  0
    8.6165   11.2063   23.5833 S   0  0  0  0  0  0  0  0  0  0  0  0
    7.5438   11.3067   24.9936 C   0  0  0  0  0  0  0  0  0  0  0  0
    7.1199   10.1939   25.7231 C   0  0  0  0  0  0  0  0  0  0  0  0
    6.2158   10.3188   26.7819 C   0  0  0  0  0  0  0  0  0  0  0  0
    5.7252   11.5654   27.1345 C   0  0  0  0  0  0  0  0  0  0  0  0
    6.1000   12.6767   26.3919 C   0  0  0  0  0  0  0  0  0  0  0  0
    6.9830   12.5535   25.3021 C   0  0  0  0  0  0  0  0  0  0  0  0
    7.2637   13.7849   24.4715 C   0  0  0  0  0  0  0  0  0  0  0  0
    8.5828   14.5413   24.7827 C   0  0  0  0  0  0  0  0  0  0  0  0
    8.9176   14.3959   26.1429 O   0  0  0  0  0  0  0  0  0  0  0  0
    8.2578   15.8919   24.6287 O   0  0  0  0  0  0  0  0  0  0  0  0
    9.7611   14.2309   23.9953 N   0  0  0  0  0  0  0  0  0  0  0  0
   10.9646   15.0300   24.3039 C   0  0  0  0  0  0  0  0  0  0  0  0
   11.6162   15.4546   22.9868 C   0  0  0  0  0  0  0  0  0  0  0  0
   10.9589   14.5637   21.9654 C   0  0  2  0  0  0  0  0  0  0  0  0
   11.6789   13.3337   21.9431 O   0  0  0  0  0  0  0  0  0  0  0  0
   10.9588   15.0986   20.5963 C   0  0  0  0  0  0  0  0  0  0  0  0
   10.1680   16.0155   19.9445 C   0  0  0  0  0  0  0  0  0  0  0  0
   10.4996   16.0448   18.6264 N   0  0  0  0  0  0  0  0  0  0  0  0
   11.5198   15.2173   18.4463 N   0  0  0  0  0  0  0  0  0  0  0  0
   11.8524   14.7185   19.6391 N   0  0  0  0  0  0  0  0  0  0  0  0
    9.5491   14.4042   22.5462 C   0  0  0  0  0  0  0  0  0  0  0  0
  1  2  1  0
  2  3  1  0
  3  4  1  0
  4  5  2  0
  5  6  1  0
  6  7  2  0
  7  8  1  0
  8  9  2  0
  9 10  1  0
 10 11  1  0
 11 12  1  0
 11 13  1  0
 11 14  1  0
 14 15  1  0
 15 16  1  0
 16 17  1  0
 17 18  1  6
 17 19  1  0
 19 20  2  0
 20 21  1  0
 21 22  2  0
 22 23  1  0
 17 24  1  0
  9  4  1  0
 24 14  1  0
 23 19  1  0
M  END
>  <ref_pdb>  (240) 
A4791a

>  <tags>  (240) 
{'fragmenstein_placed', 'openbind_a71ev2a_c1_fragmenstein'}

>  <distance_score>  (240) 
0.747369

>  <energy_score>  (240) 
-25.944478

>  <inchikey>  (240) 
BFSPLYFWEGSEAT-UHFFFAOYSA-N

>  <alias>  (240) 
CCSc1ccccc1CC(O)(O)N1CC[C@](O)(c2cnn[nH]2)C1

>  <smiles>  (240) 
C181443-P468

>  <HIPPO Pose ID>  (240) 
98184

>  <ref_mols>  (240) 
A5210b,A4798a

>  <HIPPO Compound ID>  (240) 
181443

$$$$
Cc1ccc2cc[nH]c2c1CC(O)(O)N1CC[C@](O)(c2cnn[nH]2)C1
     RDKit          3D

 25 28  0  0  0  0  0  0  0  0999 V2000
    8.8519   10.8584   23.9992 C   0  0  0  0  0  0  0  0  0  0  0  0
    7.7231   11.1767   24.9488 C   0  0  0  0  0  0  0  0  0  0  0  0
    7.2192   10.1495   25.7488 C   0  0  0  0  0  0  0  0  0  0  0  0
    6.2249   10.3703   26.7084 C   0  0  0  0  0  0  0  0  0  0  0  0
    5.7035   11.6611   26.8635 C   0  0  0  0  0  0  0  0  0  0  0  0
    4.7304   12.2373   27.7231 C   0  0  0  0  0  0  0  0  0  0  0  0
    4.5811   13.5556   27.3634 C   0  0  0  0  0  0  0  0  0  0  0  0
    5.4371   13.8051   26.3266 N   0  0  0  0  0  0  0  0  0  0  0  0
    6.1605   12.6681   26.0200 C   0  0  0  0  0  0  0  0  0  0  0  0
    7.1657   12.4679   25.0493 C   0  0  0  0  0  0  0  0  0  0  0  0
    7.5901   13.5933   24.1547 C   0  0  0  0  0  0  0  0  0  0  0  0
    8.8611   14.3948   24.5706 C   0  0  0  0  0  0  0  0  0  0  0  0
    9.1490   14.3343   25.9496 O   0  0  0  0  0  0  0  0  0  0  0  0
    8.5274   15.7367   24.3233 O   0  0  0  0  0  0  0  0  0  0  0  0
   10.0420   14.0319   23.8276 N   0  0  0  0  0  0  0  0  0  0  0  0
   11.2823   14.7420   24.1507 C   0  0  0  0  0  0  0  0  0  0  0  0
   11.7529   15.3964   22.8565 C   0  0  0  0  0  0  0  0  0  0  0  0
   11.2095   14.4747   21.7918 C   0  0  2  0  0  0  0  0  0  0  0  0
   12.0840   13.3653   21.6571 O   0  0  0  0  0  0  0  0  0  0  0  0
   11.0713   15.0927   20.4706 C   0  0  0  0  0  0  0  0  0  0  0  0
   10.1725   15.9860   19.9357 C   0  0  0  0  0  0  0  0  0  0  0  0
   10.4059   16.1156   18.6049 N   0  0  0  0  0  0  0  0  0  0  0  0
   11.4661   15.3795   18.3065 N   0  0  0  0  0  0  0  0  0  0  0  0
   11.9173   14.8351   19.4349 N   0  0  0  0  0  0  0  0  0  0  0  0
    9.8696   14.0358   22.3722 C   0  0  0  0  0  0  0  0  0  0  0  0
  1  2  1  0
  2  3  2  0
  3  4  1  0
  4  5  2  0
  5  6  1  0
  6  7  2  0
  7  8  1  0
  8  9  1  0
  9 10  2  0
 10 11  1  0
 11 12  1  0
 12 13  1  0
 12 14  1  0
 12 15  1  0
 15 16  1  0
 16 17  1  0
 17 18  1  0
 18 19  1  6
 18 20  1  0
 20 21  2  0
 21 22  1  0
 22 23  2  0
 23 24  1  0
 18 25  1  0
 10  2  1  0
 25 15  1  0
  9  5  1  0
 24 20  1  0
M  END
>  <ref_pdb>  (241) 
A4791a

>  <tags>  (241) 
{'fragmenstein_placed', 'openbind_a71ev2a_c1_fragmenstein'}

>  <distance_score>  (241) 
0.561782

>  <energy_score>  (241) 
-35.976212

>  <inchikey>  (241) 
QEUPNUUCFFBVFI-UHFFFAOYSA-N

>  <alias>  (241) 
Cc1ccc2cc[nH]c2c1CC(O)(O)N1CC[C@](O)(c2cnn[nH]2)C1

>  <smiles>  (241) 
C181448-P468

>  <HIPPO Pose ID>  (241) 
98187

>  <ref_mols>  (241) 
A5231a,A4798a

>  <HIPPO Compound ID>  (241) 
181448

$$$$
CS[C@@H]1CC[C@]2(CCCN2)C[C@@H]1CC(O)(O)N1CC[C@](O)(c2cnn[nH]2)C1
     RDKit          3D

 27 30  0  0  0  0  0  0  0  0999 V2000
    9.5547    9.4080   23.7618 C   0  0  0  0  0  0  0  0  0  0  0  0
    8.6768   10.9684   23.6184 S   0  0  0  0  0  0  0  0  0  0  0  0
    8.0372   11.3434   25.2964 C   0  0  2  0  0  0  0  0  0  0  0  0
    7.0762   10.2448   25.7680 C   0  0  0  0  0  0  0  0  0  0  0  0
    6.1569   10.4825   26.9668 C   0  0  0  0  0  0  0  0  0  0  0  0
    5.8553   11.9461   27.2819 C   0  0  1  0  0  0  0  0  0  0  0  0
    4.4705   12.1215   27.9148 C   0  0  0  0  0  0  0  0  0  0  0  0
    4.5757   13.3932   28.7477 C   0  0  0  0  0  0  0  0  0  0  0  0
    6.0662   13.6342   28.9179 C   0  0  0  0  0  0  0  0  0  0  0  0
    6.7248   12.4358   28.3783 N   0  0  0  0  0  0  0  0  0  0  0  0
    6.0153   12.7850   26.0050 C   0  0  0  0  0  0  0  0  0  0  0  0
    7.4621   12.7872   25.4636 C   0  0  2  0  0  0  0  0  0  0  0  0
    7.5304   13.7964   24.2850 C   0  0  0  0  0  0  0  0  0  0  0  0
    8.7655   14.7370   24.2705 C   0  0  0  0  0  0  0  0  0  0  0  0
    8.8966   15.3370   25.5417 O   0  0  0  0  0  0  0  0  0  0  0  0
    8.4514   15.7867   23.3892 O   0  0  0  0  0  0  0  0  0  0  0  0
    9.9824   14.0737   23.8764 N   0  0  0  0  0  0  0  0  0  0  0  0
   11.2450   14.7556   24.1607 C   0  0  0  0  0  0  0  0  0  0  0  0
   11.7232   15.3817   22.8624 C   0  0  0  0  0  0  0  0  0  0  0  0
   11.2194   14.4256   21.8050 C   0  0  2  0  0  0  0  0  0  0  0  0
   12.2075   13.4336   21.5574 O   0  0  0  0  0  0  0  0  0  0  0  0
   10.9533   15.0865   20.5208 C   0  0  0  0  0  0  0  0  0  0  0  0
    9.9816   15.9584   20.0924 C   0  0  0  0  0  0  0  0  0  0  0  0
   10.1504   16.2045   18.7652 N   0  0  0  0  0  0  0  0  0  0  0  0
   11.2277   15.5486   18.3631 N   0  0  0  0  0  0  0  0  0  0  0  0
   11.7501   14.9353   19.4246 N   0  0  0  0  0  0  0  0  0  0  0  0
    9.9949   13.7580   22.4323 C   0  0  0  0  0  0  0  0  0  0  0  0
  1  2  1  0
  3  2  1  6
  3  4  1  0
  4  5  1  0
  6  5  1  6
  6  7  1  0
  7  8  1  0
  8  9  1  0
  9 10  1  0
  6 11  1  0
 11 12  1  0
 12 13  1  6
 13 14  1  0
 14 15  1  0
 14 16  1  0
 14 17  1  0
 17 18  1  0
 18 19  1  0
 19 20  1  0
 20 21  1  6
 20 22  1  0
 22 23  2  0
 23 24  1  0
 24 25  2  0
 25 26  1  0
 20 27  1  0
 12  3  1  0
 27 17  1  0
 10  6  1  0
 26 22  1  0
M  END
>  <ref_pdb>  (242) 
A4791a

>  <tags>  (242) 
{'fragmenstein_placed', 'openbind_a71ev2a_c1_fragmenstein'}

>  <distance_score>  (242) 
0.79072

>  <energy_score>  (242) 
-46.480158

>  <inchikey>  (242) 
OKFLGWJNFLHFIS-UHFFFAOYSA-N

>  <alias>  (242) 
CS[C@@H]1CC[C@]2(CCCN2)C[C@@H]1CC(O)(O)N1CC[C@](O)(c2cnn[nH]2)C1

>  <smiles>  (242) 
C181450-P468

>  <HIPPO Pose ID>  (242) 
98189

>  <ref_mols>  (242) 
A5247b,A4798a

>  <HIPPO Compound ID>  (242) 
181450

$$$$
CSc1ccc(CC#N)cc1C[C@H](N=O)N1CCC[C@H](CCO)C1
     RDKit          3D

 24 25  0  0  0  0  0  0  0  0999 V2000
    9.2614    8.8959   23.5222 C   0  0  0  0  0  0  0  0  0  0  0  0
    9.0509   10.6812   23.5989 S   0  0  0  0  0  0  0  0  0  0  0  0
    7.7998   10.9967   24.8433 C   0  0  0  0  0  0  0  0  0  0  0  0
    7.1668    9.9899   25.5720 C   0  0  0  0  0  0  0  0  0  0  0  0
    6.2323   10.2879   26.5817 C   0  0  0  0  0  0  0  0  0  0  0  0
    5.9177   11.6077   26.9119 C   0  0  0  0  0  0  0  0  0  0  0  0
    5.0622   11.9668   28.1124 C   0  0  0  0  0  0  0  0  0  0  0  0
    3.7297   11.3507   28.1650 C   0  0  0  0  0  0  0  0  0  0  0  0
    2.6731   10.8688   28.2179 N   0  0  0  0  0  0  0  0  0  0  0  0
    6.5050   12.6174   26.1463 C   0  0  0  0  0  0  0  0  0  0  0  0
    7.4232   12.3284   25.1104 C   0  0  0  0  0  0  0  0  0  0  0  0
    7.9025   13.4924   24.2657 C   0  0  0  0  0  0  0  0  0  0  0  0
    9.3982   13.8880   24.3688 C   0  0  2  0  0  0  0  0  0  0  0  0
    9.6556   14.4884   25.7302 N   0  0  0  0  0  0  0  0  0  0  0  0
   10.8330   14.3739   26.0892 O   0  0  0  0  0  0  0  0  0  0  0  0
    9.7064   14.7339   23.1976 N   0  0  0  0  0  0  0  0  0  0  0  0
    9.1105   16.0649   23.3097 C   0  0  0  0  0  0  0  0  0  0  0  0
    9.2727   16.7861   21.9987 C   0  0  0  0  0  0  0  0  0  0  0  0
   10.7480   16.9360   21.6955 C   0  0  0  0  0  0  0  0  0  0  0  0
   11.5381   15.6478   21.6722 C   0  0  2  0  0  0  0  0  0  0  0  0
   11.5966   14.9579   20.2890 C   0  0  0  0  0  0  0  0  0  0  0  0
   10.4012   15.0872   19.3739 C   0  0  0  0  0  0  0  0  0  0  0  0
   10.3085   16.3728   18.7817 O   0  0  0  0  0  0  0  0  0  0  0  0
   11.1453   14.7766   22.8922 C   0  0  0  0  0  0  0  0  0  0  0  0
  1  2  1  0
  2  3  1  0
  3  4  2  0
  4  5  1  0
  5  6  2  0
  6  7  1  0
  7  8  1  0
  8  9  3  0
  6 10  1  0
 10 11  2  0
 11 12  1  0
 13 12  1  1
 13 14  1  0
 14 15  2  0
 13 16  1  0
 16 17  1  0
 17 18  1  0
 18 19  1  0
 19 20  1  0
 20 21  1  6
 21 22  1  0
 22 23  1  0
 20 24  1  0
 11  3  1  0
 24 16  1  0
M  END
>  <ref_pdb>  (243) 
A4791a

>  <tags>  (243) 
{'fragmenstein_placed', 'openbind_a71ev2a_c1_fragmenstein'}

>  <distance_score>  (243) 
0.946414

>  <energy_score>  (243) 
-59.515546

>  <inchikey>  (243) 
OGXOPRLPVWVISU-UHFFFAOYSA-N

>  <alias>  (243) 
CSc1ccc(CC#N)cc1C[C@H](N=O)N1CCC[C@H](CCO)C1

>  <smiles>  (243) 
C181958-P470

>  <HIPPO Pose ID>  (243) 
98415

>  <ref_mols>  (243) 
A4806b,A5203b

>  <HIPPO Compound ID>  (243) 
181958

$$$$
CSc1ccccc1C[C@H](N=O)N1CCC[C@@H](CCO)C1
     RDKit          3D

 21 22  0  0  0  0  0  0  0  0999 V2000
    9.3803    8.7168   23.4709 C   0  0  0  0  0  0  0  0  0  0  0  0
    9.3277   10.5072   23.6183 S   0  0  0  0  0  0  0  0  0  0  0  0
    8.0676   10.8606   24.8449 C   0  0  0  0  0  0  0  0  0  0  0  0
    7.2607    9.8746   25.4078 C   0  0  0  0  0  0  0  0  0  0  0  0
    6.2755   10.1998   26.3451 C   0  0  0  0  0  0  0  0  0  0  0  0
    6.0321   11.5222   26.6894 C   0  0  0  0  0  0  0  0  0  0  0  0
    6.8242   12.5215   26.1467 C   0  0  0  0  0  0  0  0  0  0  0  0
    7.8778   12.1954   25.2738 C   0  0  0  0  0  0  0  0  0  0  0  0
    8.8257   13.3028   24.8660 C   0  0  0  0  0  0  0  0  0  0  0  0
    8.3845   14.2449   23.7258 C   0  0  2  0  0  0  0  0  0  0  0  0
    7.5823   13.4622   22.7179 N   0  0  0  0  0  0  0  0  0  0  0  0
    6.3666   13.6538   22.8241 O   0  0  0  0  0  0  0  0  0  0  0  0
    9.5180   14.8975   23.0785 N   0  0  0  0  0  0  0  0  0  0  0  0
   10.6932   15.2446   23.8590 C   0  0  0  0  0  0  0  0  0  0  0  0
   11.8525   15.3292   22.8782 C   0  0  0  0  0  0  0  0  0  0  0  0
   11.6071   16.3926   21.8214 C   0  0  0  0  0  0  0  0  0  0  0  0
   10.2303   16.2622   21.1672 C   0  0  1  0  0  0  0  0  0  0  0  0
   10.1744   15.1409   20.1247 C   0  0  0  0  0  0  0  0  0  0  0  0
   11.0711   15.3580   18.9420 C   0  0  0  0  0  0  0  0  0  0  0  0
   10.7281   16.6157   18.4009 O   0  0  0  0  0  0  0  0  0  0  0  0
    9.1341   16.0207   22.2156 C   0  0  0  0  0  0  0  0  0  0  0  0
  1  2  1  0
  2  3  1  0
  3  4  2  0
  4  5  1  0
  5  6  2  0
  6  7  1  0
  7  8  2  0
  8  9  1  0
 10  9  1  1
 10 11  1  0
 11 12  2  0
 10 13  1  0
 13 14  1  0
 14 15  1  0
 15 16  1  0
 16 17  1  0
 17 18  1  6
 18 19  1  0
 19 20  1  0
 17 21  1  0
  8  3  1  0
 21 13  1  0
M  END
>  <ref_pdb>  (244) 
A4791a

>  <tags>  (244) 
{'fragmenstein_placed', 'openbind_a71ev2a_c1_fragmenstein'}

>  <distance_score>  (244) 
0.809075

>  <energy_score>  (244) 
-35.90088

>  <inchikey>  (244) 
GAIGGVYAGRLFMC-UHFFFAOYSA-N

>  <alias>  (244) 
CSc1ccccc1C[C@H](N=O)N1CCC[C@@H](CCO)C1

>  <smiles>  (244) 
C181906-P470

>  <HIPPO Pose ID>  (244) 
98423

>  <ref_mols>  (244) 
A5475a,A5584a,A5449b,A4806b

>  <HIPPO Compound ID>  (244) 
181906

$$$$
C[C@@H]1CO[C@@H]([C@H](N=O)N2CCC[C@H](CCO)C2)c2ccccc21
     RDKit          3D

 23 25  0  0  0  0  0  0  0  0999 V2000
    9.2825    9.5038   23.6402 C   0  0  0  0  0  0  0  0  0  0  0  0
    8.7573   10.9178   23.9209 C   0  0  2  0  0  0  0  0  0  0  0  0
    9.8855   11.9522   24.0264 C   0  0  0  0  0  0  0  0  0  0  0  0
    9.6736   12.9691   25.0015 O   0  0  0  0  0  0  0  0  0  0  0  0
    8.3483   13.5444   24.9792 C   0  0  1  0  0  0  0  0  0  0  0  0
    8.0054   14.4213   23.7111 C   0  0  2  0  0  0  0  0  0  0  0  0
    7.2209   13.5768   22.7326 N   0  0  0  0  0  0  0  0  0  0  0  0
    6.0841   14.0149   22.5228 O   0  0  0  0  0  0  0  0  0  0  0  0
    9.1929   15.0046   23.0990 N   0  0  0  0  0  0  0  0  0  0  0  0
   10.2273   15.6082   23.9221 C   0  0  0  0  0  0  0  0  0  0  0  0
   11.5577   15.3030   23.2341 C   0  0  0  0  0  0  0  0  0  0  0  0
   11.5622   15.8653   21.8174 C   0  0  0  0  0  0  0  0  0  0  0  0
   10.3301   15.3443   21.0583 C   0  0  2  0  0  0  0  0  0  0  0  0
   10.3006   15.8348   19.6188 C   0  0  0  0  0  0  0  0  0  0  0  0
   11.1349   14.9968   18.6638 C   0  0  0  0  0  0  0  0  0  0  0  0
   12.0642   14.1526   19.3128 O   0  0  0  0  0  0  0  0  0  0  0  0
    9.0491   15.6903   21.8201 C   0  0  0  0  0  0  0  0  0  0  0  0
    7.4256   12.4280   25.4161 C   0  0  0  0  0  0  0  0  0  0  0  0
    6.3839   12.6822   26.3148 C   0  0  0  0  0  0  0  0  0  0  0  0
    5.6987   11.6206   26.8893 C   0  0  0  0  0  0  0  0  0  0  0  0
    6.0445   10.3128   26.5575 C   0  0  0  0  0  0  0  0  0  0  0  0
    7.0318   10.0525   25.6060 C   0  0  0  0  0  0  0  0  0  0  0  0
    7.7282   11.1031   25.0179 C   0  0  0  0  0  0  0  0  0  0  0  0
  2  1  1  1
  2  3  1  0
  3  4  1  0
  5  4  1  6
  5  6  1  0
  6  7  1  0
  7  8  2  0
  6  9  1  6
  9 10  1  0
 10 11  1  0
 11 12  1  0
 12 13  1  0
 13 14  1  6
 14 15  1  0
 15 16  1  0
 13 17  1  0
  5 18  1  0
 18 19  2  0
 19 20  1  0
 20 21  2  0
 21 22  1  0
 22 23  2  0
 23  2  1  0
 17  9  1  0
 23 18  1  0
M  END
>  <ref_pdb>  (245) 
A4791a

>  <tags>  (245) 
{'fragmenstein_placed', 'openbind_a71ev2a_c1_fragmenstein'}

>  <distance_score>  (245) 
0.75628

>  <energy_score>  (245) 
-33.101895

>  <inchikey>  (245) 
WCLFIFLHTPCLFC-UHFFFAOYSA-N

>  <alias>  (245) 
C[C@@H]1CO[C@@H]([C@H](N=O)N2CCC[C@H](CCO)C2)c2ccccc21

>  <smiles>  (245) 
C181990-P470

>  <HIPPO Pose ID>  (245) 
98426

>  <ref_mols>  (245) 
A5512b,A4806b

>  <HIPPO Compound ID>  (245) 
181990

$$$$
CSc1cccc(Cl)c1C1=C[C@H]2CC[C@H](CCO)CN2C1=O
     RDKit          3D

 22 24  0  0  0  0  0  0  0  0999 V2000
    9.3761    8.6682   23.5053 C   0  0  0  0  0  0  0  0  0  0  0  0
    9.5368   10.4033   23.9758 S   0  0  0  0  0  0  0  0  0  0  0  0
    8.0251   10.7914   24.8432 C   0  0  0  0  0  0  0  0  0  0  0  0
    7.0170    9.8356   25.0204 C   0  0  0  0  0  0  0  0  0  0  0  0
    5.8454   10.1448   25.7061 C   0  0  0  0  0  0  0  0  0  0  0  0
    5.6733   11.4098   26.2481 C   0  0  0  0  0  0  0  0  0  0  0  0
    6.6510   12.3861   26.0552 C   0  0  0  0  0  0  0  0  0  0  0  0
    6.3383   13.9461   26.7271 Cl  0  0  0  0  0  0  0  0  0  0  0  0
    7.8296   12.1042   25.3377 C   0  0  0  0  0  0  0  0  0  0  0  0
    8.6630   13.2165   24.8514 C   0  0  0  0  0  0  0  0  0  0  0  0
    9.8327   13.7831   25.1962 C   0  0  0  0  0  0  0  0  0  0  0  0
   10.2542   14.8812   24.2399 C   0  0  1  0  0  0  0  0  0  0  0  0
   11.4925   14.5215   23.3979 C   0  0  0  0  0  0  0  0  0  0  0  0
   11.5534   15.2830   22.0571 C   0  0  0  0  0  0  0  0  0  0  0  0
   10.2353   15.1257   21.2819 C   0  0  2  0  0  0  0  0  0  0  0  0
   10.2205   15.7956   19.9039 C   0  0  0  0  0  0  0  0  0  0  0  0
   11.1709   15.1949   18.8835 C   0  0  0  0  0  0  0  0  0  0  0  0
   10.9476   15.7918   17.6053 O   0  0  0  0  0  0  0  0  0  0  0  0
    9.1152   15.6916   22.1618 C   0  0  0  0  0  0  0  0  0  0  0  0
    9.0816   14.9668   23.4157 N   0  0  0  0  0  0  0  0  0  0  0  0
    8.2455   13.9013   23.6158 C   0  0  0  0  0  0  0  0  0  0  0  0
    7.3382   13.5003   22.9113 O   0  0  0  0  0  0  0  0  0  0  0  0
  1  2  1  0
  2  3  1  0
  3  4  2  0
  4  5  1  0
  5  6  2  0
  6  7  1  0
  7  8  1  0
  7  9  2  0
  9 10  1  0
 10 11  2  0
 11 12  1  0
 12 13  1  6
 13 14  1  0
 14 15  1  0
 15 16  1  6
 16 17  1  0
 17 18  1  0
 15 19  1  0
 19 20  1  0
 20 21  1  0
 21 22  2  0
  9  3  1  0
 21 10  1  0
 20 12  1  0
M  END
>  <ref_pdb>  (246) 
A4791a

>  <tags>  (246) 
{'fragmenstein_placed', 'openbind_a71ev2a_c1_fragmenstein'}

>  <distance_score>  (246) 
0.525869

>  <energy_score>  (246) 
-52.56147

>  <inchikey>  (246) 
RXUNDRBYKCAMQB-UHFFFAOYSA-N

>  <alias>  (246) 
CSc1cccc(Cl)c1C1=C[C@H]2CC[C@H](CCO)CN2C1=O

>  <smiles>  (246) 
C182001-P471

>  <HIPPO Pose ID>  (246) 
98430

>  <ref_mols>  (246) 
A5666a,A4809a

>  <HIPPO Compound ID>  (246) 
182001

$$$$
CCSCc1ccccc1C[C@H](N=O)N1CCC[C@@H](C(=O)CO)C1
     RDKit          3D

 24 25  0  0  0  0  0  0  0  0999 V2000
    8.7154    7.8328   22.5926 C   0  0  0  0  0  0  0  0  0  0  0  0
    9.4792    9.1083   22.7237 C   0  0  0  0  0  0  0  0  0  0  0  0
   10.0083    9.3393   24.4166 S   0  0  0  0  0  0  0  0  0  0  0  0
    9.4525   11.0477   24.6177 C   0  0  0  0  0  0  0  0  0  0  0  0
    8.0821   11.2408   25.2340 C   0  0  0  0  0  0  0  0  0  0  0  0
    7.1075   10.2277   25.2434 C   0  0  0  0  0  0  0  0  0  0  0  0
    5.8479   10.4287   25.8084 C   0  0  0  0  0  0  0  0  0  0  0  0
    5.5282   11.6505   26.3800 C   0  0  0  0  0  0  0  0  0  0  0  0
    6.4519   12.6883   26.3421 C   0  0  0  0  0  0  0  0  0  0  0  0
    7.7166   12.5090   25.7480 C   0  0  0  0  0  0  0  0  0  0  0  0
    8.5868   13.7451   25.5531 C   0  0  0  0  0  0  0  0  0  0  0  0
    8.4353   14.5331   24.1980 C   0  0  2  0  0  0  0  0  0  0  0  0
    7.2052   14.0656   23.4759 N   0  0  0  0  0  0  0  0  0  0  0  0
    7.3695   12.9485   22.9710 O   0  0  0  0  0  0  0  0  0  0  0  0
    9.6680   14.5673   23.3764 N   0  0  0  0  0  0  0  0  0  0  0  0
   10.7747   15.2465   24.0435 C   0  0  0  0  0  0  0  0  0  0  0  0
   12.0347   14.8441   23.2943 C   0  0  0  0  0  0  0  0  0  0  0  0
   11.9504   15.1046   21.7937 C   0  0  0  0  0  0  0  0  0  0  0  0
   10.6765   15.8233   21.3955 C   0  0  1  0  0  0  0  0  0  0  0  0
   10.5479   16.0157   19.8867 C   0  0  0  0  0  0  0  0  0  0  0  0
    9.9823   17.0155   19.4449 O   0  0  0  0  0  0  0  0  0  0  0  0
   11.1087   14.9848   18.9242 C   0  0  0  0  0  0  0  0  0  0  0  0
   11.0551   15.4122   17.5688 O   0  0  0  0  0  0  0  0  0  0  0  0
    9.4413   15.1525   22.0174 C   0  0  0  0  0  0  0  0  0  0  0  0
  1  2  1  0
  2  3  1  0
  3  4  1  0
  4  5  1  0
  5  6  2  0
  6  7  1  0
  7  8  2  0
  8  9  1  0
  9 10  2  0
 10 11  1  0
 12 11  1  1
 12 13  1  0
 13 14  2  0
 12 15  1  0
 15 16  1  0
 16 17  1  0
 17 18  1  0
 18 19  1  0
 19 20  1  6
 20 21  2  0
 20 22  1  0
 22 23  1  0
 19 24  1  0
 10  5  1  0
 24 15  1  0
M  END
>  <ref_pdb>  (247) 
A4791a

>  <tags>  (247) 
{'fragmenstein_placed', 'openbind_a71ev2a_c1_fragmenstein'}

>  <distance_score>  (247) 
0.814508

>  <energy_score>  (247) 
-71.923297

>  <inchikey>  (247) 
IEGLJRXZWZHGQG-UHFFFAOYSA-N

>  <alias>  (247) 
CCSCc1ccccc1C[C@H](N=O)N1CCC[C@@H](C(=O)CO)C1

>  <smiles>  (247) 
C182105-P471

>  <HIPPO Pose ID>  (247) 
98490

>  <ref_mols>  (247) 
A3968a,A4809a

>  <HIPPO Compound ID>  (247) 
182105

$$$$
CSc1cccc(C)c1C[C@H](N=O)N1CCC[C@@H](CCO)C1
     RDKit          3D

 22 23  0  0  0  0  0  0  0  0999 V2000
    9.3024    8.8892   23.5935 C   0  0  0  0  0  0  0  0  0  0  0  0
    9.5172   10.5470   24.2941 S   0  0  0  0  0  0  0  0  0  0  0  0
    7.9477   10.9280   25.0807 C   0  0  0  0  0  0  0  0  0  0  0  0
    6.9251    9.9768   25.1393 C   0  0  0  0  0  0  0  0  0  0  0  0
    5.7133   10.2638   25.7603 C   0  0  0  0  0  0  0  0  0  0  0  0
    5.4907   11.5135   26.3236 C   0  0  0  0  0  0  0  0  0  0  0  0
    6.4710   12.5093   26.2601 C   0  0  0  0  0  0  0  0  0  0  0  0
    6.1145   13.8878   26.7586 C   0  0  0  0  0  0  0  0  0  0  0  0
    7.7153   12.2212   25.6361 C   0  0  0  0  0  0  0  0  0  0  0  0
    8.7145   13.3583   25.4355 C   0  0  0  0  0  0  0  0  0  0  0  0
    8.4611   14.3486   24.2510 C   0  0  2  0  0  0  0  0  0  0  0  0
    7.1711   14.0619   23.5363 N   0  0  0  0  0  0  0  0  0  0  0  0
    7.1470   12.9398   23.0246 O   0  0  0  0  0  0  0  0  0  0  0  0
    9.6524   14.4973   23.4041 N   0  0  0  0  0  0  0  0  0  0  0  0
   10.7549   15.1825   24.0587 C   0  0  0  0  0  0  0  0  0  0  0  0
   12.0052   14.8346   23.2685 C   0  0  0  0  0  0  0  0  0  0  0  0
   11.8781   15.1234   21.7737 C   0  0  0  0  0  0  0  0  0  0  0  0
   10.5543   15.7786   21.4068 C   0  0  1  0  0  0  0  0  0  0  0  0
   10.3050   15.9695   19.8974 C   0  0  0  0  0  0  0  0  0  0  0  0
   11.2635   15.3020   18.9214 C   0  0  0  0  0  0  0  0  0  0  0  0
   11.2207   15.9961   17.6772 O   0  0  0  0  0  0  0  0  0  0  0  0
    9.3732   15.0462   22.0664 C   0  0  0  0  0  0  0  0  0  0  0  0
  1  2  1  0
  2  3  1  0
  3  4  2  0
  4  5  1  0
  5  6  2  0
  6  7  1  0
  7  8  1  0
  7  9  2  0
  9 10  1  0
 11 10  1  1
 11 12  1  0
 12 13  2  0
 11 14  1  0
 14 15  1  0
 15 16  1  0
 16 17  1  0
 17 18  1  0
 18 19  1  6
 19 20  1  0
 20 21  1  0
 18 22  1  0
  9  3  1  0
 22 14  1  0
M  END
>  <ref_pdb>  (248) 
A4791a

>  <tags>  (248) 
{'fragmenstein_placed', 'openbind_a71ev2a_c1_fragmenstein'}

>  <distance_score>  (248) 
0.637311

>  <energy_score>  (248) 
-19.318422

>  <inchikey>  (248) 
BSVXJKRMERDWGF-UHFFFAOYSA-N

>  <alias>  (248) 
CSc1cccc(C)c1C[C@H](N=O)N1CCC[C@@H](CCO)C1

>  <smiles>  (248) 
C182109-P471

>  <HIPPO Pose ID>  (248) 
98492

>  <ref_mols>  (248) 
A3992a,A4809a

>  <HIPPO Compound ID>  (248) 
182109

$$$$
CSc1ccc(Cl)cc1C[C@H](N=O)N1CCC[C@H](CCO)C1
     RDKit          3D

 22 23  0  0  0  0  0  0  0  0999 V2000
    9.2550    8.8644   23.6311 C   0  0  0  0  0  0  0  0  0  0  0  0
    9.4863   10.5510   24.2492 S   0  0  0  0  0  0  0  0  0  0  0  0
    7.9495   10.9574   25.0732 C   0  0  0  0  0  0  0  0  0  0  0  0
    6.8852   10.0500   25.1506 C   0  0  0  0  0  0  0  0  0  0  0  0
    5.6909   10.3877   25.7968 C   0  0  0  0  0  0  0  0  0  0  0  0
    5.5407   11.6404   26.3748 C   0  0  0  0  0  0  0  0  0  0  0  0
    4.0717   12.0842   27.1496 Cl  0  0  0  0  0  0  0  0  0  0  0  0
    6.5775   12.5596   26.3135 C   0  0  0  0  0  0  0  0  0  0  0  0
    7.7795   12.2433   25.6472 C   0  0  0  0  0  0  0  0  0  0  0  0
    8.7645   13.3889   25.4459 C   0  0  0  0  0  0  0  0  0  0  0  0
    8.4892   14.3863   24.2614 C   0  0  2  0  0  0  0  0  0  0  0  0
    7.1586   14.1043   23.6149 N   0  0  0  0  0  0  0  0  0  0  0  0
    7.1209   12.9958   23.0699 O   0  0  0  0  0  0  0  0  0  0  0  0
    9.6373   14.5093   23.3447 N   0  0  0  0  0  0  0  0  0  0  0  0
   10.8051   15.1151   23.9956 C   0  0  0  0  0  0  0  0  0  0  0  0
   12.0088   14.9676   23.0769 C   0  0  0  0  0  0  0  0  0  0  0  0
   11.7725   15.6562   21.7397 C   0  0  0  0  0  0  0  0  0  0  0  0
   10.4913   15.1058   21.1157 C   0  0  2  0  0  0  0  0  0  0  0  0
   10.1837   15.7405   19.7582 C   0  0  0  0  0  0  0  0  0  0  0  0
   11.1343   15.2767   18.6671 C   0  0  0  0  0  0  0  0  0  0  0  0
   10.8262   15.9184   17.4381 O   0  0  0  0  0  0  0  0  0  0  0  0
    9.3288   15.2689   22.1099 C   0  0  0  0  0  0  0  0  0  0  0  0
  1  2  1  0
  2  3  1  0
  3  4  2  0
  4  5  1  0
  5  6  2  0
  6  7  1  0
  6  8  1  0
  8  9  2  0
  9 10  1  0
 11 10  1  1
 11 12  1  0
 12 13  2  0
 11 14  1  0
 14 15  1  0
 15 16  1  0
 16 17  1  0
 17 18  1  0
 18 19  1  6
 19 20  1  0
 20 21  1  0
 18 22  1  0
  9  3  1  0
 22 14  1  0
M  END
>  <ref_pdb>  (249) 
A4791a

>  <tags>  (249) 
{'fragmenstein_placed', 'openbind_a71ev2a_c1_fragmenstein'}

>  <distance_score>  (249) 
0.49169

>  <energy_score>  (249) 
-50.152743

>  <inchikey>  (249) 
SNNKCQMKKUBBPN-UHFFFAOYSA-N

>  <alias>  (249) 
CSc1ccc(Cl)cc1C[C@H](N=O)N1CCC[C@H](CCO)C1

>  <smiles>  (249) 
C182121-P471

>  <HIPPO Pose ID>  (249) 
98499

>  <ref_mols>  (249) 
A4309a,A4365b,A4809a

>  <HIPPO Compound ID>  (249) 
182121

$$$$
COc1cc(C[C@H](N=O)N2CCC[C@H](CCO)C2)c(SC)cc1OC
     RDKit          3D

 25 26  0  0  0  0  0  0  0  0999 V2000
    3.8491   12.2525   27.7810 C   0  0  0  0  0  0  0  0  0  0  0  0
    4.6871   13.0002   26.9071 O   0  0  0  0  0  0  0  0  0  0  0  0
    5.7501   12.3224   26.3746 C   0  0  0  0  0  0  0  0  0  0  0  0
    6.8859   13.0939   26.2204 C   0  0  0  0  0  0  0  0  0  0  0  0
    8.0682   12.5598   25.6734 C   0  0  0  0  0  0  0  0  0  0  0  0
    9.1476   13.5833   25.3732 C   0  0  0  0  0  0  0  0  0  0  0  0
    8.8818   14.2116   23.9748 C   0  0  2  0  0  0  0  0  0  0  0  0
    9.0168   13.1389   22.9587 N   0  0  0  0  0  0  0  0  0  0  0  0
   10.1189   12.5890   23.0013 O   0  0  0  0  0  0  0  0  0  0  0  0
    9.5630   15.4748   23.6753 N   0  0  0  0  0  0  0  0  0  0  0  0
   10.9245   15.6255   24.1541 C   0  0  0  0  0  0  0  0  0  0  0  0
   11.9936   15.0777   23.2220 C   0  0  0  0  0  0  0  0  0  0  0  0
   11.8466   15.6456   21.8195 C   0  0  0  0  0  0  0  0  0  0  0  0
   10.4481   15.3559   21.2822 C   0  0  2  0  0  0  0  0  0  0  0  0
   10.2480   15.9037   19.8674 C   0  0  0  0  0  0  0  0  0  0  0  0
   11.1572   15.2797   18.8137 C   0  0  0  0  0  0  0  0  0  0  0  0
   11.1620   16.0883   17.6432 O   0  0  0  0  0  0  0  0  0  0  0  0
    9.4009   15.9282   22.2743 C   0  0  0  0  0  0  0  0  0  0  0  0
    8.1284   11.2012   25.2967 C   0  0  0  0  0  0  0  0  0  0  0  0
    9.6501   10.4007   24.7795 S   0  0  0  0  0  0  0  0  0  0  0  0
    9.1201    9.0441   23.7081 C   0  0  0  0  0  0  0  0  0  0  0  0
    6.9595   10.4584   25.3982 C   0  0  0  0  0  0  0  0  0  0  0  0
    5.7749   11.0101   25.9137 C   0  0  0  0  0  0  0  0  0  0  0  0
    4.5991   10.3331   25.9637 O   0  0  0  0  0  0  0  0  0  0  0  0
    4.6255    8.9955   25.5231 C   0  0  0  0  0  0  0  0  0  0  0  0
  1  2  1  0
  2  3  1  0
  3  4  2  0
  4  5  1  0
  5  6  1  0
  7  6  1  1
  7  8  1  0
  8  9  2  0
  7 10  1  0
 10 11  1  0
 11 12  1  0
 12 13  1  0
 13 14  1  0
 14 15  1  6
 15 16  1  0
 16 17  1  0
 14 18  1  0
  5 19  2  0
 19 20  1  0
 20 21  1  0
 19 22  1  0
 22 23  2  0
 23 24  1  0
 24 25  1  0
 23  3  1  0
 18 10  1  0
M  END
>  <ref_pdb>  (250) 
A4791a

>  <tags>  (250) 
{'fragmenstein_placed', 'openbind_a71ev2a_c1_fragmenstein'}

>  <distance_score>  (250) 
0.794964

>  <energy_score>  (250) 
-36.409648

>  <inchikey>  (250) 
JFTIVCICNQOZAI-UHFFFAOYSA-N

>  <alias>  (250) 
COc1cc(C[C@H](N=O)N2CCC[C@H](CCO)C2)c(SC)cc1OC

>  <smiles>  (250) 
C182125-P471

>  <HIPPO Pose ID>  (250) 
98503

>  <ref_mols>  (250) 
A4315a,A4809a

>  <HIPPO Compound ID>  (250) 
182125

$$$$
CNNc1ccccc1C[C@H](N=O)N1CCC[C@H](C(=O)CO)C1
     RDKit          3D

 23 24  0  0  0  0  0  0  0  0999 V2000
    4.9128   15.5489   26.3714 C   0  0  0  0  0  0  0  0  0  0  0  0
    4.8693   14.1103   26.1245 N   0  0  0  0  0  0  0  0  0  0  0  0
    6.0642   13.5184   26.6420 N   0  0  0  0  0  0  0  0  0  0  0  0
    6.3127   12.2118   26.1250 C   0  0  0  0  0  0  0  0  0  0  0  0
    5.3612   11.1979   26.2331 C   0  0  0  0  0  0  0  0  0  0  0  0
    5.5963    9.9445   25.6646 C   0  0  0  0  0  0  0  0  0  0  0  0
    6.7937    9.6806   25.0069 C   0  0  0  0  0  0  0  0  0  0  0  0
    7.7660   10.6635   24.9283 C   0  0  0  0  0  0  0  0  0  0  0  0
    7.5264   11.9326   25.4776 C   0  0  0  0  0  0  0  0  0  0  0  0
    8.5343   13.0173   25.2409 C   0  0  0  0  0  0  0  0  0  0  0  0
    8.1074   14.1229   24.2450 C   0  0  2  0  0  0  0  0  0  0  0  0
    7.0302   13.6573   23.3490 N   0  0  0  0  0  0  0  0  0  0  0  0
    6.1392   14.4988   23.2007 O   0  0  0  0  0  0  0  0  0  0  0  0
    9.3610   14.5154   23.6087 N   0  0  0  0  0  0  0  0  0  0  0  0
    9.3858   14.7294   22.1616 C   0  0  0  0  0  0  0  0  0  0  0  0
   10.8409   14.7783   21.6914 C   0  0  0  0  0  0  0  0  0  0  0  0
   11.6713   15.7572   22.5041 C   0  0  0  0  0  0  0  0  0  0  0  0
   11.3937   15.6302   24.0062 C   0  0  2  0  0  0  0  0  0  0  0  0
   12.0922   14.4577   24.7144 C   0  0  0  0  0  0  0  0  0  0  0  0
   12.8609   13.6609   24.1684 O   0  0  0  0  0  0  0  0  0  0  0  0
   11.8948   14.3301   26.2251 C   0  0  0  0  0  0  0  0  0  0  0  0
   13.1226   13.9752   26.8548 O   0  0  0  0  0  0  0  0  0  0  0  0
    9.9168   15.6604   24.2903 C   0  0  0  0  0  0  0  0  0  0  0  0
  1  2  1  0
  2  3  1  0
  3  4  1  0
  4  5  2  0
  5  6  1  0
  6  7  2  0
  7  8  1  0
  8  9  2  0
  9 10  1  0
 11 10  1  1
 11 12  1  0
 12 13  2  0
 11 14  1  0
 14 15  1  0
 15 16  1  0
 16 17  1  0
 17 18  1  0
 18 19  1  6
 19 20  2  0
 19 21  1  0
 21 22  1  0
 18 23  1  0
  9  4  1  0
 23 14  1  0
M  END
>  <ref_pdb>  (251) 
A4791a

>  <tags>  (251) 
{'fragmenstein_placed', 'openbind_a71ev2a_c1_fragmenstein'}

>  <distance_score>  (251) 
0.911631

>  <energy_score>  (251) 
-37.092009

>  <inchikey>  (251) 
KGEGNRYOTDGQLV-UHFFFAOYSA-N

>  <alias>  (251) 
CNNc1ccccc1C[C@H](N=O)N1CCC[C@H](C(=O)CO)C1

>  <smiles>  (251) 
C182163-P471

>  <HIPPO Pose ID>  (251) 
98519

>  <ref_mols>  (251) 
A4456a,A4809a

>  <HIPPO Compound ID>  (251) 
182163

$$$$
C[C@@H](CCC=O)C(=O)CO
     RDKit          3D

 10  9  0  0  0  0  0  0  0  0999 V2000
    8.0978   14.5449   25.9353 C   0  0  0  0  0  0  0  0  0  0  0  0
    8.6109   13.3887   25.0717 C   0  0  1  0  0  0  0  0  0  0  0  0
    7.7094   12.1558   25.3121 C   0  0  0  0  0  0  0  0  0  0  0  0
    7.8712   10.9060   24.4472 C   0  0  0  0  0  0  0  0  0  0  0  0
    9.2780   10.4974   24.1163 C   0  0  0  0  0  0  0  0  0  0  0  0
    9.6590    9.3314   24.1303 O   0  0  0  0  0  0  0  0  0  0  0  0
    8.6784   13.8506   23.6187 C   0  0  0  0  0  0  0  0  0  0  0  0
    8.0817   13.2379   22.7329 O   0  0  0  0  0  0  0  0  0  0  0  0
    9.5462   15.0679   23.2995 C   0  0  0  0  0  0  0  0  0  0  0  0
   10.8783   14.9060   23.7627 O   0  0  0  0  0  0  0  0  0  0  0  0
  2  1  1  1
  2  3  1  0
  3  4  1  0
  4  5  1  0
  5  6  2  0
  2  7  1  0
  7  8  2  0
  7  9  1  0
  9 10  1  0
M  END
>  <ref_pdb>  (252) 
A4791a

>  <tags>  (252) 
{'fragmenstein_placed', 'openbind_a71ev2a_c1_fragmenstein'}

>  <distance_score>  (252) 
0.839655

>  <energy_score>  (252) 
-12.321866

>  <inchikey>  (252) 
RUKKUCYHUKCBDF-UHFFFAOYSA-N

>  <alias>  (252) 
C[C@@H](CCC=O)C(=O)CO

>  <smiles>  (252) 
C182169-P471

>  <HIPPO Pose ID>  (252) 
98521

>  <ref_mols>  (252) 
A4509a,A4809a

>  <HIPPO Compound ID>  (252) 
182169

$$$$
CSc1ccccc1C[C@@H](N=O)N1C[C@@H](C)C[C@H](CCO)C1
     RDKit          3D

 22 23  0  0  0  0  0  0  0  0999 V2000
    9.3665    9.0177   23.7791 C   0  0  0  0  0  0  0  0  0  0  0  0
    9.5334   10.6136   24.6351 S   0  0  0  0  0  0  0  0  0  0  0  0
    7.8729   10.9999   25.2187 C   0  0  0  0  0  0  0  0  0  0  0  0
    6.8999    9.9890   25.2274 C   0  0  0  0  0  0  0  0  0  0  0  0
    5.6391   10.1933   25.7840 C   0  0  0  0  0  0  0  0  0  0  0  0
    5.3211   11.4118   26.3584 C   0  0  0  0  0  0  0  0  0  0  0  0
    6.2385   12.4517   26.3079 C   0  0  0  0  0  0  0  0  0  0  0  0
    7.5036   12.2906   25.6994 C   0  0  0  0  0  0  0  0  0  0  0  0
    8.2801   13.6081   25.5187 C   0  0  0  0  0  0  0  0  0  0  0  0
    9.0198   13.8629   24.1867 C   0  0  1  0  0  0  0  0  0  0  0  0
    8.4314   13.1490   23.0443 N   0  0  0  0  0  0  0  0  0  0  0  0
    7.2126   13.0070   23.0968 O   0  0  0  0  0  0  0  0  0  0  0  0
    9.3858   15.2721   23.9114 N   0  0  0  0  0  0  0  0  0  0  0  0
   10.7447   15.5830   24.3617 C   0  0  0  0  0  0  0  0  0  0  0  0
   11.8545   15.0825   23.4229 C   0  0  1  0  0  0  0  0  0  0  0  0
   11.9843   13.5724   23.4169 C   0  0  0  0  0  0  0  0  0  0  0  0
   11.6585   15.6166   22.0044 C   0  0  0  0  0  0  0  0  0  0  0  0
   10.2750   15.2457   21.4779 C   0  0  2  0  0  0  0  0  0  0  0  0
   10.0484   15.7952   20.0578 C   0  0  0  0  0  0  0  0  0  0  0  0
   11.0111   15.2698   18.9931 C   0  0  0  0  0  0  0  0  0  0  0  0
   10.7303   15.8593   17.7248 O   0  0  0  0  0  0  0  0  0  0  0  0
    9.2091   15.7432   22.5013 C   0  0  0  0  0  0  0  0  0  0  0  0
  1  2  1  0
  2  3  1  0
  3  4  2  0
  4  5  1  0
  5  6  2  0
  6  7  1  0
  7  8  2  0
  8  9  1  0
 10  9  1  1
 10 11  1  0
 11 12  2  0
 10 13  1  0
 13 14  1  0
 14 15  1  0
 15 16  1  6
 15 17  1  0
 17 18  1  0
 18 19  1  6
 19 20  1  0
 20 21  1  0
 18 22  1  0
  8  3  1  0
 22 13  1  0
M  END
>  <ref_pdb>  (253) 
A4791a

>  <tags>  (253) 
{'fragmenstein_placed', 'openbind_a71ev2a_c1_fragmenstein'}

>  <distance_score>  (253) 
0.777941

>  <energy_score>  (253) 
-18.238066

>  <inchikey>  (253) 
WNWPBURIRJZWDB-UHFFFAOYSA-N

>  <alias>  (253) 
CSc1ccccc1C[C@@H](N=O)N1C[C@@H](C)C[C@H](CCO)C1

>  <smiles>  (253) 
C182134-P471

>  <HIPPO Pose ID>  (253) 
98524

>  <ref_mols>  (253) 
A4547a,A4809a

>  <HIPPO Compound ID>  (253) 
182134

$$$$
CSc1ccc2scnc2c1C[C@H](N=O)N1CCC[C@H](CCO)C1
     RDKit          3D

 24 26  0  0  0  0  0  0  0  0999 V2000
    9.3475    8.7476   23.6341 C   0  0  0  0  0  0  0  0  0  0  0  0
    9.4210   10.5220   23.9771 S   0  0  0  0  0  0  0  0  0  0  0  0
    7.9175   10.8836   24.8765 C   0  0  0  0  0  0  0  0  0  0  0  0
    6.8908    9.9409   24.9769 C   0  0  0  0  0  0  0  0  0  0  0  0
    5.7115   10.2053   25.6757 C   0  0  0  0  0  0  0  0  0  0  0  0
    5.5699   11.4574   26.2759 C   0  0  0  0  0  0  0  0  0  0  0  0
    4.2382   12.0903   27.1623 S   0  0  0  0  0  0  0  0  0  0  0  0
    5.0838   13.5544   27.3733 C   0  0  0  0  0  0  0  0  0  0  0  0
    6.2955   13.6048   26.8747 N   0  0  0  0  0  0  0  0  0  0  0  0
    6.5708   12.4215   26.2057 C   0  0  0  0  0  0  0  0  0  0  0  0
    7.7636   12.1581   25.4846 C   0  0  0  0  0  0  0  0  0  0  0  0
    8.7659   13.2882   25.3189 C   0  0  0  0  0  0  0  0  0  0  0  0
    8.4548   14.3622   24.2205 C   0  0  2  0  0  0  0  0  0  0  0  0
    7.1696   14.0098   23.5215 N   0  0  0  0  0  0  0  0  0  0  0  0
    6.3017   14.8806   23.6565 O   0  0  0  0  0  0  0  0  0  0  0  0
    9.6090   14.5137   23.3118 N   0  0  0  0  0  0  0  0  0  0  0  0
   10.7653   15.1215   23.9825 C   0  0  0  0  0  0  0  0  0  0  0  0
   11.9805   14.9780   23.0768 C   0  0  0  0  0  0  0  0  0  0  0  0
   11.7561   15.6671   21.7372 C   0  0  0  0  0  0  0  0  0  0  0  0
   10.4778   15.1208   21.1015 C   0  0  2  0  0  0  0  0  0  0  0  0
   10.1841   15.7534   19.7405 C   0  0  0  0  0  0  0  0  0  0  0  0
   11.1399   15.2794   18.6588 C   0  0  0  0  0  0  0  0  0  0  0  0
   10.8470   15.9186   17.4251 O   0  0  0  0  0  0  0  0  0  0  0  0
    9.3064   15.2865   22.0858 C   0  0  0  0  0  0  0  0  0  0  0  0
  1  2  1  0
  2  3  1  0
  3  4  2  0
  4  5  1  0
  5  6  2  0
  6  7  1  0
  7  8  1  0
  8  9  2  0
  9 10  1  0
 10 11  2  0
 11 12  1  0
 13 12  1  1
 13 14  1  0
 14 15  2  0
 13 16  1  0
 16 17  1  0
 17 18  1  0
 18 19  1  0
 19 20  1  0
 20 21  1  6
 21 22  1  0
 22 23  1  0
 20 24  1  0
 11  3  1  0
 24 16  1  0
 10  6  1  0
M  END
>  <ref_pdb>  (254) 
A4791a

>  <tags>  (254) 
{'fragmenstein_placed', 'openbind_a71ev2a_c1_fragmenstein'}

>  <distance_score>  (254) 
0.602025

>  <energy_score>  (254) 
-94.731999

>  <inchikey>  (254) 
QBIWCRLJRSIZFF-UHFFFAOYSA-N

>  <alias>  (254) 
CSc1ccc2scnc2c1C[C@H](N=O)N1CCC[C@H](CCO)C1

>  <smiles>  (254) 
C182181-P471

>  <HIPPO Pose ID>  (254) 
98526

>  <ref_mols>  (254) 
A4559a,A4809a

>  <HIPPO Compound ID>  (254) 
182181

$$$$
CSc1ccc(Br)cc1C[C@H](N=O)N1C[C@@H](C)C[C@H](CCO)C1
     RDKit          3D

 23 24  0  0  0  0  0  0  0  0999 V2000
    9.1798    8.8607   23.7429 C   0  0  0  0  0  0  0  0  0  0  0  0
    9.5634   10.5498   24.2697 S   0  0  0  0  0  0  0  0  0  0  0  0
    8.1040   11.1290   25.1212 C   0  0  0  0  0  0  0  0  0  0  0  0
    6.9601   10.3306   25.2678 C   0  0  0  0  0  0  0  0  0  0  0  0
    5.8274   10.8092   25.9348 C   0  0  0  0  0  0  0  0  0  0  0  0
    5.8380   12.0905   26.4636 C   0  0  0  0  0  0  0  0  0  0  0  0
    4.3714   12.8429   27.3446 Br  0  0  0  0  0  0  0  0  0  0  0  0
    6.9485   12.8989   26.3334 C   0  0  0  0  0  0  0  0  0  0  0  0
    8.0791   12.4476   25.6456 C   0  0  0  0  0  0  0  0  0  0  0  0
    9.1128   13.5336   25.3473 C   0  0  0  0  0  0  0  0  0  0  0  0
    8.6238   14.4873   24.2050 C   0  0  2  0  0  0  0  0  0  0  0  0
    8.1184   13.6174   23.1153 N   0  0  0  0  0  0  0  0  0  0  0  0
    6.8821   13.5898   23.0721 O   0  0  0  0  0  0  0  0  0  0  0  0
    9.4877   15.5826   23.7560 N   0  0  0  0  0  0  0  0  0  0  0  0
   10.8462   15.6806   24.2357 C   0  0  0  0  0  0  0  0  0  0  0  0
   11.8842   15.0817   23.2896 C   0  0  1  0  0  0  0  0  0  0  0  0
   11.8340   13.5691   23.2958 C   0  0  0  0  0  0  0  0  0  0  0  0
   11.7212   15.6203   21.8666 C   0  0  0  0  0  0  0  0  0  0  0  0
   10.3001   15.3795   21.3613 C   0  0  2  0  0  0  0  0  0  0  0  0
   10.1138   15.8795   19.9205 C   0  0  0  0  0  0  0  0  0  0  0  0
   11.0513   15.2684   18.8839 C   0  0  0  0  0  0  0  0  0  0  0  0
   10.8073   15.8416   17.6014 O   0  0  0  0  0  0  0  0  0  0  0  0
    9.3172   16.0490   22.3609 C   0  0  0  0  0  0  0  0  0  0  0  0
  1  2  1  0
  2  3  1  0
  3  4  2  0
  4  5  1  0
  5  6  2  0
  6  7  1  0
  6  8  1  0
  8  9  2  0
  9 10  1  0
 11 10  1  1
 11 12  1  0
 12 13  2  0
 11 14  1  0
 14 15  1  0
 15 16  1  0
 16 17  1  6
 16 18  1  0
 18 19  1  0
 19 20  1  6
 20 21  1  0
 21 22  1  0
 19 23  1  0
  9  3  1  0
 23 14  1  0
M  END
>  <ref_pdb>  (255) 
A4791a

>  <tags>  (255) 
{'fragmenstein_placed', 'openbind_a71ev2a_c1_fragmenstein'}

>  <distance_score>  (255) 
0.986557

>  <energy_score>  (255) 
-40.6775

>  <inchikey>  (255) 
BLNUXUYGSMWJHQ-UHFFFAOYSA-N

>  <alias>  (255) 
CSc1ccc(Br)cc1C[C@H](N=O)N1C[C@@H](C)C[C@H](CCO)C1

>  <smiles>  (255) 
C182188-P471

>  <HIPPO Pose ID>  (255) 
98528

>  <ref_mols>  (255) 
A4580b,A4809a

>  <HIPPO Compound ID>  (255) 
182188

$$$$
CSc1ccccc1C[C@@H](N=O)N1CCC[C@H](C(=O)CO)C1
     RDKit          3D

 22 23  0  0  0  0  0  0  0  0999 V2000
    9.2511    8.9558   23.6891 C   0  0  0  0  0  0  0  0  0  0  0  0
    9.5103   10.6783   24.2026 S   0  0  0  0  0  0  0  0  0  0  0  0
    7.9926   11.1427   25.0281 C   0  0  0  0  0  0  0  0  0  0  0  0
    6.9498   10.2304   25.2261 C   0  0  0  0  0  0  0  0  0  0  0  0
    5.7882   10.5946   25.9106 C   0  0  0  0  0  0  0  0  0  0  0  0
    5.6498   11.8729   26.4288 C   0  0  0  0  0  0  0  0  0  0  0  0
    6.6610   12.8026   26.2254 C   0  0  0  0  0  0  0  0  0  0  0  0
    7.8276   12.4638   25.5046 C   0  0  0  0  0  0  0  0  0  0  0  0
    8.7798   13.6103   25.1649 C   0  0  0  0  0  0  0  0  0  0  0  0
    8.6311   14.1805   23.7133 C   0  0  1  0  0  0  0  0  0  0  0  0
    7.1606   14.4015   23.4672 N   0  0  0  0  0  0  0  0  0  0  0  0
    6.6057   13.4101   22.9873 O   0  0  0  0  0  0  0  0  0  0  0  0
    9.3684   15.4375   23.4801 N   0  0  0  0  0  0  0  0  0  0  0  0
   10.7179   15.5206   24.0161 C   0  0  0  0  0  0  0  0  0  0  0  0
   11.7301   14.7356   23.1972 C   0  0  0  0  0  0  0  0  0  0  0  0
   11.7346   15.2024   21.7487 C   0  0  0  0  0  0  0  0  0  0  0  0
   10.3349   15.1680   21.1457 C   0  0  2  0  0  0  0  0  0  0  0  0
   10.3984   15.8049   19.7622 C   0  0  0  0  0  0  0  0  0  0  0  0
   10.0568   16.9695   19.5753 O   0  0  0  0  0  0  0  0  0  0  0  0
   10.9664   14.9608   18.6317 C   0  0  0  0  0  0  0  0  0  0  0  0
   10.9843   15.6223   17.3797 O   0  0  0  0  0  0  0  0  0  0  0  0
    9.3412   15.8969   22.0673 C   0  0  0  0  0  0  0  0  0  0  0  0
  1  2  1  0
  2  3  1  0
  3  4  2  0
  4  5  1  0
  5  6  2  0
  6  7  1  0
  7  8  2  0
  8  9  1  0
 10  9  1  1
 10 11  1  0
 11 12  2  0
 10 13  1  0
 13 14  1  0
 14 15  1  0
 15 16  1  0
 16 17  1  0
 17 18  1  6
 18 19  2  0
 18 20  1  0
 20 21  1  0
 17 22  1  0
  8  3  1  0
 22 13  1  0
M  END
>  <ref_pdb>  (256) 
A4791a

>  <tags>  (256) 
{'fragmenstein_placed', 'openbind_a71ev2a_c1_fragmenstein'}

>  <distance_score>  (256) 
0.538655

>  <energy_score>  (256) 
-60.374715

>  <inchikey>  (256) 
AFWCNCDEVDPSGG-UHFFFAOYSA-N

>  <alias>  (256) 
CSc1ccccc1C[C@@H](N=O)N1CCC[C@H](C(=O)CO)C1

>  <smiles>  (256) 
C181935-P471

>  <HIPPO Pose ID>  (256) 
98531

>  <ref_mols>  (256) 
A4644b,A4809a

>  <HIPPO Compound ID>  (256) 
181935

$$$$
C#Cc1ccc(SC)c(C[C@@H](N=O)N2CCC[C@@H](CCO)C2)c1
     RDKit          3D

 23 24  0  0  0  0  0  0  0  0999 V2000
    3.6349   12.5762   27.9111 C   0  0  0  0  0  0  0  0  0  0  0  0
    4.4884   12.0695   27.2403 C   0  0  0  0  0  0  0  0  0  0  0  0
    5.5834   11.6510   26.4401 C   0  0  0  0  0  0  0  0  0  0  0  0
    5.6829   10.4054   25.8381 C   0  0  0  0  0  0  0  0  0  0  0  0
    6.8252   10.0790   25.0937 C   0  0  0  0  0  0  0  0  0  0  0  0
    7.8742   10.9945   24.9390 C   0  0  0  0  0  0  0  0  0  0  0  0
    9.3743   10.6046   24.0521 S   0  0  0  0  0  0  0  0  0  0  0  0
    9.2421    8.8353   23.6785 C   0  0  0  0  0  0  0  0  0  0  0  0
    7.7294   12.2723   25.5170 C   0  0  0  0  0  0  0  0  0  0  0  0
    8.6863   13.4272   25.3443 C   0  0  0  0  0  0  0  0  0  0  0  0
    8.5692   14.1952   23.9942 C   0  0  1  0  0  0  0  0  0  0  0  0
    7.1208   14.5309   23.7654 N   0  0  0  0  0  0  0  0  0  0  0  0
    6.5581   13.7233   23.0206 O   0  0  0  0  0  0  0  0  0  0  0  0
    9.3950   15.4290   23.9595 N   0  0  0  0  0  0  0  0  0  0  0  0
    9.5923   15.9233   22.5817 C   0  0  0  0  0  0  0  0  0  0  0  0
   10.5539   15.0619   21.7602 C   0  0  0  0  0  0  0  0  0  0  0  0
   11.8365   14.7143   22.5236 C   0  0  0  0  0  0  0  0  0  0  0  0
   11.5570   14.2614   23.9681 C   0  0  1  0  0  0  0  0  0  0  0  0
   12.8038   13.8692   24.7798 C   0  0  0  0  0  0  0  0  0  0  0  0
   12.5960   13.5314   26.2558 C   0  0  0  0  0  0  0  0  0  0  0  0
   12.5764   14.7026   27.0575 O   0  0  0  0  0  0  0  0  0  0  0  0
   10.6862   15.3212   24.6356 C   0  0  0  0  0  0  0  0  0  0  0  0
    6.5936   12.5752   26.2723 C   0  0  0  0  0  0  0  0  0  0  0  0
  1  2  3  0
  2  3  1  0
  3  4  2  0
  4  5  1  0
  5  6  2  0
  6  7  1  0
  7  8  1  0
  6  9  1  0
  9 10  1  0
 11 10  1  1
 11 12  1  0
 12 13  2  0
 11 14  1  0
 14 15  1  0
 15 16  1  0
 16 17  1  0
 17 18  1  0
 18 19  1  1
 19 20  1  0
 20 21  1  0
 18 22  1  0
  9 23  2  0
 23  3  1  0
 22 14  1  0
M  END
>  <ref_pdb>  (257) 
A4791a

>  <tags>  (257) 
{'fragmenstein_placed', 'openbind_a71ev2a_c1_fragmenstein'}

>  <distance_score>  (257) 
0.949136

>  <energy_score>  (257) 
-43.336371

>  <inchikey>  (257) 
BPTFCRKOVTZCQF-UHFFFAOYSA-N

>  <alias>  (257) 
C#Cc1ccc(SC)c(C[C@@H](N=O)N2CCC[C@@H](CCO)C2)c1

>  <smiles>  (257) 
C182197-P471

>  <HIPPO Pose ID>  (257) 
98535

>  <ref_mols>  (257) 
A4674a,A4809a

>  <HIPPO Compound ID>  (257) 
182197

$$$$
C#[S@@H](C)c1ccccc1C[C@@H](N=O)N1CCC[C@@H](CCO)C1
     RDKit          3D

 22 23  0  0  0  0  0  0  0  0999 V2000
   10.7565   11.6138   25.1013 C   0  0  0  0  0  0  0  0  0  0  0  0
    9.4121   10.8116   24.2666 S   0  0  1  0  0  6  0  0  0  0  0  0
    9.7515    9.0949   24.1825 C   0  0  0  0  0  0  0  0  0  0  0  0
    7.9703   11.1593   25.1803 C   0  0  0  0  0  0  0  0  0  0  0  0
    6.9730   10.1815   25.1847 C   0  0  0  0  0  0  0  0  0  0  0  0
    5.7680   10.4159   25.8383 C   0  0  0  0  0  0  0  0  0  0  0  0
    5.5481   11.6292   26.4775 C   0  0  0  0  0  0  0  0  0  0  0  0
    6.5175   12.6302   26.4228 C   0  0  0  0  0  0  0  0  0  0  0  0
    7.7369   12.4331   25.7432 C   0  0  0  0  0  0  0  0  0  0  0  0
    8.6097   13.6841   25.5232 C   0  0  0  0  0  0  0  0  0  0  0  0
    8.7943   14.1230   24.0307 C   0  0  1  0  0  0  0  0  0  0  0  0
    7.4445   13.9726   23.4050 N   0  0  0  0  0  0  0  0  0  0  0  0
    7.3251   12.8269   22.9548 O   0  0  0  0  0  0  0  0  0  0  0  0
    9.3961   15.4639   23.8492 N   0  0  0  0  0  0  0  0  0  0  0  0
   10.7852   15.5325   24.2884 C   0  0  0  0  0  0  0  0  0  0  0  0
   11.7666   14.7396   23.4187 C   0  0  0  0  0  0  0  0  0  0  0  0
   11.3428   14.6245   21.9558 C   0  0  0  0  0  0  0  0  0  0  0  0
   10.5293   15.8333   21.5340 C   0  0  1  0  0  0  0  0  0  0  0  0
   10.1161   15.8284   20.0447 C   0  0  0  0  0  0  0  0  0  0  0  0
   11.1472   15.3182   19.0448 C   0  0  0  0  0  0  0  0  0  0  0  0
   10.8531   15.7887   17.7312 O   0  0  0  0  0  0  0  0  0  0  0  0
    9.2888   16.0029   22.4610 C   0  0  0  0  0  0  0  0  0  0  0  0
  1  2  3  0
  2  3  1  1
  2  4  1  0
  4  5  2  0
  5  6  1  0
  6  7  2  0
  7  8  1  0
  8  9  2  0
  9 10  1  0
 11 10  1  1
 11 12  1  0
 12 13  2  0
 11 14  1  0
 14 15  1  0
 15 16  1  0
 16 17  1  0
 17 18  1  0
 18 19  1  6
 19 20  1  0
 20 21  1  0
 18 22  1  0
  9  4  1  0
 22 14  1  0
M  END
>  <ref_pdb>  (258) 
A4791a

>  <tags>  (258) 
{'fragmenstein_placed', 'openbind_a71ev2a_c1_fragmenstein'}

>  <distance_score>  (258) 
0.839211

>  <energy_score>  (258) 
-6439.491454

>  <inchikey>  (258) 
WMUUVFWDNLHIJJ-UHFFFAOYSA-N

>  <alias>  (258) 
C#[S@@H](C)c1ccccc1C[C@@H](N=O)N1CCC[C@@H](CCO)C1

>  <smiles>  (258) 
C182207-P471

>  <HIPPO Pose ID>  (258) 
98536

>  <ref_mols>  (258) 
A4711a,A4809a

>  <HIPPO Compound ID>  (258) 
182207

$$$$
CSc1cccc2c1C(N1CCC[C@H](C(N)(O)O)C1)=NC2
     RDKit          3D

 21 23  0  0  0  0  0  0  0  0999 V2000
    9.3744    8.8924   23.0684 C   0  0  0  0  0  0  0  0  0  0  0  0
    9.5303   10.6828   23.2673 S   0  0  0  0  0  0  0  0  0  0  0  0
    8.1707   11.1200   24.3070 C   0  0  0  0  0  0  0  0  0  0  0  0
    7.6125   10.2301   25.2305 C   0  0  0  0  0  0  0  0  0  0  0  0
    6.5223   10.5912   26.0403 C   0  0  0  0  0  0  0  0  0  0  0  0
    5.9079   11.8286   25.8818 C   0  0  0  0  0  0  0  0  0  0  0  0
    6.4010   12.6679   24.9069 C   0  0  0  0  0  0  0  0  0  0  0  0
    7.5548   12.3585   24.2114 C   0  0  0  0  0  0  0  0  0  0  0  0
    7.8189   13.5699   23.4231 C   0  0  0  0  0  0  0  0  0  0  0  0
    9.0723   13.8558   22.9351 N   0  0  0  0  0  0  0  0  0  0  0  0
    9.9912   14.3116   23.9958 C   0  0  0  0  0  0  0  0  0  0  0  0
   11.4224   14.3367   23.5107 C   0  0  0  0  0  0  0  0  0  0  0  0
   11.5253   15.2504   22.3002 C   0  0  0  0  0  0  0  0  0  0  0  0
   10.6067   14.6963   21.1966 C   0  0  2  0  0  0  0  0  0  0  0  0
   10.7738   15.4420   19.8695 C   0  0  0  0  0  0  0  0  0  0  0  0
   10.2786   14.7311   18.7660 N   0  0  0  0  0  0  0  0  0  0  0  0
   10.1668   16.6975   19.8548 O   0  0  0  0  0  0  0  0  0  0  0  0
   12.1243   15.5703   19.6071 O   0  0  0  0  0  0  0  0  0  0  0  0
    9.1583   14.6622   21.6964 C   0  0  0  0  0  0  0  0  0  0  0  0
    6.8243   14.4109   23.3684 N   0  0  0  0  0  0  0  0  0  0  0  0
    5.8200   13.9133   24.3372 C   0  0  0  0  0  0  0  0  0  0  0  0
  1  2  1  0
  2  3  1  0
  3  4  2  0
  4  5  1  0
  5  6  2  0
  6  7  1  0
  7  8  2  0
  8  9  1  0
  9 10  1  0
 10 11  1  0
 11 12  1  0
 12 13  1  0
 13 14  1  0
 14 15  1  6
 15 16  1  0
 15 17  1  0
 15 18  1  0
 14 19  1  0
  9 20  2  0
 20 21  1  0
  8  3  1  0
 19 10  1  0
 21  7  1  0
M  END
>  <ref_pdb>  (259) 
A4840a

>  <tags>  (259) 
{'fragmenstein_placed', 'openbind_a71ev2a_c1_fragmenstein'}

>  <distance_score>  (259) 
0.977001

>  <energy_score>  (259) 
-36.310352

>  <inchikey>  (259) 
HOAFIQOISFJLKG-UHFFFAOYSA-N

>  <alias>  (259) 
CSc1cccc2c1C(N1CCC[C@H](C(N)(O)O)C1)=NC2

>  <smiles>  (259) 
C210967-P487

>  <HIPPO Pose ID>  (259) 
100415

>  <ref_mols>  (259) 
A4274b,A4846a

>  <HIPPO Compound ID>  (259) 
210967

$$$$
Cc1ccc(C(=CN)N2C[C@@]3(CCC2=O)NCO[C@@H]3N)c2cc[nH]c12
     RDKit          3D

 25 28  0  0  0  0  0  0  0  0999 V2000
    5.5493   10.1114   27.1886 C   0  0  0  0  0  0  0  0  0  0  0  0
    6.2419   11.0617   26.2570 C   0  0  0  0  0  0  0  0  0  0  0  0
    5.9047   12.4234   26.3178 C   0  0  0  0  0  0  0  0  0  0  0  0
    6.3807   13.3294   25.3812 C   0  0  0  0  0  0  0  0  0  0  0  0
    7.2384   12.9090   24.3558 C   0  0  0  0  0  0  0  0  0  0  0  0
    7.4845   13.7360   23.1621 C   0  0  0  0  0  0  0  0  0  0  0  0
    6.4052   14.0222   22.3933 C   0  0  0  0  0  0  0  0  0  0  0  0
    5.0653   13.7685   22.5871 N   0  0  0  0  0  0  0  0  0  0  0  0
    8.7888   14.1410   22.8251 N   0  0  0  0  0  0  0  0  0  0  0  0
    8.9572   14.7708   21.5258 C   0  0  0  0  0  0  0  0  0  0  0  0
   10.3487   15.1802   21.0605 C   0  0  1  0  0  0  0  0  0  0  0  0
   11.1275   15.7274   22.2478 C   0  0  0  0  0  0  0  0  0  0  0  0
   11.1698   14.6463   23.3147 C   0  0  0  0  0  0  0  0  0  0  0  0
    9.7847   14.2915   23.7942 C   0  0  0  0  0  0  0  0  0  0  0  0
    9.6188   14.1300   25.0012 O   0  0  0  0  0  0  0  0  0  0  0  0
   11.2074   14.1432   20.5007 N   0  0  0  0  0  0  0  0  0  0  0  0
   11.8334   14.7588   19.3436 C   0  0  0  0  0  0  0  0  0  0  0  0
   11.2955   16.0433   19.1085 O   0  0  0  0  0  0  0  0  0  0  0  0
   10.1165   16.1040   19.8642 C   0  0  2  0  0  0  0  0  0  0  0  0
    9.7902   17.4577   20.2142 N   0  0  0  0  0  0  0  0  0  0  0  0
    7.7503   11.5941   24.3715 C   0  0  0  0  0  0  0  0  0  0  0  0
    8.7175   10.8854   23.5945 C   0  0  0  0  0  0  0  0  0  0  0  0
    8.7004    9.5762   24.0000 C   0  0  0  0  0  0  0  0  0  0  0  0
    7.7703    9.4734   24.9979 N   0  0  0  0  0  0  0  0  0  0  0  0
    7.2114   10.6949   25.2962 C   0  0  0  0  0  0  0  0  0  0  0  0
  1  2  1  0
  2  3  2  0
  3  4  1  0
  4  5  2  0
  5  6  1  0
  6  7  2  3
  7  8  1  0
  6  9  1  0
  9 10  1  0
 11 10  1  1
 11 12  1  0
 12 13  1  0
 13 14  1  0
 14 15  2  0
 11 16  1  0
 16 17  1  0
 17 18  1  0
 18 19  1  0
 19 20  1  1
  5 21  1  0
 21 22  1  0
 22 23  2  0
 23 24  1  0
 24 25  1  0
 25  2  1  0
 14  9  1  0
 25 21  2  0
 19 11  1  0
M  END
>  <ref_pdb>  (260) 
A4840a

>  <tags>  (260) 
{'fragmenstein_placed', 'openbind_a71ev2a_c1_fragmenstein'}

>  <distance_score>  (260) 
0.974043

>  <energy_score>  (260) 
-67.22478

>  <inchikey>  (260) 
JBIVGESMOMEDMX-UHFFFAOYSA-N

>  <alias>  (260) 
Cc1ccc(C(=CN)N2C[C@@]3(CCC2=O)NCO[C@@H]3N)c2cc[nH]c12

>  <smiles>  (260) 
C211146-P487

>  <HIPPO Pose ID>  (260) 
100567

>  <ref_mols>  (260) 
A5584b,A5449a,A4846a

>  <HIPPO Compound ID>  (260) 
211146

$$$$
Cc1cc2c3c(c[nH]c3c1)C[C@@]2(O)N1C[C@H](C(=O)NO)CCC1=O
     RDKit          3D

 24 27  0  0  0  0  0  0  0  0999 V2000
   10.0218    9.3804   22.7827 C   0  0  0  0  0  0  0  0  0  0  0  0
    9.2605   10.4359   23.5206 C   0  0  0  0  0  0  0  0  0  0  0  0
    9.5113   11.7783   23.1903 C   0  0  0  0  0  0  0  0  0  0  0  0
    8.7725   12.7539   23.8112 C   0  0  0  0  0  0  0  0  0  0  0  0
    7.9272   12.3671   24.8135 C   0  0  0  0  0  0  0  0  0  0  0  0
    7.2278   13.3286   25.5094 C   0  0  0  0  0  0  0  0  0  0  0  0
    6.3746   12.6243   26.3192 C   0  0  0  0  0  0  0  0  0  0  0  0
    6.5919   11.2528   26.0646 N   0  0  0  0  0  0  0  0  0  0  0  0
    7.6035   11.0970   25.1398 C   0  0  0  0  0  0  0  0  0  0  0  0
    8.2752   10.0718   24.4840 C   0  0  0  0  0  0  0  0  0  0  0  0
    7.7410   14.6653   24.9928 C   0  0  0  0  0  0  0  0  0  0  0  0
    8.4967   14.2091   23.5890 C   0  0  2  0  0  0  0  0  0  0  0  0
    7.4692   14.1714   22.5703 O   0  0  0  0  0  0  0  0  0  0  0  0
    9.6423   14.9205   23.0546 N   0  0  0  0  0  0  0  0  0  0  0  0
    9.7110   15.0057   21.6015 C   0  0  0  0  0  0  0  0  0  0  0  0
   10.6928   16.0451   21.1183 C   0  0  2  0  0  0  0  0  0  0  0  0
   10.6433   16.0078   19.5990 C   0  0  0  0  0  0  0  0  0  0  0  0
   10.0548   16.8193   19.0145 O   0  0  0  0  0  0  0  0  0  0  0  0
   11.4309   14.8037   19.0967 N   0  0  0  0  0  0  0  0  0  0  0  0
   11.5818   14.3032   17.8287 O   0  0  0  0  0  0  0  0  0  0  0  0
   12.0686   15.9347   21.7671 C   0  0  0  0  0  0  0  0  0  0  0  0
   12.1036   14.9534   22.9270 C   0  0  0  0  0  0  0  0  0  0  0  0
   10.8363   14.9077   23.7717 C   0  0  0  0  0  0  0  0  0  0  0  0
   10.9094   14.7500   24.9891 O   0  0  0  0  0  0  0  0  0  0  0  0
  1  2  1  0
  2  3  2  0
  3  4  1  0
  4  5  2  0
  5  6  1  0
  6  7  2  0
  7  8  1  0
  8  9  1  0
  9 10  2  0
  6 11  1  0
 11 12  1  0
 12 13  1  6
 12 14  1  0
 14 15  1  0
 15 16  1  0
 16 17  1  6
 17 18  2  0
 17 19  1  0
 19 20  1  0
 16 21  1  0
 21 22  1  0
 22 23  1  0
 23 24  2  0
 10  2  1  0
 23 14  1  0
 12  4  1  0
  9  5  1  0
M  END
>  <ref_pdb>  (261) 
A4840a

>  <tags>  (261) 
{'fragmenstein_placed', 'openbind_a71ev2a_c1_fragmenstein'}

>  <distance_score>  (261) 
0.64971

>  <energy_score>  (261) 
-4.423231

>  <inchikey>  (261) 
UROBGGNSTLIPEU-UHFFFAOYSA-N

>  <alias>  (261) 
Cc1cc2c3c(c[nH]c3c1)C[C@@]2(O)N1C[C@H](C(=O)NO)CCC1=O

>  <smiles>  (261) 
C211238-P488

>  <HIPPO Pose ID>  (261) 
100630

>  <ref_mols>  (261) 
A4847a,A3884b

>  <HIPPO Compound ID>  (261) 
211238

$$$$
Cc1cc2c3c(c[nH]c3c1)C[C@@]2(O)N1C[C@@H](C(N)(O)O)CCC1=O
     RDKit          3D

 24 27  0  0  0  0  0  0  0  0999 V2000
   10.0252    9.4037   22.7954 C   0  0  0  0  0  0  0  0  0  0  0  0
    9.3075   10.5117   23.4999 C   0  0  0  0  0  0  0  0  0  0  0  0
    9.5871   11.8396   23.1159 C   0  0  0  0  0  0  0  0  0  0  0  0
    8.8446   12.8526   23.6724 C   0  0  0  0  0  0  0  0  0  0  0  0
    7.9751   12.5124   24.6737 C   0  0  0  0  0  0  0  0  0  0  0  0
    7.2166   13.4996   25.2616 C   0  0  0  0  0  0  0  0  0  0  0  0
    6.3653   12.8385   26.1101 C   0  0  0  0  0  0  0  0  0  0  0  0
    6.6222   11.4608   25.9665 N   0  0  0  0  0  0  0  0  0  0  0  0
    7.6499   11.2589   25.0692 C   0  0  0  0  0  0  0  0  0  0  0  0
    8.3179   10.1943   24.4771 C   0  0  0  0  0  0  0  0  0  0  0  0
    7.6782   14.8061   24.6363 C   0  0  0  0  0  0  0  0  0  0  0  0
    8.5513   14.2886   23.3313 C   0  0  2  0  0  0  0  0  0  0  0  0
    7.6208   14.1465   22.2432 O   0  0  0  0  0  0  0  0  0  0  0  0
    9.7083   15.0314   22.8638 N   0  0  0  0  0  0  0  0  0  0  0  0
    9.6813   15.7086   21.5566 C   0  0  0  0  0  0  0  0  0  0  0  0
   10.8141   15.1783   20.6945 C   0  0  1  0  0  0  0  0  0  0  0  0
   10.6726   15.5871   19.2199 C   0  0  0  0  0  0  0  0  0  0  0  0
   11.6921   15.0273   18.4037 N   0  0  0  0  0  0  0  0  0  0  0  0
    9.4495   15.2384   18.6905 O   0  0  0  0  0  0  0  0  0  0  0  0
   10.6776   16.9499   19.0505 O   0  0  0  0  0  0  0  0  0  0  0  0
   12.0989   15.6587   21.3791 C   0  0  0  0  0  0  0  0  0  0  0  0
   12.1836   15.1874   22.8274 C   0  0  0  0  0  0  0  0  0  0  0  0
   10.8803   15.0258   23.6053 C   0  0  0  0  0  0  0  0  0  0  0  0
   10.9277   14.7743   24.8110 O   0  0  0  0  0  0  0  0  0  0  0  0
  1  2  1  0
  2  3  2  0
  3  4  1  0
  4  5  2  0
  5  6  1  0
  6  7  2  0
  7  8  1  0
  8  9  1  0
  9 10  2  0
  6 11  1  0
 11 12  1  0
 12 13  1  6
 12 14  1  0
 14 15  1  0
 15 16  1  0
 16 17  1  6
 17 18  1  0
 17 19  1  0
 17 20  1  0
 16 21  1  0
 21 22  1  0
 22 23  1  0
 23 24  2  0
 10  2  1  0
 23 14  1  0
 12  4  1  0
  9  5  1  0
M  END
>  <ref_pdb>  (262) 
A4840a

>  <tags>  (262) 
{'fragmenstein_placed', 'openbind_a71ev2a_c1_fragmenstein'}

>  <distance_score>  (262) 
0.76682

>  <energy_score>  (262) 
-18.236738

>  <inchikey>  (262) 
PHCFYPBLYITEAW-UHFFFAOYSA-N

>  <alias>  (262) 
Cc1cc2c3c(c[nH]c3c1)C[C@@]2(O)N1C[C@@H](C(N)(O)O)CCC1=O

>  <smiles>  (262) 
C211275-P488

>  <HIPPO Pose ID>  (262) 
100669

>  <ref_mols>  (262) 
A4847a,A4374a

>  <HIPPO Compound ID>  (262) 
211275

$$$$
COc1ccc(SC)c(NC(O)(O)N2CC[C@H](O)[C@@]3(CNNN3)C2)c1Cl
     RDKit          3D

 26 28  0  0  0  0  0  0  0  0999 V2000
    3.9866   10.8087   27.5424 C   0  0  0  0  0  0  0  0  0  0  0  0
    4.8093   11.8500   27.0228 O   0  0  0  0  0  0  0  0  0  0  0  0
    5.9040   11.4815   26.2882 C   0  0  0  0  0  0  0  0  0  0  0  0
    6.2854   10.1599   26.0980 C   0  0  0  0  0  0  0  0  0  0  0  0
    7.3952    9.8514   25.3136 C   0  0  0  0  0  0  0  0  0  0  0  0
    8.1431   10.8385   24.6749 C   0  0  0  0  0  0  0  0  0  0  0  0
    9.5175   10.4191   23.6222 S   0  0  0  0  0  0  0  0  0  0  0  0
    9.3328    8.6799   23.2227 C   0  0  0  0  0  0  0  0  0  0  0  0
    7.8408   12.1896   24.9340 C   0  0  0  0  0  0  0  0  0  0  0  0
    8.7053   13.2326   24.5378 N   0  0  0  0  0  0  0  0  0  0  0  0
    8.7306   13.7915   23.2150 C   0  0  0  0  0  0  0  0  0  0  0  0
    7.4548   13.6571   22.6576 O   0  0  0  0  0  0  0  0  0  0  0  0
    9.6119   13.0682   22.4405 O   0  0  0  0  0  0  0  0  0  0  0  0
    9.1342   15.1744   23.2028 N   0  0  0  0  0  0  0  0  0  0  0  0
   10.4007   15.3933   23.9325 C   0  0  0  0  0  0  0  0  0  0  0  0
   11.6833   15.0734   23.1590 C   0  0  0  0  0  0  0  0  0  0  0  0
   11.7620   15.9444   21.9121 C   0  0  2  0  0  0  0  0  0  0  0  0
   11.8789   17.2705   22.3880 O   0  0  0  0  0  0  0  0  0  0  0  0
   10.5052   15.7732   21.0376 C   0  0  2  0  0  0  0  0  0  0  0  0
   10.6981   14.5103   20.2267 C   0  0  0  0  0  0  0  0  0  0  0  0
   11.1990   14.9684   18.9356 N   0  0  0  0  0  0  0  0  0  0  0  0
   10.5170   16.1844   18.7315 N   0  0  0  0  0  0  0  0  0  0  0  0
   10.4370   16.8235   19.9997 N   0  0  0  0  0  0  0  0  0  0  0  0
    9.1970   15.8222   21.8793 C   0  0  0  0  0  0  0  0  0  0  0  0
    6.6962   12.4926   25.7198 C   0  0  0  0  0  0  0  0  0  0  0  0
    6.3275   14.1685   26.0304 Cl  0  0  0  0  0  0  0  0  0  0  0  0
  1  2  1  0
  2  3  1  0
  3  4  2  0
  4  5  1  0
  5  6  2  0
  6  7  1  0
  7  8  1  0
  6  9  1  0
  9 10  1  0
 10 11  1  0
 11 12  1  0
 11 13  1  0
 11 14  1  0
 14 15  1  0
 15 16  1  0
 16 17  1  0
 17 18  1  1
 17 19  1  0
 19 20  1  6
 20 21  1  0
 21 22  1  0
 22 23  1  0
 19 24  1  0
  9 25  2  0
 25 26  1  0
 25  3  1  0
 24 14  1  0
 23 19  1  0
M  END
>  <ref_pdb>  (263) 
A4840a

>  <tags>  (263) 
{'fragmenstein_placed', 'openbind_a71ev2a_c1_fragmenstein'}

>  <distance_score>  (263) 
0.71417

>  <energy_score>  (263) 
-65.406743

>  <inchikey>  (263) 
GVQWSGJJFCFIRY-UHFFFAOYSA-N

>  <alias>  (263) 
COc1ccc(SC)c(NC(O)(O)N2CC[C@H](O)[C@@]3(CNNN3)C2)c1Cl

>  <smiles>  (263) 
C212430-P492

>  <HIPPO Pose ID>  (263) 
101303

>  <ref_mols>  (263) 
A4873a,A3992b

>  <HIPPO Compound ID>  (263) 
212430

$$$$
COc1cc(C)cc(N2NN3CO[C@H]4[C@@H]3CN(C2=O)[C@@]42NCN(O)[C@H]2N)c1Cl
     RDKit          3D

 28 32  0  0  0  0  0  0  0  0999 V2000
    4.4786    9.8302   27.3161 C   0  0  0  0  0  0  0  0  0  0  0  0
    5.0590   11.0882   27.0022 O   0  0  0  0  0  0  0  0  0  0  0  0
    6.1551   11.1085   26.1769 C   0  0  0  0  0  0  0  0  0  0  0  0
    6.8324    9.9627   25.7319 C   0  0  0  0  0  0  0  0  0  0  0  0
    7.9242   10.0524   24.8592 C   0  0  0  0  0  0  0  0  0  0  0  0
    8.6316    8.8931   24.2303 C   0  0  0  0  0  0  0  0  0  0  0  0
    8.3280   11.2986   24.4386 C   0  0  0  0  0  0  0  0  0  0  0  0
    7.6789   12.4584   24.8678 C   0  0  0  0  0  0  0  0  0  0  0  0
    8.2248   13.6629   24.3688 N   0  0  0  0  0  0  0  0  0  0  0  0
    8.5671   14.6257   25.3478 N   0  0  0  0  0  0  0  0  0  0  0  0
    8.9241   15.9472   24.9318 N   0  0  0  0  0  0  0  0  0  0  0  0
    7.8114   16.5345   24.1699 C   0  0  0  0  0  0  0  0  0  0  0  0
    8.1048   16.4756   22.7846 O   0  0  0  0  0  0  0  0  0  0  0  0
    9.5332   16.3758   22.6437 C   0  0  1  0  0  0  0  0  0  0  0  0
   10.0948   15.9493   24.0277 C   0  0  2  0  0  0  0  0  0  0  0  0
   10.7109   14.5651   23.7803 C   0  0  0  0  0  0  0  0  0  0  0  0
    9.9035   14.1074   22.6790 N   0  0  0  0  0  0  0  0  0  0  0  0
    8.6092   13.6573   23.0117 C   0  0  0  0  0  0  0  0  0  0  0  0
    7.8674   13.1641   22.1530 O   0  0  0  0  0  0  0  0  0  0  0  0
    9.9487   15.2115   21.7222 C   0  0  1  0  0  0  0  0  0  0  0  0
    9.0995   15.0252   20.5501 N   0  0  0  0  0  0  0  0  0  0  0  0
    9.9697   15.0720   19.3690 C   0  0  0  0  0  0  0  0  0  0  0  0
   11.0300   15.9845   19.7306 N   0  0  0  0  0  0  0  0  0  0  0  0
   10.3552   17.2796   19.8951 O   0  0  0  0  0  0  0  0  0  0  0  0
   11.3699   15.4629   21.0596 C   0  0  1  0  0  0  0  0  0  0  0  0
   12.3342   16.3697   21.6310 N   0  0  0  0  0  0  0  0  0  0  0  0
    6.5970   12.3722   25.7530 C   0  0  0  0  0  0  0  0  0  0  0  0
    5.7284   13.7866   26.2577 Cl  0  0  0  0  0  0  0  0  0  0  0  0
  1  2  1  0
  2  3  1  0
  3  4  2  0
  4  5  1  0
  5  6  1  0
  5  7  2  0
  7  8  1  0
  8  9  1  0
  9 10  1  0
 10 11  1  0
 11 12  1  0
 12 13  1  0
 14 13  1  1
 14 15  1  0
 15 16  1  6
 16 17  1  0
 17 18  1  0
 18 19  2  0
 17 20  1  0
 20 21  1  6
 21 22  1  0
 22 23  1  0
 23 24  1  0
 23 25  1  0
 25 26  1  1
  8 27  2  0
 27 28  1  0
 27  3  1  0
 18  9  1  0
 25 20  1  0
 15 11  1  0
 20 14  1  0
M  END
>  <ref_pdb>  (264) 
A4840a

>  <tags>  (264) 
{'fragmenstein_placed', 'openbind_a71ev2a_c1_fragmenstein'}

>  <distance_score>  (264) 
0.851391

>  <energy_score>  (264) 
-82.385521

>  <inchikey>  (264) 
YAHDGFSPRXLONS-UHFFFAOYSA-N

>  <alias>  (264) 
COc1cc(C)cc(N2NN3CO[C@H]4[C@@H]3CN(C2=O)[C@@]42NCN(O)[C@H]2N)c1Cl

>  <smiles>  (264) 
C212571-P492

>  <HIPPO Pose ID>  (264) 
101421

>  <ref_mols>  (264) 
A4943b,A4873a

>  <HIPPO Compound ID>  (264) 
212571

$$$$
CCC[C@@H](N)CCCCNNC
     RDKit          3D

 12 11  0  0  0  0  0  0  0  0999 V2000
    6.6503   12.3913   26.2540 C   0  0  0  0  0  0  0  0  0  0  0  0
    7.8985   11.9606   25.5031 C   0  0  0  0  0  0  0  0  0  0  0  0
    8.7261   13.1568   25.0090 C   0  0  0  0  0  0  0  0  0  0  0  0
    8.6266   13.3283   23.4911 C   0  0  1  0  0  0  0  0  0  0  0  0
    7.2612   13.6329   23.0821 N   0  0  0  0  0  0  0  0  0  0  0  0
    9.5128   14.4196   22.8842 C   0  0  0  0  0  0  0  0  0  0  0  0
   10.9249   14.5736   23.4443 C   0  0  0  0  0  0  0  0  0  0  0  0
   11.9791   14.9844   22.4075 C   0  0  0  0  0  0  0  0  0  0  0  0
   11.6804   16.1933   21.5149 C   0  0  0  0  0  0  0  0  0  0  0  0
   10.5216   15.9613   20.6453 N   0  0  0  0  0  0  0  0  0  0  0  0
   10.7932   16.1165   19.2474 N   0  0  0  0  0  0  0  0  0  0  0  0
   11.4297   14.9327   18.7009 C   0  0  0  0  0  0  0  0  0  0  0  0
  1  2  1  0
  2  3  1  0
  3  4  1  0
  4  5  1  1
  4  6  1  0
  6  7  1  0
  7  8  1  0
  8  9  1  0
  9 10  1  0
 10 11  1  0
 11 12  1  0
M  END
>  <ref_pdb>  (265) 
A4840a

>  <tags>  (265) 
{'fragmenstein_placed', 'openbind_a71ev2a_c1_fragmenstein'}

>  <distance_score>  (265) 
0.932389

>  <energy_score>  (265) 
-9.083952

>  <inchikey>  (265) 
TVYXXSMKKFSTDL-UHFFFAOYSA-N

>  <alias>  (265) 
CCC[C@@H](N)CCCCNNC

>  <smiles>  (265) 
C214698-P501

>  <HIPPO Pose ID>  (265) 
102852

>  <ref_mols>  (265) 
A3939a,A4882b

>  <HIPPO Compound ID>  (265) 
214698

$$$$
CN1NC[C@](O)(N2C[C@](O)(C(N)(O)O)CC[C@H]2N)Cc2ccccc21
     RDKit          3D

 25 27  0  0  0  0  0  0  0  0999 V2000
    9.1457    8.8418   23.8909 C   0  0  0  0  0  0  0  0  0  0  0  0
    9.0593   10.3030   24.1412 N   0  0  0  0  0  0  0  0  0  0  0  0
    9.4093   10.9915   22.9724 N   0  0  0  0  0  0  0  0  0  0  0  0
   10.1165   12.2353   23.2199 C   0  0  0  0  0  0  0  0  0  0  0  0
    9.1024   13.3816   23.3950 C   0  0  2  0  0  0  0  0  0  0  0  0
    7.9520   13.1003   22.5834 O   0  0  0  0  0  0  0  0  0  0  0  0
    9.6624   14.6889   23.0228 N   0  0  0  0  0  0  0  0  0  0  0  0
    9.6790   14.8912   21.5382 C   0  0  0  0  0  0  0  0  0  0  0  0
   10.9812   15.4152   20.9006 C   0  0  2  0  0  0  0  0  0  0  0  0
   11.2009   16.7775   21.3381 O   0  0  0  0  0  0  0  0  0  0  0  0
   10.9549   15.4171   19.3206 C   0  0  0  0  0  0  0  0  0  0  0  0
   10.0542   16.3663   18.7659 N   0  0  0  0  0  0  0  0  0  0  0  0
   12.1832   15.7929   18.8292 O   0  0  0  0  0  0  0  0  0  0  0  0
   10.7307   14.2206   18.6756 O   0  0  0  0  0  0  0  0  0  0  0  0
   12.1551   14.6349   21.4570 C   0  0  0  0  0  0  0  0  0  0  0  0
   12.2034   14.6257   22.9850 C   0  0  0  0  0  0  0  0  0  0  0  0
   10.9014   14.9950   23.7030 C   0  0  1  0  0  0  0  0  0  0  0  0
   10.8051   16.4031   23.9990 N   0  0  0  0  0  0  0  0  0  0  0  0
    8.5922   13.3407   24.8464 C   0  0  0  0  0  0  0  0  0  0  0  0
    7.7237   12.1494   25.2469 C   0  0  0  0  0  0  0  0  0  0  0  0
    6.6176   12.5057   26.0678 C   0  0  0  0  0  0  0  0  0  0  0  0
    5.7499   11.5607   26.5959 C   0  0  0  0  0  0  0  0  0  0  0  0
    5.9753   10.2303   26.3236 C   0  0  0  0  0  0  0  0  0  0  0  0
    7.0573    9.8665   25.5159 C   0  0  0  0  0  0  0  0  0  0  0  0
    7.9650   10.7825   24.9354 C   0  0  0  0  0  0  0  0  0  0  0  0
  1  2  1  0
  2  3  1  0
  3  4  1  0
  4  5  1  0
  5  6  1  6
  5  7  1  0
  7  8  1  0
  8  9  1  0
  9 10  1  1
  9 11  1  0
 11 12  1  0
 11 13  1  0
 11 14  1  0
  9 15  1  0
 15 16  1  0
 16 17  1  0
 17 18  1  6
  5 19  1  0
 19 20  1  0
 20 21  2  0
 21 22  1  0
 22 23  2  0
 23 24  1  0
 24 25  2  0
 25  2  1  0
 17  7  1  0
 25 20  1  0
M  END
>  <ref_pdb>  (266) 
A4883a

>  <tags>  (266) 
{'fragmenstein_placed', 'openbind_a71ev2a_c1_fragmenstein'}

>  <distance_score>  (266) 
0.657013

>  <energy_score>  (266) 
-90.142375

>  <inchikey>  (266) 
FATHSFMKTKOIKO-UHFFFAOYSA-N

>  <alias>  (266) 
CN1NC[C@](O)(N2C[C@](O)(C(N)(O)O)CC[C@H]2N)Cc2ccccc21

>  <smiles>  (266) 
C170684-P505

>  <HIPPO Pose ID>  (266) 
103294

>  <ref_mols>  (266) 
A4885b,A5449a

>  <HIPPO Compound ID>  (266) 
170684

$$$$
CCc1ccc(F)nc1[C@H](C)C(O)(O)N1CC[C@H]2CNC(=O)[C@@H]2C1
     RDKit          3D

 24 26  0  0  0  0  0  0  0  0999 V2000
   10.0680   11.6189   23.6651 C   0  0  0  0  0  0  0  0  0  0  0  0
    8.6688   11.1530   23.4673 C   0  0  0  0  0  0  0  0  0  0  0  0
    7.6882   11.3059   24.5817 C   0  0  0  0  0  0  0  0  0  0  0  0
    7.1267   10.1131   25.0652 C   0  0  0  0  0  0  0  0  0  0  0  0
    6.0860   10.1582   25.9665 C   0  0  0  0  0  0  0  0  0  0  0  0
    5.6373   11.3965   26.3554 C   0  0  0  0  0  0  0  0  0  0  0  0
    4.6025   11.4435   27.2041 F   0  0  0  0  0  0  0  0  0  0  0  0
    6.1762   12.5663   25.9557 N   0  0  0  0  0  0  0  0  0  0  0  0
    7.2019   12.5384   25.0646 C   0  0  0  0  0  0  0  0  0  0  0  0
    7.8761   13.8932   24.7817 C   0  0  2  0  0  0  0  0  0  0  0  0
    7.5277   14.9124   25.8965 C   0  0  0  0  0  0  0  0  0  0  0  0
    7.7028   14.5795   23.3667 C   0  0  0  0  0  0  0  0  0  0  0  0
    7.6376   13.6493   22.3209 O   0  0  0  0  0  0  0  0  0  0  0  0
    6.4149   15.1691   23.3042 O   0  0  0  0  0  0  0  0  0  0  0  0
    8.6876   15.6216   23.0470 N   0  0  0  0  0  0  0  0  0  0  0  0
    9.9978   15.6739   23.7059 C   0  0  0  0  0  0  0  0  0  0  0  0
   11.1828   15.0839   22.9297 C   0  0  0  0  0  0  0  0  0  0  0  0
   11.1889   15.6746   21.5402 C   0  0  1  0  0  0  0  0  0  0  0  0
   12.1555   15.1126   20.5259 C   0  0  0  0  0  0  0  0  0  0  0  0
   11.5282   15.4015   19.2741 N   0  0  0  0  0  0  0  0  0  0  0  0
   10.2157   15.7837   19.4572 C   0  0  0  0  0  0  0  0  0  0  0  0
    9.5464   16.2907   18.5857 O   0  0  0  0  0  0  0  0  0  0  0  0
    9.8472   15.3995   20.8710 C   0  0  2  0  0  0  0  0  0  0  0  0
    8.7419   16.1027   21.6408 C   0  0  0  0  0  0  0  0  0  0  0  0
  1  2  1  0
  2  3  1  0
  3  4  2  0
  4  5  1  0
  5  6  2  0
  6  7  1  0
  6  8  1  0
  8  9  2  0
  9 10  1  0
 10 11  1  1
 10 12  1  0
 12 13  1  0
 12 14  1  0
 12 15  1  0
 15 16  1  0
 16 17  1  0
 18 17  1  1
 18 19  1  0
 19 20  1  0
 20 21  1  0
 21 22  2  0
 21 23  1  0
 23 24  1  1
  9  3  1  0
 24 15  1  0
 23 18  1  0
M  END
>  <ref_pdb>  (267) 
A4883a

>  <tags>  (267) 
{'fragmenstein_placed', 'openbind_a71ev2a_c1_fragmenstein'}

>  <distance_score>  (267) 
0.858957

>  <energy_score>  (267) 
-32.191389

>  <inchikey>  (267) 
DMHSYRWRIUSZDL-UHFFFAOYSA-N

>  <alias>  (267) 
CCc1ccc(F)nc1[C@H](C)C(O)(O)N1CC[C@H]2CNC(=O)[C@@H]2C1

>  <smiles>  (267) 
C251960-P507

>  <HIPPO Pose ID>  (267) 
103515

>  <ref_mols>  (267) 
A4606a,A4895a

>  <HIPPO Compound ID>  (267) 
251960

$$$$
Cc1cc(OC(F)F)nccccn1S(=O)(=O)N1CCC[C@H](C(N)=O)C1
     RDKit          3D

 26 27  0  0  0  0  0  0  0  0999 V2000
    5.7144   13.0374   25.7334 C   0  0  0  0  0  0  0  0  0  0  0  0
    6.9942   12.7070   25.0294 C   0  0  0  0  0  0  0  0  0  0  0  0
    7.5145   11.4808   24.8993 C   0  0  0  0  0  0  0  0  0  0  0  0
    8.6587   11.0871   24.3084 C   0  0  0  0  0  0  0  0  0  0  0  0
    8.7143    9.6726   24.2526 O   0  0  0  0  0  0  0  0  0  0  0  0
    9.5101    9.0831   23.2315 C   0  0  0  0  0  0  0  0  0  0  0  0
   10.7105    8.7170   23.7573 F   0  0  0  0  0  0  0  0  0  0  0  0
    8.9061    7.9052   22.9046 F   0  0  0  0  0  0  0  0  0  0  0  0
    9.7543   11.6388   23.7397 N   0  0  0  0  0  0  0  0  0  0  0  0
   10.4902   12.6707   24.2118 C   0  0  0  0  0  0  0  0  0  0  0  0
   10.5319   13.7501   25.0158 C   0  0  0  0  0  0  0  0  0  0  0  0
    9.6370   14.5139   25.6546 C   0  0  0  0  0  0  0  0  0  0  0  0
    8.3150   14.5658   25.4911 C   0  0  0  0  0  0  0  0  0  0  0  0
    7.7900   13.7357   24.4867 N   0  0  0  0  0  0  0  0  0  0  0  0
    7.2572   14.4509   23.0511 S   0  0  0  0  0  0  0  0  0  0  0  0
    6.7959   13.4373   22.1170 O   0  0  0  0  0  0  0  0  0  0  0  0
    6.3920   15.5665   23.3906 O   0  0  0  0  0  0  0  0  0  0  0  0
    8.6992   15.0943   22.4404 N   0  0  0  0  0  0  0  0  0  0  0  0
    9.1668   16.3530   23.0060 C   0  0  0  0  0  0  0  0  0  0  0  0
   10.6865   16.3741   22.9075 C   0  0  0  0  0  0  0  0  0  0  0  0
   11.0530   16.4750   21.4507 C   0  0  0  0  0  0  0  0  0  0  0  0
   10.4987   15.2390   20.7481 C   0  0  2  0  0  0  0  0  0  0  0  0
   10.7969   15.3628   19.2514 C   0  0  0  0  0  0  0  0  0  0  0  0
   11.2032   14.0849   18.7425 N   0  0  0  0  0  0  0  0  0  0  0  0
   10.7379   16.4329   18.7168 O   0  0  0  0  0  0  0  0  0  0  0  0
    8.9972   15.0104   21.0000 C   0  0  0  0  0  0  0  0  0  0  0  0
  1  2  1  0
  2  3  2  0
  3  4  1  0
  4  5  1  0
  5  6  1  0
  6  7  1  0
  6  8  1  0
  4  9  2  0
  9 10  1  0
 10 11  2  0
 11 12  1  0
 12 13  2  0
 13 14  1  0
 14 15  1  0
 15 16  2  0
 15 17  2  0
 15 18  1  0
 18 19  1  0
 19 20  1  0
 20 21  1  0
 21 22  1  0
 22 23  1  6
 23 24  1  0
 23 25  2  0
 22 26  1  0
 14  2  1  0
 26 18  1  0
M  END
>  <ref_pdb>  (268) 
A4883a

>  <tags>  (268) 
{'fragmenstein_placed', 'openbind_a71ev2a_c1_fragmenstein'}

>  <distance_score>  (268) 
0.905788

>  <energy_score>  (268) 
-20.604414

>  <inchikey>  (268) 
HHBIGVBGHAUBND-UHFFFAOYSA-N

>  <alias>  (268) 
Cc1cc(OC(F)F)nccccn1S(=O)(=O)N1CCC[C@H](C(N)=O)C1

>  <smiles>  (268) 
C252281-P509

>  <HIPPO Pose ID>  (268) 
103688

>  <ref_mols>  (268) 
A0446a,A4899a

>  <HIPPO Compound ID>  (268) 
252281

$$$$
Cc1cc2c3c(cncc3c1)CN2S(=O)(=O)N1CCC[C@H](C(=O)NO)C1
     RDKit          3D

 26 29  0  0  0  0  0  0  0  0999 V2000
    9.6419    9.1112   23.0814 C   0  0  0  0  0  0  0  0  0  0  0  0
    8.7728   10.0100   23.9064 C   0  0  0  0  0  0  0  0  0  0  0  0
    8.8583   11.4077   23.8097 C   0  0  0  0  0  0  0  0  0  0  0  0
    7.9728   12.1663   24.5582 C   0  0  0  0  0  0  0  0  0  0  0  0
    7.1072   11.5634   25.4292 C   0  0  0  0  0  0  0  0  0  0  0  0
    6.3279   12.4919   26.0655 C   0  0  0  0  0  0  0  0  0  0  0  0
    5.3872   12.0687   26.9625 C   0  0  0  0  0  0  0  0  0  0  0  0
    5.1989   10.7634   27.2222 N   0  0  0  0  0  0  0  0  0  0  0  0
    5.9629    9.8804   26.5118 C   0  0  0  0  0  0  0  0  0  0  0  0
    6.9822   10.2095   25.5964 C   0  0  0  0  0  0  0  0  0  0  0  0
    7.8525    9.4240   24.8038 C   0  0  0  0  0  0  0  0  0  0  0  0
    6.6342   13.8456   25.5407 C   0  0  0  0  0  0  0  0  0  0  0  0
    7.7876   13.5916   24.6112 N   0  0  0  0  0  0  0  0  0  0  0  0
    7.6626   14.3766   23.1373 S   0  0  0  0  0  0  0  0  0  0  0  0
    7.0658   13.4977   22.1549 O   0  0  0  0  0  0  0  0  0  0  0  0
    7.1576   15.7079   23.3753 O   0  0  0  0  0  0  0  0  0  0  0  0
    9.3221   14.5104   22.8308 N   0  0  0  0  0  0  0  0  0  0  0  0
   10.0176   15.4336   23.7641 C   0  0  0  0  0  0  0  0  0  0  0  0
   11.5200   15.3533   23.5572 C   0  0  0  0  0  0  0  0  0  0  0  0
   11.8723   15.6988   22.1145 C   0  0  0  0  0  0  0  0  0  0  0  0
   11.1635   14.6844   21.2269 C   0  0  2  0  0  0  0  0  0  0  0  0
   11.5698   14.7519   19.7643 C   0  0  0  0  0  0  0  0  0  0  0  0
   12.2048   13.9086   19.2823 O   0  0  0  0  0  0  0  0  0  0  0  0
   10.9671   16.0088   19.1499 N   0  0  0  0  0  0  0  0  0  0  0  0
   10.9349   16.4356   17.8517 O   0  0  0  0  0  0  0  0  0  0  0  0
    9.6486   14.7750   21.4119 C   0  0  0  0  0  0  0  0  0  0  0  0
  1  2  1  0
  2  3  2  0
  3  4  1  0
  4  5  2  0
  5  6  1  0
  6  7  2  0
  7  8  1  0
  8  9  2  0
  9 10  1  0
 10 11  2  0
  6 12  1  0
 12 13  1  0
 13 14  1  0
 14 15  2  0
 14 16  2  0
 14 17  1  0
 17 18  1  0
 18 19  1  0
 19 20  1  0
 20 21  1  0
 21 22  1  6
 22 23  2  0
 22 24  1  0
 24 25  1  0
 21 26  1  0
 11  2  1  0
 26 17  1  0
 13  4  1  0
 10  5  1  0
M  END
>  <ref_pdb>  (269) 
A4883a

>  <tags>  (269) 
{'fragmenstein_placed', 'openbind_a71ev2a_c1_fragmenstein'}

>  <distance_score>  (269) 
0.94547

>  <energy_score>  (269) 
-39.181524

>  <inchikey>  (269) 
JWUDNWNUFKEQFE-UHFFFAOYSA-N

>  <alias>  (269) 
Cc1cc2c3c(cncc3c1)CN2S(=O)(=O)N1CCC[C@H](C(=O)NO)C1

>  <smiles>  (269) 
C252325-P509

>  <HIPPO Pose ID>  (269) 
103718

>  <ref_mols>  (269) 
A3581a,A4899a

>  <HIPPO Compound ID>  (269) 
252325

$$$$
C[C@@H]1CN(S(=O)(=O)NN)C[C@@]2(C1)NCO[C@H]2N
     RDKit          3D

 17 18  0  0  0  0  0  0  0  0999 V2000
   11.8624   14.6691   24.3175 C   0  0  0  0  0  0  0  0  0  0  0  0
   10.9610   15.8128   23.8570 C   0  0  2  0  0  0  0  0  0  0  0  0
    9.4902   15.4533   24.0113 C   0  0  0  0  0  0  0  0  0  0  0  0
    9.0548   14.4688   22.9832 N   0  0  0  0  0  0  0  0  0  0  0  0
    7.4303   14.0010   23.2309 S   0  0  0  0  0  0  0  0  0  0  0  0
    6.9987   13.1822   22.1204 O   0  0  0  0  0  0  0  0  0  0  0  0
    6.6734   15.1374   23.6904 O   0  0  0  0  0  0  0  0  0  0  0  0
    7.6623   12.9299   24.5624 N   0  0  0  0  0  0  0  0  0  0  0  0
    8.6349   11.9318   24.2400 N   0  0  0  0  0  0  0  0  0  0  0  0
    9.3003   14.9587   21.5758 C   0  0  0  0  0  0  0  0  0  0  0  0
   10.7678   15.3829   21.3331 C   0  0  1  0  0  0  0  0  0  0  0  0
   11.2212   16.3373   22.4365 C   0  0  0  0  0  0  0  0  0  0  0  0
   11.6956   14.2335   21.2996 N   0  0  0  0  0  0  0  0  0  0  0  0
   12.1857   14.2289   19.9256 C   0  0  0  0  0  0  0  0  0  0  0  0
   11.2466   14.8794   19.1058 O   0  0  0  0  0  0  0  0  0  0  0  0
   10.9702   15.9975   19.9240 C   0  0  1  0  0  0  0  0  0  0  0  0
    9.9950   16.7969   19.2775 N   0  0  0  0  0  0  0  0  0  0  0  0
  2  1  1  6
  2  3  1  0
  3  4  1  0
  4  5  1  0
  5  6  2  0
  5  7  2  0
  5  8  1  0
  8  9  1  0
  4 10  1  0
 11 10  1  1
 11 12  1  0
 11 13  1  0
 13 14  1  0
 14 15  1  0
 15 16  1  0
 16 17  1  6
 12  2  1  0
 16 11  1  0
M  END
>  <ref_pdb>  (270) 
A4883a

>  <tags>  (270) 
{'fragmenstein_placed', 'openbind_a71ev2a_c1_fragmenstein'}

>  <distance_score>  (270) 
0.8536

>  <energy_score>  (270) 
-61.382693

>  <inchikey>  (270) 
PTIYRSDWVOKDRE-UHFFFAOYSA-N

>  <alias>  (270) 
C[C@@H]1CN(S(=O)(=O)NN)C[C@@]2(C1)NCO[C@H]2N

>  <smiles>  (270) 
C252240-P509

>  <HIPPO Pose ID>  (270) 
103816

>  <ref_mols>  (270) 
A4963b,A4899a

>  <HIPPO Compound ID>  (270) 
252240

$$$$
Cc1cccc([C@H](C=O)N2C[C@@H]([C@@H](N)N=O)[C@](F)(NF)CC2=O)c1
     RDKit          3D

 24 25  0  0  0  0  0  0  0  0999 V2000
    5.7356   11.1870   26.9003 C   0  0  0  0  0  0  0  0  0  0  0  0
    6.7781   11.3231   25.8366 C   0  0  0  0  0  0  0  0  0  0  0  0
    7.4403   10.2096   25.3242 C   0  0  0  0  0  0  0  0  0  0  0  0
    8.4296   10.3351   24.3525 C   0  0  0  0  0  0  0  0  0  0  0  0
    8.7321   11.5887   23.8418 C   0  0  0  0  0  0  0  0  0  0  0  0
    8.0476   12.7207   24.3071 C   0  0  0  0  0  0  0  0  0  0  0  0
    8.1803   14.0735   23.6310 C   0  0  2  0  0  0  0  0  0  0  0  0
    6.9470   14.2397   22.7300 C   0  0  0  0  0  0  0  0  0  0  0  0
    6.6975   13.5483   21.7430 O   0  0  0  0  0  0  0  0  0  0  0  0
    9.4787   14.2377   22.9544 N   0  0  0  0  0  0  0  0  0  0  0  0
    9.4717   14.6960   21.5621 C   0  0  0  0  0  0  0  0  0  0  0  0
   10.8206   14.6153   20.8786 C   0  0  1  0  0  0  0  0  0  0  0  0
   10.8697   15.1630   19.4389 C   0  0  1  0  0  0  0  0  0  0  0  0
   11.1786   14.1421   18.4420 N   0  0  0  0  0  0  0  0  0  0  0  0
    9.7166   16.0308   19.1696 N   0  0  0  0  0  0  0  0  0  0  0  0
    9.2052   15.7819   18.0764 O   0  0  0  0  0  0  0  0  0  0  0  0
   11.8126   15.2912   21.7826 C   0  0  2  0  0  0  0  0  0  0  0  0
   11.4303   16.5512   22.0082 F   0  0  0  0  0  0  0  0  0  0  0  0
   13.0748   15.4339   21.1454 N   0  0  0  0  0  0  0  0  0  0  0  0
   13.2277   14.5365   20.1174 F   0  0  0  0  0  0  0  0  0  0  0  0
   11.9189   14.5393   23.0841 C   0  0  0  0  0  0  0  0  0  0  0  0
   10.5869   14.4423   23.7660 C   0  0  0  0  0  0  0  0  0  0  0  0
   10.5341   14.4607   24.9975 O   0  0  0  0  0  0  0  0  0  0  0  0
    7.0965   12.5800   25.3306 C   0  0  0  0  0  0  0  0  0  0  0  0
  1  2  1  0
  2  3  2  0
  3  4  1  0
  4  5  2  0
  5  6  1  0
  6  7  1  0
  7  8  1  0
  8  9  2  0
  7 10  1  6
 10 11  1  0
 12 11  1  1
 12 13  1  0
 13 14  1  6
 13 15  1  0
 15 16  2  0
 12 17  1  0
 17 18  1  1
 17 19  1  0
 19 20  1  0
 17 21  1  0
 21 22  1  0
 22 23  2  0
  6 24  2  0
 24  2  1  0
 22 10  1  0
M  END
>  <ref_pdb>  (271) 
A4883a

>  <tags>  (271) 
{'fragmenstein_placed', 'openbind_a71ev2a_c1_fragmenstein'}

>  <distance_score>  (271) 
0.753875

>  <energy_score>  (271) 
-11.707715

>  <inchikey>  (271) 
PZSONJUKUXLUAJ-UHFFFAOYSA-N

>  <alias>  (271) 
Cc1cccc([C@H](C=O)N2C[C@@H]([C@@H](N)N=O)[C@](F)(NF)CC2=O)c1

>  <smiles>  (271) 
C254258-P517

>  <HIPPO Pose ID>  (271) 
105016

>  <ref_mols>  (271) 
A4926a,A3575a

>  <HIPPO Compound ID>  (271) 
254258

$$$$
Cc1cccc([C@](C)(O)N2C[C@@H](C(=O)NO)CCC2=O)c1
     RDKit          3D

 21 22  0  0  0  0  0  0  0  0999 V2000
    5.6957   11.1168   26.9331 C   0  0  0  0  0  0  0  0  0  0  0  0
    6.7317   11.2507   25.8632 C   0  0  0  0  0  0  0  0  0  0  0  0
    7.4155   10.1438   25.3718 C   0  0  0  0  0  0  0  0  0  0  0  0
    8.4268   10.2701   24.4268 C   0  0  0  0  0  0  0  0  0  0  0  0
    8.7168   11.5213   23.9107 C   0  0  0  0  0  0  0  0  0  0  0  0
    7.9657   12.6484   24.3048 C   0  0  0  0  0  0  0  0  0  0  0  0
    8.0589   13.9344   23.4931 C   0  0  2  0  0  0  0  0  0  0  0  0
    7.2527   15.1239   24.0161 C   0  0  0  0  0  0  0  0  0  0  0  0
    7.3944   13.5774   22.2778 O   0  0  0  0  0  0  0  0  0  0  0  0
    9.4426   14.2589   23.1361 N   0  0  0  0  0  0  0  0  0  0  0  0
    9.7470   14.6435   21.7636 C   0  0  0  0  0  0  0  0  0  0  0  0
   11.2098   14.3901   21.4382 C   0  0  1  0  0  0  0  0  0  0  0  0
   11.6124   14.5005   19.9735 C   0  0  0  0  0  0  0  0  0  0  0  0
   12.4642   13.8397   19.5451 O   0  0  0  0  0  0  0  0  0  0  0  0
   10.7349   15.5421   19.2949 N   0  0  0  0  0  0  0  0  0  0  0  0
   10.7725   16.0411   18.0312 O   0  0  0  0  0  0  0  0  0  0  0  0
   12.0138   15.3276   22.2946 C   0  0  0  0  0  0  0  0  0  0  0  0
   11.7439   14.9977   23.7475 C   0  0  0  0  0  0  0  0  0  0  0  0
   10.3475   14.5535   24.1404 C   0  0  0  0  0  0  0  0  0  0  0  0
   10.0944   14.4593   25.3424 O   0  0  0  0  0  0  0  0  0  0  0  0
    7.0201   12.5022   25.3299 C   0  0  0  0  0  0  0  0  0  0  0  0
  1  2  1  0
  2  3  2  0
  3  4  1  0
  4  5  2  0
  5  6  1  0
  6  7  1  0
  7  8  1  1
  7  9  1  0
  7 10  1  0
 10 11  1  0
 11 12  1  0
 12 13  1  6
 13 14  2  0
 13 15  1  0
 15 16  1  0
 12 17  1  0
 17 18  1  0
 18 19  1  0
 19 20  2  0
  6 21  2  0
 21  2  1  0
 19 10  1  0
M  END
>  <ref_pdb>  (272) 
A4883a

>  <tags>  (272) 
{'fragmenstein_placed', 'openbind_a71ev2a_c1_fragmenstein'}

>  <distance_score>  (272) 
0.893563

>  <energy_score>  (272) 
-13.969655

>  <inchikey>  (272) 
HVXHFWAWXOENKE-UHFFFAOYSA-N

>  <alias>  (272) 
Cc1cccc([C@](C)(O)N2C[C@@H](C(=O)NO)CCC2=O)c1

>  <smiles>  (272) 
C254303-P517

>  <HIPPO Pose ID>  (272) 
105055

>  <ref_mols>  (272) 
A4365a,A4926a

>  <HIPPO Compound ID>  (272) 
254303

$$$$
Cc1nn(C)c2cc(CN3C[C@@H]4COCC[C@]4(N)CC3=O)ccc12
     RDKit          3D

 24 27  0  0  0  0  0  0  0  0999 V2000
    5.5502    9.6522   26.5894 C   0  0  0  0  0  0  0  0  0  0  0  0
    6.6225   10.0637   25.6603 C   0  0  0  0  0  0  0  0  0  0  0  0
    7.3517    9.1805   24.9689 N   0  0  0  0  0  0  0  0  0  0  0  0
    8.2405    9.9457   24.2906 N   0  0  0  0  0  0  0  0  0  0  0  0
    9.2034    9.3252   23.4043 C   0  0  0  0  0  0  0  0  0  0  0  0
    8.1037   11.2879   24.5563 C   0  0  0  0  0  0  0  0  0  0  0  0
    8.8228   12.4131   24.1539 C   0  0  0  0  0  0  0  0  0  0  0  0
    8.4041   13.6677   24.6484 C   0  0  0  0  0  0  0  0  0  0  0  0
    9.1777   14.9347   24.4016 C   0  0  0  0  0  0  0  0  0  0  0  0
   10.1633   14.8001   23.3628 N   0  0  0  0  0  0  0  0  0  0  0  0
    9.7343   14.8928   21.9783 C   0  0  0  0  0  0  0  0  0  0  0  0
   10.7155   15.8248   21.2899 C   0  0  2  0  0  0  0  0  0  0  0  0
   10.1701   16.2337   19.9450 C   0  0  0  0  0  0  0  0  0  0  0  0
   10.3448   15.1931   19.0141 O   0  0  0  0  0  0  0  0  0  0  0  0
   11.7167   15.0432   18.7176 C   0  0  0  0  0  0  0  0  0  0  0  0
   12.4832   14.5325   19.9260 C   0  0  0  0  0  0  0  0  0  0  0  0
   12.1148   15.1709   21.2759 C   0  0  1  0  0  0  0  0  0  0  0  0
   13.0933   16.2376   21.4939 N   0  0  0  0  0  0  0  0  0  0  0  0
   12.3027   14.1647   22.4365 C   0  0  0  0  0  0  0  0  0  0  0  0
   11.4769   14.4995   23.6562 C   0  0  0  0  0  0  0  0  0  0  0  0
   11.9336   14.4503   24.7961 O   0  0  0  0  0  0  0  0  0  0  0  0
    7.2777   13.7739   25.4713 C   0  0  0  0  0  0  0  0  0  0  0  0
    6.5790   12.6424   25.8666 C   0  0  0  0  0  0  0  0  0  0  0  0
    7.0201   11.3896   25.4174 C   0  0  0  0  0  0  0  0  0  0  0  0
  1  2  1  0
  2  3  2  0
  3  4  1  0
  4  5  1  0
  4  6  1  0
  6  7  2  0
  7  8  1  0
  8  9  1  0
  9 10  1  0
 10 11  1  0
 12 11  1  6
 12 13  1  0
 13 14  1  0
 14 15  1  0
 15 16  1  0
 16 17  1  0
 17 18  1  1
 17 19  1  0
 19 20  1  0
 20 21  2  0
  8 22  2  0
 22 23  1  0
 23 24  2  0
 24  2  1  0
 24  6  1  0
 20 10  1  0
 17 12  1  0
M  END
>  <ref_pdb>  (273) 
A4963a

>  <tags>  (273) 
{'fragmenstein_placed', 'openbind_a71ev2a_c1_fragmenstein'}

>  <distance_score>  (273) 
0.685688

>  <energy_score>  (273) 
-20.42284

>  <inchikey>  (273) 
FUTGFDLGXKNCMV-UHFFFAOYSA-N

>  <alias>  (273) 
Cc1nn(C)c2cc(CN3C[C@@H]4COCC[C@]4(N)CC3=O)ccc12

>  <smiles>  (273) 
C168604-P525

>  <HIPPO Pose ID>  (273) 
106664

>  <ref_mols>  (273) 
A0446a,A4974a

>  <HIPPO Compound ID>  (273) 
171574

$$$$
C[C@]1(c2ccccc2)CCCCN1
     RDKit          3D

 13 14  0  0  0  0  0  0  0  0999 V2000
    5.9134   13.1267   28.4628 C   0  0  0  0  0  0  0  0  0  0  0  0
    5.1099   12.3563   27.3837 C   0  0  2  0  0  0  0  0  0  0  0  0
    6.1171   11.7996   26.3495 C   0  0  0  0  0  0  0  0  0  0  0  0
    6.9241   12.6879   25.6050 C   0  0  0  0  0  0  0  0  0  0  0  0
    7.8868   12.2281   24.7040 C   0  0  0  0  0  0  0  0  0  0  0  0
    8.0692   10.8649   24.5269 C   0  0  0  0  0  0  0  0  0  0  0  0
    7.2720    9.9685   25.2305 C   0  0  0  0  0  0  0  0  0  0  0  0
    6.2915   10.4252   26.1168 C   0  0  0  0  0  0  0  0  0  0  0  0
    4.1362   13.3049   26.6408 C   0  0  0  0  0  0  0  0  0  0  0  0
    2.9732   13.7765   27.4984 C   0  0  0  0  0  0  0  0  0  0  0  0
    2.2602   12.5836   28.1193 C   0  0  0  0  0  0  0  0  0  0  0  0
    3.2373   11.6986   28.8832 C   0  0  0  0  0  0  0  0  0  0  0  0
    4.3568   11.2717   28.0473 N   0  0  0  0  0  0  0  0  0  0  0  0
  2  1  1  1
  2  3  1  0
  3  4  2  0
  4  5  1  0
  5  6  2  0
  6  7  1  0
  7  8  2  0
  2  9  1  0
  9 10  1  0
 10 11  1  0
 11 12  1  0
 12 13  1  0
 13  2  1  0
  8  3  1  0
M  END
>  <ref_pdb>  (274) 
A4963a

>  <tags>  (274) 
{'fragmenstein_placed', 'openbind_a71ev2a_c1_fragmenstein'}

>  <distance_score>  (274) 
0.826742

>  <energy_score>  (274) 
-31.986282

>  <inchikey>  (274) 
QYPHKTUDALALPC-UHFFFAOYSA-N

>  <alias>  (274) 
C[C@]1(c2ccccc2)CCCCN1

>  <smiles>  (274) 
C169029-P526

>  <HIPPO Pose ID>  (274) 
106815

>  <ref_mols>  (274) 
A4304a,A4977a

>  <HIPPO Compound ID>  (274) 
168335

$$$$
CSc1ccc2ncccc2c1[N@+]1([O-])NN2CO[C@H]3[C@@H]2CN(C1=O)[C@@]31NCO[C@H]1N
     RDKit          3D

 30 35  0  0  0  0  0  0  0  0999 V2000
    9.1078    8.6007   23.3669 C   0  0  0  0  0  0  0  0  0  0  0  0
    9.2009   10.3807   23.5853 S   0  0  0  0  0  0  0  0  0  0  0  0
    7.8058   10.8480   24.6462 C   0  0  0  0  0  0  0  0  0  0  0  0
    7.0368    9.8611   25.2519 C   0  0  0  0  0  0  0  0  0  0  0  0
    5.9219   10.1860   26.0152 C   0  0  0  0  0  0  0  0  0  0  0  0
    5.5192   11.4893   26.1946 C   0  0  0  0  0  0  0  0  0  0  0  0
    4.4064   11.6525   26.9277 N   0  0  0  0  0  0  0  0  0  0  0  0
    3.9523   12.8990   27.1405 C   0  0  0  0  0  0  0  0  0  0  0  0
    4.5705   14.0133   26.6339 C   0  0  0  0  0  0  0  0  0  0  0  0
    5.7276   13.8278   25.8804 C   0  0  0  0  0  0  0  0  0  0  0  0
    6.2797   12.5444   25.6350 C   0  0  0  0  0  0  0  0  0  0  0  0
    7.4904   12.2249   24.9040 C   0  0  0  0  0  0  0  0  0  0  0  0
    8.5945   13.2489   24.5969 N   0  0  2  0  0  0  0  0  0  0  0  0
    9.6825   12.7299   25.2512 O   0  0  0  0  0  0  0  0  0  0  0  0
    8.4839   14.6008   25.3174 N   0  0  0  0  0  0  0  0  0  0  0  0
    8.8367   15.8775   24.6285 N   0  0  0  0  0  0  0  0  0  0  0  0
    7.7827   16.2841   23.6910 C   0  0  0  0  0  0  0  0  0  0  0  0
    8.2683   16.2997   22.3665 O   0  0  0  0  0  0  0  0  0  0  0  0
    9.6973   16.2118   22.3940 C   0  0  1  0  0  0  0  0  0  0  0  0
   10.1132   15.9049   23.8634 C   0  0  2  0  0  0  0  0  0  0  0  0
   10.8957   14.5999   23.7531 C   0  0  0  0  0  0  0  0  0  0  0  0
   10.1699   13.9460   22.6781 N   0  0  0  0  0  0  0  0  0  0  0  0
    8.8784   13.4351   23.0862 C   0  0  0  0  0  0  0  0  0  0  0  0
    7.9242   13.2170   22.3377 O   0  0  0  0  0  0  0  0  0  0  0  0
   10.1999   14.9618   21.6276 C   0  0  1  0  0  0  0  0  0  0  0  0
    9.5223   14.5623   20.4201 N   0  0  0  0  0  0  0  0  0  0  0  0
   10.0932   15.4714   19.4260 C   0  0  0  0  0  0  0  0  0  0  0  0
   11.4713   15.6359   19.6971 O   0  0  0  0  0  0  0  0  0  0  0  0
   11.6476   15.1876   21.0278 C   0  0  1  0  0  0  0  0  0  0  0  0
   12.5300   16.1340   21.6860 N   0  0  0  0  0  0  0  0  0  0  0  0
  1  2  1  0
  2  3  1  0
  3  4  2  0
  4  5  1  0
  5  6  2  0
  6  7  1  0
  7  8  2  0
  8  9  1  0
  9 10  2  0
 10 11  1  0
 11 12  2  0
 12 13  1  0
 13 14  1  1
 13 15  1  0
 15 16  1  0
 16 17  1  0
 17 18  1  0
 19 18  1  1
 19 20  1  0
 20 21  1  6
 21 22  1  0
 22 23  1  0
 23 24  2  0
 22 25  1  0
 25 26  1  6
 26 27  1  0
 27 28  1  0
 28 29  1  0
 29 30  1  1
 12  3  1  0
 23 13  1  0
 29 25  1  0
 11  6  1  0
 20 16  1  0
 25 19  1  0
M  CHG  2  13   1  14  -1
M  END
>  <ref_pdb>  (275) 
A4963a

>  <tags>  (275) 
{'fragmenstein_placed', 'openbind_a71ev2a_c1_fragmenstein'}

>  <distance_score>  (275) 
0.934004

>  <energy_score>  (275) 
-130.178001

>  <inchikey>  (275) 
DOTHXRCBGJFSGT-UHFFFAOYSA-N

>  <alias>  (275) 
CSc1ccc2ncccc2c1[N@+]1([O-])NN2CO[C@H]3[C@@H]2CN(C1=O)[C@@]31NCO[C@H]1N

>  <smiles>  (275) 
C169185-P526

>  <HIPPO Pose ID>  (275) 
106864

>  <ref_mols>  (275) 
A5608a,A4977a

>  <HIPPO Compound ID>  (275) 
169562

$$$$
Cn1nc(C[C@@]2(O)NC[C@@H]3N2CC[C@@]32NCO[C@H]2N)c2ccccc21
     RDKit          3D

 25 29  0  0  0  0  0  0  0  0999 V2000
    9.0579    9.2919   23.8350 C   0  0  0  0  0  0  0  0  0  0  0  0
    8.5518   10.5305   24.3662 N   0  0  0  0  0  0  0  0  0  0  0  0
    9.2777   11.6243   24.1445 N   0  0  0  0  0  0  0  0  0  0  0  0
    8.7654   12.5292   24.9800 C   0  0  0  0  0  0  0  0  0  0  0  0
    9.4514   13.8087   25.2118 C   0  0  0  0  0  0  0  0  0  0  0  0
   10.5127   14.2038   24.1865 C   0  0  1  0  0  0  0  0  0  0  0  0
   11.4085   14.9737   24.9482 O   0  0  0  0  0  0  0  0  0  0  0  0
   11.4091   13.2572   23.5585 N   0  0  0  0  0  0  0  0  0  0  0  0
   11.5150   13.7121   22.1425 C   0  0  0  0  0  0  0  0  0  0  0  0
   10.9245   15.1088   22.0824 C   0  0  2  0  0  0  0  0  0  0  0  0
    9.9267   14.9890   23.1505 N   0  0  0  0  0  0  0  0  0  0  0  0
    8.7260   14.4149   22.5552 C   0  0  0  0  0  0  0  0  0  0  0  0
    8.6057   15.1615   21.2724 C   0  0  0  0  0  0  0  0  0  0  0  0
   10.0672   15.5416   20.8941 C   0  0  1  0  0  0  0  0  0  0  0  0
   10.0240   16.9754   20.6011 N   0  0  0  0  0  0  0  0  0  0  0  0
    9.5330   17.0319   19.2350 C   0  0  0  0  0  0  0  0  0  0  0  0
    9.5721   15.7120   18.6829 O   0  0  0  0  0  0  0  0  0  0  0  0
   10.4082   14.9486   19.5397 C   0  0  1  0  0  0  0  0  0  0  0  0
   11.7059   14.8802   18.9229 N   0  0  0  0  0  0  0  0  0  0  0  0
    7.6164   12.0660   25.6422 C   0  0  0  0  0  0  0  0  0  0  0  0
    6.7152   12.5923   26.5861 C   0  0  0  0  0  0  0  0  0  0  0  0
    5.7407   11.7547   27.1290 C   0  0  0  0  0  0  0  0  0  0  0  0
    5.6510   10.4330   26.7160 C   0  0  0  0  0  0  0  0  0  0  0  0
    6.5058    9.9291   25.7336 C   0  0  0  0  0  0  0  0  0  0  0  0
    7.5096   10.7461   25.2327 C   0  0  0  0  0  0  0  0  0  0  0  0
  1  2  1  0
  2  3  1  0
  3  4  2  0
  4  5  1  0
  5  6  1  0
  6  7  1  1
  6  8  1  0
  8  9  1  0
 10  9  1  6
 10 11  1  0
 11 12  1  0
 12 13  1  0
 14 13  1  1
 14 15  1  0
 15 16  1  0
 16 17  1  0
 17 18  1  0
 18 19  1  6
  4 20  1  0
 20 21  2  0
 21 22  1  0
 22 23  2  0
 23 24  1  0
 24 25  2  0
 25  2  1  0
 11  6  1  0
 18 14  1  0
 25 20  1  0
 14 10  1  0
M  END
>  <ref_pdb>  (276) 
A4954a

>  <tags>  (276) 
{'fragmenstein_placed', 'openbind_a71ev2a_c1_fragmenstein'}

>  <distance_score>  (276) 
0.973516

>  <energy_score>  (276) 
-28.676613

>  <inchikey>  (276) 
PRRHPJGGAIEJHT-UHFFFAOYSA-N

>  <alias>  (276) 
Cn1nc(C[C@@]2(O)NC[C@@H]3N2CC[C@@]32NCO[C@H]2N)c2ccccc21

>  <smiles>  (276) 
C274747-P543

>  <HIPPO Pose ID>  (276) 
108430

>  <ref_mols>  (276) 
A3286a,A4994a

>  <HIPPO Compound ID>  (276) 
274747

$$$$
Cn1nc(CC2=N[C@@H](N)[C@@H]3N2CC[C@@]32NCO[C@@H]2N)c2ccccc21
     RDKit          3D

 25 29  0  0  0  0  0  0  0  0999 V2000
    9.1447    9.4108   23.4714 C   0  0  0  0  0  0  0  0  0  0  0  0
    8.7178   10.6008   24.1640 N   0  0  0  0  0  0  0  0  0  0  0  0
    9.4484   11.7016   23.9847 N   0  0  0  0  0  0  0  0  0  0  0  0
    8.9518   12.5786   24.8613 C   0  0  0  0  0  0  0  0  0  0  0  0
    9.6382   13.8638   25.1083 C   0  0  0  0  0  0  0  0  0  0  0  0
   10.4778   14.2367   23.9387 C   0  0  0  0  0  0  0  0  0  0  0  0
   11.7448   13.9383   23.7989 N   0  0  0  0  0  0  0  0  0  0  0  0
   12.0475   14.3818   22.4016 C   0  0  1  0  0  0  0  0  0  0  0  0
   12.2375   13.2434   21.5757 N   0  0  0  0  0  0  0  0  0  0  0  0
   10.9185   15.3202   21.9795 C   0  0  2  0  0  0  0  0  0  0  0  0
    9.8977   14.9667   22.9620 N   0  0  0  0  0  0  0  0  0  0  0  0
    8.6231   14.6047   22.3568 C   0  0  0  0  0  0  0  0  0  0  0  0
    8.9863   14.4250   20.9183 C   0  0  0  0  0  0  0  0  0  0  0  0
   10.1045   15.4206   20.7079 C   0  0  1  0  0  0  0  0  0  0  0  0
    9.3766   16.7216   20.6854 N   0  0  0  0  0  0  0  0  0  0  0  0
    9.3645   17.0822   19.3045 C   0  0  0  0  0  0  0  0  0  0  0  0
    9.7872   15.9558   18.5257 O   0  0  0  0  0  0  0  0  0  0  0  0
   10.7671   15.3356   19.3543 C   0  0  2  0  0  0  0  0  0  0  0  0
   11.2554   14.1154   18.7959 N   0  0  0  0  0  0  0  0  0  0  0  0
    7.7868   12.0969   25.4914 C   0  0  0  0  0  0  0  0  0  0  0  0
    6.8617   12.6029   26.4254 C   0  0  0  0  0  0  0  0  0  0  0  0
    5.9035   11.7433   26.9630 C   0  0  0  0  0  0  0  0  0  0  0  0
    5.8618   10.4143   26.5651 C   0  0  0  0  0  0  0  0  0  0  0  0
    6.7326    9.9254   25.5863 C   0  0  0  0  0  0  0  0  0  0  0  0
    7.6996   10.7774   25.0673 C   0  0  0  0  0  0  0  0  0  0  0  0
  1  2  1  0
  2  3  1  0
  3  4  2  0
  4  5  1  0
  5  6  1  0
  6  7  2  0
  7  8  1  0
  8  9  1  6
  8 10  1  0
 10 11  1  1
 11 12  1  0
 12 13  1  0
 14 13  1  1
 14 15  1  0
 15 16  1  0
 16 17  1  0
 17 18  1  0
 18 19  1  6
  4 20  1  0
 20 21  2  0
 21 22  1  0
 22 23  2  0
 23 24  1  0
 24 25  2  0
 25  2  1  0
 11  6  1  0
 18 14  1  0
 25 20  1  0
 14 10  1  0
M  END
>  <ref_pdb>  (277) 
A4954a

>  <tags>  (277) 
{'fragmenstein_placed', 'openbind_a71ev2a_c1_fragmenstein'}

>  <distance_score>  (277) 
0.838208

>  <energy_score>  (277) 
-33.949892

>  <inchikey>  (277) 
DGOQEBJTDGIOJZ-UHFFFAOYSA-N

>  <alias>  (277) 
Cn1nc(CC2=N[C@@H](N)[C@@H]3N2CC[C@@]32NCO[C@@H]2N)c2ccccc21

>  <smiles>  (277) 
C274746-P182

>  <HIPPO Pose ID>  (277) 
108435

>  <ref_mols>  (277) 
A3435a,A4994a

>  <HIPPO Compound ID>  (277) 
274746

$$$$
COc1scc(SC)c1CC(O)(O)N1CC[C@@H]2C(=O)NC(=O)[C@@H]21
     RDKit          3D

 23 25  0  0  0  0  0  0  0  0999 V2000
    4.8883   13.7728   26.2129 C   0  0  0  0  0  0  0  0  0  0  0  0
    6.1938   13.3352   26.5713 O   0  0  0  0  0  0  0  0  0  0  0  0
    6.5708   12.2146   25.9529 C   0  0  0  0  0  0  0  0  0  0  0  0
    6.1288   10.6797   26.5457 S   0  0  0  0  0  0  0  0  0  0  0  0
    7.0895    9.8873   25.3798 C   0  0  0  0  0  0  0  0  0  0  0  0
    7.7459   10.7620   24.5588 C   0  0  0  0  0  0  0  0  0  0  0  0
    8.9338   10.3645   23.3267 S   0  0  0  0  0  0  0  0  0  0  0  0
    8.9968    8.5830   23.2468 C   0  0  0  0  0  0  0  0  0  0  0  0
    7.4191   12.1257   24.8674 C   0  0  0  0  0  0  0  0  0  0  0  0
    7.9590   13.3361   24.1445 C   0  0  0  0  0  0  0  0  0  0  0  0
    9.4080   13.7073   24.5930 C   0  0  0  0  0  0  0  0  0  0  0  0
    9.3168   14.3733   25.8500 O   0  0  0  0  0  0  0  0  0  0  0  0
   10.2344   12.5894   24.8187 O   0  0  0  0  0  0  0  0  0  0  0  0
   10.0788   14.6063   23.6790 N   0  0  0  0  0  0  0  0  0  0  0  0
   11.4630   14.8434   24.0816 C   0  0  0  0  0  0  0  0  0  0  0  0
   12.3520   14.0066   23.2090 C   0  0  0  0  0  0  0  0  0  0  0  0
   11.5349   13.6920   21.9852 C   0  0  2  0  0  0  0  0  0  0  0  0
   11.9105   14.4635   20.7512 C   0  0  0  0  0  0  0  0  0  0  0  0
   12.6536   14.1088   19.8567 O   0  0  0  0  0  0  0  0  0  0  0  0
   11.2150   15.6127   20.7232 N   0  0  0  0  0  0  0  0  0  0  0  0
   10.0271   15.4123   21.3381 C   0  0  0  0  0  0  0  0  0  0  0  0
    9.0086   16.0419   21.0979 O   0  0  0  0  0  0  0  0  0  0  0  0
   10.1379   14.2056   22.2656 C   0  0  2  0  0  0  0  0  0  0  0  0
  1  2  1  0
  2  3  1  0
  3  4  1  0
  4  5  1  0
  5  6  2  0
  6  7  1  0
  7  8  1  0
  6  9  1  0
  9 10  1  0
 10 11  1  0
 11 12  1  0
 11 13  1  0
 11 14  1  0
 14 15  1  0
 15 16  1  0
 17 16  1  1
 17 18  1  0
 18 19  2  0
 18 20  1  0
 20 21  1  0
 21 22  2  0
 21 23  1  0
  9  3  2  0
 23 14  1  1
 23 17  1  0
M  END
>  <ref_pdb>  (278) 
A4954a

>  <tags>  (278) 
{'fragmenstein_placed', 'openbind_a71ev2a_c1_fragmenstein'}

>  <distance_score>  (278) 
0.936146

>  <energy_score>  (278) 
-42.801679

>  <inchikey>  (278) 
MXSLUNSBFKLXMH-UHFFFAOYSA-N

>  <alias>  (278) 
COc1scc(SC)c1CC(O)(O)N1CC[C@@H]2C(=O)NC(=O)[C@@H]21

>  <smiles>  (278) 
C275059-P544

>  <HIPPO Pose ID>  (278) 
108614

>  <ref_mols>  (278) 
A4998a,A2454a

>  <HIPPO Compound ID>  (278) 
275059

$$$$
CCS(=O)(=O)c1scc(SC)c1CC(O)(O)N1CC[C@@H]2C(=O)NC(=O)[C@@H]21
     RDKit          3D

 26 28  0  0  0  0  0  0  0  0999 V2000
    5.4269   14.1855   29.5096 C   0  0  0  0  0  0  0  0  0  0  0  0
    5.8519   13.0194   28.6373 C   0  0  0  0  0  0  0  0  0  0  0  0
    5.8765   13.4775   26.9151 S   0  0  0  0  0  0  0  0  0  0  0  0
    6.8610   14.5318   26.7414 O   0  0  0  0  0  0  0  0  0  0  0  0
    4.5183   13.5873   26.4296 O   0  0  0  0  0  0  0  0  0  0  0  0
    6.5913   12.0951   26.0361 C   0  0  0  0  0  0  0  0  0  0  0  0
    6.0781   10.5471   26.5247 S   0  0  0  0  0  0  0  0  0  0  0  0
    7.1184    9.7800   25.4189 C   0  0  0  0  0  0  0  0  0  0  0  0
    7.8325   10.6617   24.6616 C   0  0  0  0  0  0  0  0  0  0  0  0
    9.0516   10.2639   23.4602 S   0  0  0  0  0  0  0  0  0  0  0  0
    9.0546    8.4915   23.3061 C   0  0  0  0  0  0  0  0  0  0  0  0
    7.5026   12.0217   24.9871 C   0  0  0  0  0  0  0  0  0  0  0  0
    8.0657   13.2098   24.2502 C   0  0  0  0  0  0  0  0  0  0  0  0
    9.5264   13.5927   24.6587 C   0  0  0  0  0  0  0  0  0  0  0  0
    9.4814   14.1855   25.9536 O   0  0  0  0  0  0  0  0  0  0  0  0
   10.3936   12.4878   24.7680 O   0  0  0  0  0  0  0  0  0  0  0  0
   10.1105   14.5622   23.7497 N   0  0  0  0  0  0  0  0  0  0  0  0
   11.4990   14.8417   24.1141 C   0  0  0  0  0  0  0  0  0  0  0  0
   12.3904   14.0238   23.2248 C   0  0  0  0  0  0  0  0  0  0  0  0
   11.5593   13.6919   22.0153 C   0  0  2  0  0  0  0  0  0  0  0  0
   11.9022   14.4774   20.7814 C   0  0  0  0  0  0  0  0  0  0  0  0
   12.6268   14.1347   19.8672 O   0  0  0  0  0  0  0  0  0  0  0  0
   11.1928   15.6185   20.7813 N   0  0  0  0  0  0  0  0  0  0  0  0
   10.0133   15.3850   21.4016 C   0  0  0  0  0  0  0  0  0  0  0  0
    8.9764   15.9832   21.1607 O   0  0  0  0  0  0  0  0  0  0  0  0
   10.1579   14.1778   22.3247 C   0  0  2  0  0  0  0  0  0  0  0  0
  1  2  1  0
  2  3  1  0
  3  4  2  0
  3  5  2  0
  3  6  1  0
  6  7  1  0
  7  8  1  0
  8  9  2  0
  9 10  1  0
 10 11  1  0
  9 12  1  0
 12 13  1  0
 13 14  1  0
 14 15  1  0
 14 16  1  0
 14 17  1  0
 17 18  1  0
 18 19  1  0
 20 19  1  1
 20 21  1  0
 21 22  2  0
 21 23  1  0
 23 24  1  0
 24 25  2  0
 24 26  1  0
 12  6  2  0
 26 17  1  1
 26 20  1  0
M  END
>  <ref_pdb>  (279) 
A4954a

>  <tags>  (279) 
{'fragmenstein_placed', 'openbind_a71ev2a_c1_fragmenstein'}

>  <distance_score>  (279) 
0.988119

>  <energy_score>  (279) 
-99.087069

>  <inchikey>  (279) 
PERWCHKMRHFFHJ-UHFFFAOYSA-N

>  <alias>  (279) 
CCS(=O)(=O)c1scc(SC)c1CC(O)(O)N1CC[C@@H]2C(=O)NC(=O)[C@@H]21

>  <smiles>  (279) 
C275136-P544

>  <HIPPO Pose ID>  (279) 
108646

>  <ref_mols>  (279) 
A4998a,A3938a

>  <HIPPO Compound ID>  (279) 
275136

$$$$
CSc1cscc1CC(O)(O)N1CC[C@H]2C(=O)NC(=O)[C@H]21
     RDKit          3D

 21 23  0  0  0  0  0  0  0  0999 V2000
    9.2938    8.9951   23.4319 C   0  0  0  0  0  0  0  0  0  0  0  0
    9.3470   10.7725   23.7138 S   0  0  0  0  0  0  0  0  0  0  0  0
    7.9741   11.1045   24.7685 C   0  0  0  0  0  0  0  0  0  0  0  0
    7.3277   10.1895   25.5643 C   0  0  0  0  0  0  0  0  0  0  0  0
    6.0484   10.8886   26.4541 S   0  0  0  0  0  0  0  0  0  0  0  0
    6.3584   12.4301   25.7854 C   0  0  0  0  0  0  0  0  0  0  0  0
    7.3986   12.4233   24.8728 C   0  0  0  0  0  0  0  0  0  0  0  0
    7.8057   13.6245   24.0365 C   0  0  0  0  0  0  0  0  0  0  0  0
    9.1711   14.2980   24.3901 C   0  0  0  0  0  0  0  0  0  0  0  0
    9.8145   13.5596   25.4144 O   0  0  0  0  0  0  0  0  0  0  0  0
    8.9705   15.5739   24.9634 O   0  0  0  0  0  0  0  0  0  0  0  0
   10.0554   14.3830   23.2292 N   0  0  0  0  0  0  0  0  0  0  0  0
   11.4697   14.5423   23.5821 C   0  0  0  0  0  0  0  0  0  0  0  0
   12.1073   14.8336   22.2427 C   0  0  0  0  0  0  0  0  0  0  0  0
   11.1305   15.7717   21.5887 C   0  0  1  0  0  0  0  0  0  0  0  0
   10.8609   15.4805   20.1430 C   0  0  0  0  0  0  0  0  0  0  0  0
   11.6639   15.1957   19.2711 O   0  0  0  0  0  0  0  0  0  0  0  0
    9.5254   15.5328   19.9701 N   0  0  0  0  0  0  0  0  0  0  0  0
    8.8869   15.1792   21.1221 C   0  0  0  0  0  0  0  0  0  0  0  0
    7.7879   14.6451   21.1744 O   0  0  0  0  0  0  0  0  0  0  0  0
    9.7900   15.5071   22.2910 C   0  0  1  0  0  0  0  0  0  0  0  0
  1  2  1  0
  2  3  1  0
  3  4  2  0
  4  5  1  0
  5  6  1  0
  6  7  2  0
  7  8  1  0
  8  9  1  0
  9 10  1  0
  9 11  1  0
  9 12  1  0
 12 13  1  0
 13 14  1  0
 15 14  1  1
 15 16  1  0
 16 17  2  0
 16 18  1  0
 18 19  1  0
 19 20  2  0
 19 21  1  0
  7  3  1  0
 21 12  1  1
 21 15  1  0
M  END
>  <ref_pdb>  (280) 
A4954a

>  <tags>  (280) 
{'fragmenstein_placed', 'openbind_a71ev2a_c1_fragmenstein'}

>  <distance_score>  (280) 
0.998375

>  <energy_score>  (280) 
-73.228341

>  <inchikey>  (280) 
BVYHAKCOTPOKAQ-UHFFFAOYSA-N

>  <alias>  (280) 
CSc1cscc1CC(O)(O)N1CC[C@H]2C(=O)NC(=O)[C@H]21

>  <smiles>  (280) 
C275086-P425

>  <HIPPO Pose ID>  (280) 
108729

>  <ref_mols>  (280) 
A4998a,A4669a

>  <HIPPO Compound ID>  (280) 
275086

$$$$
CSc1csc(Cl)c1CC(O)(O)N1CC[C@@H]2C(=O)NC(=O)[C@@H]21
     RDKit          3D

 22 24  0  0  0  0  0  0  0  0999 V2000
    9.0864    8.5167   23.3154 C   0  0  0  0  0  0  0  0  0  0  0  0
    8.9059   10.2888   23.2570 S   0  0  0  0  0  0  0  0  0  0  0  0
    7.7289   10.7143   24.4931 C   0  0  0  0  0  0  0  0  0  0  0  0
    7.0769    9.8466   25.3285 C   0  0  0  0  0  0  0  0  0  0  0  0
    6.1140   10.6498   26.4854 S   0  0  0  0  0  0  0  0  0  0  0  0
    6.5810   12.1523   25.8799 C   0  0  0  0  0  0  0  0  0  0  0  0
    6.0463   13.5624   26.6866 Cl  0  0  0  0  0  0  0  0  0  0  0  0
    7.4191   12.0893   24.7923 C   0  0  0  0  0  0  0  0  0  0  0  0
    8.0046   13.2835   24.0743 C   0  0  0  0  0  0  0  0  0  0  0  0
    9.4516   13.5994   24.5631 C   0  0  0  0  0  0  0  0  0  0  0  0
    9.3157   14.2248   25.8268 O   0  0  0  0  0  0  0  0  0  0  0  0
   10.2422   12.4528   24.7736 O   0  0  0  0  0  0  0  0  0  0  0  0
   10.2066   14.5087   23.7216 N   0  0  0  0  0  0  0  0  0  0  0  0
   11.5851   14.6296   24.2235 C   0  0  0  0  0  0  0  0  0  0  0  0
   12.4289   14.7957   22.9979 C   0  0  0  0  0  0  0  0  0  0  0  0
   11.7734   13.9233   21.9692 C   0  0  2  0  0  0  0  0  0  0  0  0
   11.8970   14.5544   20.6268 C   0  0  0  0  0  0  0  0  0  0  0  0
   12.6274   14.2306   19.7140 O   0  0  0  0  0  0  0  0  0  0  0  0
   11.0218   15.5758   20.6007 N   0  0  0  0  0  0  0  0  0  0  0  0
    9.9375   15.2584   21.3606 C   0  0  0  0  0  0  0  0  0  0  0  0
    8.8298   15.7608   21.2690 O   0  0  0  0  0  0  0  0  0  0  0  0
   10.3061   14.1006   22.2943 C   0  0  2  0  0  0  0  0  0  0  0  0
  1  2  1  0
  2  3  1  0
  3  4  2  0
  4  5  1  0
  5  6  1  0
  6  7  1  0
  6  8  2  0
  8  9  1  0
  9 10  1  0
 10 11  1  0
 10 12  1  0
 10 13  1  0
 13 14  1  0
 14 15  1  0
 16 15  1  1
 16 17  1  0
 17 18  2  0
 17 19  1  0
 19 20  1  0
 20 21  2  0
 20 22  1  0
  8  3  1  0
 22 13  1  1
 22 16  1  0
M  END
>  <ref_pdb>  (281) 
A4954a

>  <tags>  (281) 
{'fragmenstein_placed', 'openbind_a71ev2a_c1_fragmenstein'}

>  <distance_score>  (281) 
0.864106

>  <energy_score>  (281) 
-80.781065

>  <inchikey>  (281) 
BSFNWEBLPBDYQC-UHFFFAOYSA-N

>  <alias>  (281) 
CSc1csc(Cl)c1CC(O)(O)N1CC[C@@H]2C(=O)NC(=O)[C@@H]21

>  <smiles>  (281) 
C275125-P544

>  <HIPPO Pose ID>  (281) 
108730

>  <ref_mols>  (281) 
A4998a,A4771a,A4673b

>  <HIPPO Compound ID>  (281) 
275125

$$$$
CS[C@H]1CS[C@@]2(CCCNC2)[C@@H]1CC(O)(O)N1CC[C@@H]2C(=O)NC(=O)[C@@H]21
     RDKit          3D

 26 29  0  0  0  0  0  0  0  0999 V2000
    8.9052    8.8352   23.4055 C   0  0  0  0  0  0  0  0  0  0  0  0
    9.0936   10.5703   23.8507 S   0  0  0  0  0  0  0  0  0  0  0  0
    7.4040   11.0002   24.5033 C   0  0  1  0  0  0  0  0  0  0  0  0
    6.9280    9.9989   25.5218 C   0  0  0  0  0  0  0  0  0  0  0  0
    5.6615   10.8207   26.5035 S   0  0  0  0  0  0  0  0  0  0  0  0
    6.1843   12.5607   26.1539 C   0  0  2  0  0  0  0  0  0  0  0  0
    6.5815   13.1701   27.5284 C   0  0  0  0  0  0  0  0  0  0  0  0
    5.4919   14.0288   28.1891 C   0  0  0  0  0  0  0  0  0  0  0  0
    4.0824   13.5658   27.8472 C   0  0  0  0  0  0  0  0  0  0  0  0
    3.8259   13.4988   26.4111 N   0  0  0  0  0  0  0  0  0  0  0  0
    5.0505   13.4519   25.5944 C   0  0  0  0  0  0  0  0  0  0  0  0
    7.4355   12.3464   25.2494 C   0  0  2  0  0  0  0  0  0  0  0  0
    7.8532   13.4967   24.3024 C   0  0  0  0  0  0  0  0  0  0  0  0
    9.1963   14.1130   24.7393 C   0  0  0  0  0  0  0  0  0  0  0  0
    9.9183   13.2529   25.5675 O   0  0  0  0  0  0  0  0  0  0  0  0
    8.8582   15.1648   25.6332 O   0  0  0  0  0  0  0  0  0  0  0  0
   10.0804   14.6561   23.7534 N   0  0  0  0  0  0  0  0  0  0  0  0
   11.4251   14.8804   24.3105 C   0  0  0  0  0  0  0  0  0  0  0  0
   12.3159   13.8270   23.7200 C   0  0  0  0  0  0  0  0  0  0  0  0
   11.7772   13.7582   22.3207 C   0  0  2  0  0  0  0  0  0  0  0  0
   12.0807   14.9501   21.4579 C   0  0  0  0  0  0  0  0  0  0  0  0
   13.0306   15.7018   21.5582 O   0  0  0  0  0  0  0  0  0  0  0  0
   11.0271   15.1466   20.6465 N   0  0  0  0  0  0  0  0  0  0  0  0
    9.8979   14.7505   21.2928 C   0  0  0  0  0  0  0  0  0  0  0  0
    8.7597   15.0944   21.0118 O   0  0  0  0  0  0  0  0  0  0  0  0
   10.2771   13.8973   22.4935 C   0  0  2  0  0  0  0  0  0  0  0  0
  1  2  1  0
  3  2  1  1
  3  4  1  0
  4  5  1  0
  5  6  1  0
  6  7  1  1
  7  8  1  0
  8  9  1  0
  9 10  1  0
 10 11  1  0
  6 12  1  0
 12 13  1  6
 13 14  1  0
 14 15  1  0
 14 16  1  0
 14 17  1  0
 17 18  1  0
 18 19  1  0
 20 19  1  1
 20 21  1  0
 21 22  2  0
 21 23  1  0
 23 24  1  0
 24 25  2  0
 24 26  1  0
 12  3  1  0
 26 17  1  1
 11  6  1  0
 26 20  1  0
M  END
>  <ref_pdb>  (282) 
A4954a

>  <tags>  (282) 
{'fragmenstein_placed', 'openbind_a71ev2a_c1_fragmenstein'}

>  <distance_score>  (282) 
0.925742

>  <energy_score>  (282) 
-55.039258

>  <inchikey>  (282) 
JSYSWGOJEAQZOD-UHFFFAOYSA-N

>  <alias>  (282) 
CS[C@H]1CS[C@@]2(CCCNC2)[C@@H]1CC(O)(O)N1CC[C@@H]2C(=O)NC(=O)[C@@H]21

>  <smiles>  (282) 
C275281-P544

>  <HIPPO Pose ID>  (282) 
108745

>  <ref_mols>  (282) 
A4998a,A4824b

>  <HIPPO Compound ID>  (282) 
275281

$$$$
CSc1csc(SC(C)C)c1CC(O)(O)N1CC[C@@H]2C(=O)NC(=O)[C@@H]21
     RDKit          3D

 25 27  0  0  0  0  0  0  0  0999 V2000
    9.0835    8.7506   22.8193 C   0  0  0  0  0  0  0  0  0  0  0  0
    9.2308   10.4481   23.3847 S   0  0  0  0  0  0  0  0  0  0  0  0
    7.9350   10.6260   24.5351 C   0  0  0  0  0  0  0  0  0  0  0  0
    7.4045    9.5814   25.2334 C   0  0  0  0  0  0  0  0  0  0  0  0
    6.2023   10.0801   26.3033 S   0  0  0  0  0  0  0  0  0  0  0  0
    6.4668   11.7144   25.9698 C   0  0  0  0  0  0  0  0  0  0  0  0
    5.7454   13.0105   26.9082 S   0  0  0  0  0  0  0  0  0  0  0  0
    4.3762   12.2332   27.8254 C   0  0  0  0  0  0  0  0  0  0  0  0
    4.8579   11.6190   29.1373 C   0  0  0  0  0  0  0  0  0  0  0  0
    3.3240   13.3078   28.1048 C   0  0  0  0  0  0  0  0  0  0  0  0
    7.3284   11.8734   24.8903 C   0  0  0  0  0  0  0  0  0  0  0  0
    7.5788   13.1811   24.2035 C   0  0  0  0  0  0  0  0  0  0  0  0
    8.8159   13.9850   24.6913 C   0  0  0  0  0  0  0  0  0  0  0  0
    9.0303   13.8058   26.0771 O   0  0  0  0  0  0  0  0  0  0  0  0
    8.4905   15.3487   24.6158 O   0  0  0  0  0  0  0  0  0  0  0  0
   10.0443   13.6970   23.9918 N   0  0  0  0  0  0  0  0  0  0  0  0
   11.2520   14.3275   24.4746 C   0  0  0  0  0  0  0  0  0  0  0  0
   12.2941   13.8740   23.4802 C   0  0  0  0  0  0  0  0  0  0  0  0
   11.5563   13.6890   22.1716 C   0  0  2  0  0  0  0  0  0  0  0  0
   11.6897   14.8082   21.1854 C   0  0  0  0  0  0  0  0  0  0  0  0
   12.6084   14.9731   20.4080 O   0  0  0  0  0  0  0  0  0  0  0  0
   10.6080   15.6089   21.2668 N   0  0  0  0  0  0  0  0  0  0  0  0
    9.5770   14.9783   21.8728 C   0  0  0  0  0  0  0  0  0  0  0  0
    8.4042   15.3273   21.8622 O   0  0  0  0  0  0  0  0  0  0  0  0
   10.0829   13.7175   22.5289 C   0  0  2  0  0  0  0  0  0  0  0  0
  1  2  1  0
  2  3  1  0
  3  4  2  0
  4  5  1  0
  5  6  1  0
  6  7  1  0
  7  8  1  0
  8  9  1  0
  8 10  1  0
  6 11  2  0
 11 12  1  0
 12 13  1  0
 13 14  1  0
 13 15  1  0
 13 16  1  0
 16 17  1  0
 17 18  1  0
 19 18  1  1
 19 20  1  0
 20 21  2  0
 20 22  1  0
 22 23  1  0
 23 24  2  0
 23 25  1  0
 11  3  1  0
 25 16  1  1
 25 19  1  0
M  END
>  <ref_pdb>  (283) 
A4954a

>  <tags>  (283) 
{'fragmenstein_placed', 'openbind_a71ev2a_c1_fragmenstein'}

>  <distance_score>  (283) 
0.926625

>  <energy_score>  (283) 
-61.324837

>  <inchikey>  (283) 
LSQFWTMMCIXCRS-UHFFFAOYSA-N

>  <alias>  (283) 
CSc1csc(SC(C)C)c1CC(O)(O)N1CC[C@@H]2C(=O)NC(=O)[C@@H]21

>  <smiles>  (283) 
C275319-P544

>  <HIPPO Pose ID>  (283) 
108764

>  <ref_mols>  (283) 
A4998a,A4949a

>  <HIPPO Compound ID>  (283) 
275319

$$$$
N[C@@H]1CC[C@@H](C(N)(O)O)CN1[C@@]1(O)CNNc2ncccc2C1
     RDKit          3D

 23 25  0  0  0  0  0  0  0  0999 V2000
   10.6522   16.4134   24.0098 N   0  0  0  0  0  0  0  0  0  0  0  0
   10.9090   15.1039   23.4494 C   0  0  2  0  0  0  0  0  0  0  0  0
   12.1402   15.1094   22.5478 C   0  0  0  0  0  0  0  0  0  0  0  0
   12.0026   15.9909   21.3138 C   0  0  0  0  0  0  0  0  0  0  0  0
   10.6186   15.8759   20.6520 C   0  0  1  0  0  0  0  0  0  0  0  0
   10.7026   15.7019   19.1055 C   0  0  0  0  0  0  0  0  0  0  0  0
   11.3586   14.5340   18.6297 N   0  0  0  0  0  0  0  0  0  0  0  0
    9.4505   15.7658   18.5205 O   0  0  0  0  0  0  0  0  0  0  0  0
   11.3644   16.7535   18.5096 O   0  0  0  0  0  0  0  0  0  0  0  0
    9.7471   14.7849   21.3056 C   0  0  0  0  0  0  0  0  0  0  0  0
    9.6572   14.7663   22.7989 N   0  0  0  0  0  0  0  0  0  0  0  0
    9.0633   13.4789   23.2892 C   0  0  1  0  0  0  0  0  0  0  0  0
    7.8544   13.2749   22.5401 O   0  0  0  0  0  0  0  0  0  0  0  0
   10.0249   12.2513   23.1582 C   0  0  0  0  0  0  0  0  0  0  0  0
    9.3920   10.9282   23.2533 N   0  0  0  0  0  0  0  0  0  0  0  0
    9.1413   10.6020   24.5890 N   0  0  0  0  0  0  0  0  0  0  0  0
    8.0069   11.1393   25.2252 C   0  0  0  0  0  0  0  0  0  0  0  0
    7.2368   10.2005   25.8292 N   0  0  0  0  0  0  0  0  0  0  0  0
    6.1692   10.6153   26.5380 C   0  0  0  0  0  0  0  0  0  0  0  0
    5.8472   11.9417   26.7284 C   0  0  0  0  0  0  0  0  0  0  0  0
    6.6565   12.8976   26.1305 C   0  0  0  0  0  0  0  0  0  0  0  0
    7.7563   12.5107   25.3465 C   0  0  0  0  0  0  0  0  0  0  0  0
    8.6415   13.6010   24.7829 C   0  0  0  0  0  0  0  0  0  0  0  0
  2  1  1  6
  2  3  1  0
  3  4  1  0
  4  5  1  0
  5  6  1  6
  6  7  1  0
  6  8  1  0
  6  9  1  0
  5 10  1  0
 10 11  1  0
 11 12  1  0
 12 13  1  6
 12 14  1  0
 14 15  1  0
 15 16  1  0
 16 17  1  0
 17 18  2  0
 18 19  1  0
 19 20  2  0
 20 21  1  0
 21 22  2  0
 22 23  1  0
 11  2  1  0
 23 12  1  0
 22 17  1  0
M  END
>  <ref_pdb>  (284) 
A4954a

>  <tags>  (284) 
{'fragmenstein_placed', 'openbind_a71ev2a_c1_fragmenstein'}

>  <distance_score>  (284) 
0.895478

>  <energy_score>  (284) 
-80.359876

>  <inchikey>  (284) 
IZMVXIGAIUHYCX-UHFFFAOYSA-N

>  <alias>  (284) 
N[C@@H]1CC[C@@H](C(N)(O)O)CN1[C@@]1(O)CNNc2ncccc2C1

>  <smiles>  (284) 
C275852-P546

>  <HIPPO Pose ID>  (284) 
109061

>  <ref_mols>  (284) 
A5015b,A5262a

>  <HIPPO Compound ID>  (284) 
275852

$$$$
COc1cccc([C@](C)(O)N2C[C@H](C(=O)NO)CCC2=O)c1
     RDKit          3D

 22 23  0  0  0  0  0  0  0  0999 V2000
    9.2258    8.6970   23.1214 C   0  0  0  0  0  0  0  0  0  0  0  0
    9.6227    9.9973   23.5022 O   0  0  0  0  0  0  0  0  0  0  0  0
    8.6893   10.8300   24.0281 C   0  0  0  0  0  0  0  0  0  0  0  0
    7.5707   10.4590   24.7597 C   0  0  0  0  0  0  0  0  0  0  0  0
    6.7175   11.4403   25.2535 C   0  0  0  0  0  0  0  0  0  0  0  0
    7.0035   12.7873   25.0359 C   0  0  0  0  0  0  0  0  0  0  0  0
    8.1793   13.1871   24.3723 C   0  0  0  0  0  0  0  0  0  0  0  0
    8.5514   14.6644   24.2887 C   0  0  2  0  0  0  0  0  0  0  0  0
    8.5693   15.2490   25.7098 C   0  0  0  0  0  0  0  0  0  0  0  0
    7.4800   15.3161   23.6087 O   0  0  0  0  0  0  0  0  0  0  0  0
    9.7814   14.9711   23.5404 N   0  0  0  0  0  0  0  0  0  0  0  0
    9.7556   14.9527   22.0733 C   0  0  0  0  0  0  0  0  0  0  0  0
   10.8336   15.8550   21.4483 C   0  0  2  0  0  0  0  0  0  0  0  0
   11.0078   15.3932   19.9990 C   0  0  0  0  0  0  0  0  0  0  0  0
   11.8634   14.7098   19.6099 O   0  0  0  0  0  0  0  0  0  0  0  0
    9.7748   15.9501   19.2783 N   0  0  0  0  0  0  0  0  0  0  0  0
    9.3985   15.8665   17.9624 O   0  0  0  0  0  0  0  0  0  0  0  0
   12.1383   15.8486   22.2296 C   0  0  0  0  0  0  0  0  0  0  0  0
   12.1961   14.7049   23.2141 C   0  0  0  0  0  0  0  0  0  0  0  0
   11.0167   14.7434   24.1508 C   0  0  0  0  0  0  0  0  0  0  0  0
   11.1847   14.5465   25.3508 O   0  0  0  0  0  0  0  0  0  0  0  0
    8.9978   12.1774   23.8613 C   0  0  0  0  0  0  0  0  0  0  0  0
  1  2  1  0
  2  3  1  0
  3  4  2  0
  4  5  1  0
  5  6  2  0
  6  7  1  0
  7  8  1  0
  8  9  1  1
  8 10  1  0
  8 11  1  0
 11 12  1  0
 12 13  1  0
 13 14  1  6
 14 15  2  0
 14 16  1  0
 16 17  1  0
 13 18  1  0
 18 19  1  0
 19 20  1  0
 20 21  2  0
  7 22  2  0
 22  3  1  0
 20 11  1  0
M  END
>  <ref_pdb>  (285) 
A4954a

>  <tags>  (285) 
{'fragmenstein_placed', 'openbind_a71ev2a_c1_fragmenstein'}

>  <distance_score>  (285) 
0.868427

>  <energy_score>  (285) 
-17.577081

>  <inchikey>  (285) 
ARBXKTTXCOPQPM-UHFFFAOYSA-N

>  <alias>  (285) 
COc1cccc([C@](C)(O)N2C[C@H](C(=O)NO)CCC2=O)c1

>  <smiles>  (285) 
C276709-P550

>  <HIPPO Pose ID>  (285) 
109435

>  <ref_mols>  (285) 
A4018a,A5036a

>  <HIPPO Compound ID>  (285) 
276709

$$$$
Cc1cc([C@@](C)(O)N2C[C@H](C(N)(O)O)CCC2=O)c2ccccc2c1
     RDKit          3D

 25 27  0  0  0  0  0  0  0  0999 V2000
    9.9756    9.4640   23.1619 C   0  0  0  0  0  0  0  0  0  0  0  0
    9.1367   10.5103   23.8296 C   0  0  0  0  0  0  0  0  0  0  0  0
    9.3632   11.8781   23.6375 C   0  0  0  0  0  0  0  0  0  0  0  0
    8.5469   12.8610   24.2451 C   0  0  0  0  0  0  0  0  0  0  0  0
    8.6468   14.3455   23.7941 C   0  0  1  0  0  0  0  0  0  0  0  0
    7.3517   14.6643   23.0157 C   0  0  0  0  0  0  0  0  0  0  0  0
    8.6580   15.2058   24.9271 O   0  0  0  0  0  0  0  0  0  0  0  0
    9.8501   14.7074   23.0115 N   0  0  0  0  0  0  0  0  0  0  0  0
    9.8425   14.6380   21.5451 C   0  0  0  0  0  0  0  0  0  0  0  0
   10.6406   15.7675   20.8873 C   0  0  2  0  0  0  0  0  0  0  0  0
   10.6924   15.6109   19.3526 C   0  0  0  0  0  0  0  0  0  0  0  0
   11.4054   14.4926   18.8422 N   0  0  0  0  0  0  0  0  0  0  0  0
    9.4101   15.5641   18.8408 O   0  0  0  0  0  0  0  0  0  0  0  0
   11.2325   16.7090   18.7372 O   0  0  0  0  0  0  0  0  0  0  0  0
   12.0104   15.9532   21.5577 C   0  0  0  0  0  0  0  0  0  0  0  0
   12.2596   14.9718   22.6939 C   0  0  0  0  0  0  0  0  0  0  0  0
   11.0872   14.8166   23.6329 C   0  0  0  0  0  0  0  0  0  0  0  0
   11.2496   14.7254   24.8503 O   0  0  0  0  0  0  0  0  0  0  0  0
    7.5158   12.4217   25.1550 C   0  0  0  0  0  0  0  0  0  0  0  0
    6.6696   13.2685   25.9188 C   0  0  0  0  0  0  0  0  0  0  0  0
    5.6312   12.7912   26.7234 C   0  0  0  0  0  0  0  0  0  0  0  0
    5.3846   11.4342   26.7848 C   0  0  0  0  0  0  0  0  0  0  0  0
    6.1983   10.5651   26.0678 C   0  0  0  0  0  0  0  0  0  0  0  0
    7.2768   11.0337   25.2999 C   0  0  0  0  0  0  0  0  0  0  0  0
    8.0929   10.1057   24.6545 C   0  0  0  0  0  0  0  0  0  0  0  0
  1  2  1  0
  2  3  2  0
  3  4  1  0
  4  5  1  0
  5  6  1  6
  5  7  1  0
  5  8  1  0
  8  9  1  0
  9 10  1  0
 10 11  1  6
 11 12  1  0
 11 13  1  0
 11 14  1  0
 10 15  1  0
 15 16  1  0
 16 17  1  0
 17 18  2  0
  4 19  2  0
 19 20  1  0
 20 21  2  0
 21 22  1  0
 22 23  2  0
 23 24  1  0
 24 25  2  0
 25  2  1  0
 17  8  1  0
 24 19  1  0
M  END
>  <ref_pdb>  (286) 
A4954a

>  <tags>  (286) 
{'fragmenstein_placed', 'openbind_a71ev2a_c1_fragmenstein'}

>  <distance_score>  (286) 
0.675936

>  <energy_score>  (286) 
-51.517293

>  <inchikey>  (286) 
JXIXYIVPOTVUHE-UHFFFAOYSA-N

>  <alias>  (286) 
Cc1cc([C@@](C)(O)N2C[C@H](C(N)(O)O)CCC2=O)c2ccccc2c1

>  <smiles>  (286) 
C166112-P232

>  <HIPPO Pose ID>  (286) 
109659

>  <ref_mols>  (286) 
A3884b,A5036b

>  <HIPPO Compound ID>  (286) 
166112

$$$$
CS(F)(F)c1ccccc1C(=O)CN1C[C@H]([C@H](N)N=O)CC1=O
     RDKit          3D

 23 24  0  0  0  0  0  0  0  0999 V2000
    9.1174    9.1629   23.2146 C   0  0  0  0  0  0  0  0  0  0  0  0
    9.0088   10.8353   23.6726 S   0  0  0  0  0  0  0  0  0  0  0  0
   10.4454   11.3757   24.0306 F   0  0  0  0  0  0  0  0  0  0  0  0
    8.5534   11.7127   22.4608 F   0  0  0  0  0  0  0  0  0  0  0  0
    7.8249   11.1931   24.8894 C   0  0  0  0  0  0  0  0  0  0  0  0
    7.1725   10.1710   25.5591 C   0  0  0  0  0  0  0  0  0  0  0  0
    6.1497   10.4747   26.4625 C   0  0  0  0  0  0  0  0  0  0  0  0
    5.7598   11.7949   26.6775 C   0  0  0  0  0  0  0  0  0  0  0  0
    6.3701   12.8176   25.9604 C   0  0  0  0  0  0  0  0  0  0  0  0
    7.3986   12.5148   25.0632 C   0  0  0  0  0  0  0  0  0  0  0  0
    7.9216   13.6356   24.2624 C   0  0  0  0  0  0  0  0  0  0  0  0
    7.1632   14.1888   23.4706 O   0  0  0  0  0  0  0  0  0  0  0  0
    9.3439   14.0745   24.5662 C   0  0  0  0  0  0  0  0  0  0  0  0
   10.0786   14.5981   23.4392 N   0  0  0  0  0  0  0  0  0  0  0  0
    9.9775   14.0977   22.0924 C   0  0  0  0  0  0  0  0  0  0  0  0
   10.6674   15.1994   21.3204 C   0  0  2  0  0  0  0  0  0  0  0  0
   10.9433   14.8208   19.8762 C   0  0  2  0  0  0  0  0  0  0  0  0
   12.2521   14.2950   19.5603 N   0  0  0  0  0  0  0  0  0  0  0  0
   10.5876   15.9757   19.0334 N   0  0  0  0  0  0  0  0  0  0  0  0
    9.5806   15.7746   18.3555 O   0  0  0  0  0  0  0  0  0  0  0  0
   11.8430   15.5438   22.2243 C   0  0  0  0  0  0  0  0  0  0  0  0
   11.2578   15.3007   23.5934 C   0  0  0  0  0  0  0  0  0  0  0  0
   11.7378   15.6357   24.6645 O   0  0  0  0  0  0  0  0  0  0  0  0
  1  2  1  0
  2  3  1  0
  2  4  1  0
  2  5  1  0
  5  6  2  0
  6  7  1  0
  7  8  2  0
  8  9  1  0
  9 10  2  0
 10 11  1  0
 11 12  2  0
 11 13  1  0
 13 14  1  0
 14 15  1  0
 16 15  1  1
 16 17  1  0
 17 18  1  1
 17 19  1  0
 19 20  2  0
 16 21  1  0
 21 22  1  0
 22 23  2  0
 10  5  1  0
 22 14  1  0
M  END
>  <ref_pdb>  (287) 
A4954a

>  <tags>  (287) 
{'fragmenstein_placed', 'openbind_a71ev2a_c1_fragmenstein'}

>  <distance_score>  (287) 
0.806499

>  <energy_score>  (287) 
-66.05186

>  <inchikey>  (287) 
XOJJSEPTUFNDJN-UHFFFAOYSA-N

>  <alias>  (287) 
CS(F)(F)c1ccccc1C(=O)CN1C[C@H]([C@H](N)N=O)CC1=O

>  <smiles>  (287) 
C277938-P555

>  <HIPPO Pose ID>  (287) 
110324

>  <ref_mols>  (287) 
A5065a,A0732a

>  <HIPPO Compound ID>  (287) 
277938

$$$$
CSc1ccccc1C(=O)CN1C[C@H](C(N)(O)O)CC1=O
     RDKit          3D

 21 22  0  0  0  0  0  0  0  0999 V2000
    9.1145    8.8776   23.1794 C   0  0  0  0  0  0  0  0  0  0  0  0
    9.3650   10.6334   23.4790 S   0  0  0  0  0  0  0  0  0  0  0  0
    7.9949   11.1084   24.5210 C   0  0  0  0  0  0  0  0  0  0  0  0
    7.3290   10.2247   25.3674 C   0  0  0  0  0  0  0  0  0  0  0  0
    6.3444   10.6776   26.2542 C   0  0  0  0  0  0  0  0  0  0  0  0
    6.0112   12.0293   26.3078 C   0  0  0  0  0  0  0  0  0  0  0  0
    6.6250   12.9236   25.4360 C   0  0  0  0  0  0  0  0  0  0  0  0
    7.5955   12.4515   24.5456 C   0  0  0  0  0  0  0  0  0  0  0  0
    8.0604   13.3393   23.4746 C   0  0  0  0  0  0  0  0  0  0  0  0
    7.5528   13.1849   22.3667 O   0  0  0  0  0  0  0  0  0  0  0  0
    9.1155   14.3707   23.8183 C   0  0  0  0  0  0  0  0  0  0  0  0
    9.9751   14.7381   22.7019 N   0  0  0  0  0  0  0  0  0  0  0  0
    9.5304   14.7734   21.3236 C   0  0  0  0  0  0  0  0  0  0  0  0
   10.5680   15.6087   20.6012 C   0  0  2  0  0  0  0  0  0  0  0  0
   10.6489   15.3238   19.0977 C   0  0  0  0  0  0  0  0  0  0  0  0
   11.3112   14.1451   18.6781 N   0  0  0  0  0  0  0  0  0  0  0  0
   11.2688   16.3168   18.4048 O   0  0  0  0  0  0  0  0  0  0  0  0
    9.3962   15.3969   18.5147 O   0  0  0  0  0  0  0  0  0  0  0  0
   11.8339   15.3728   21.4348 C   0  0  0  0  0  0  0  0  0  0  0  0
   11.2856   15.1500   22.8271 C   0  0  0  0  0  0  0  0  0  0  0  0
   11.8899   15.2762   23.8823 O   0  0  0  0  0  0  0  0  0  0  0  0
  1  2  1  0
  2  3  1  0
  3  4  2  0
  4  5  1  0
  5  6  2  0
  6  7  1  0
  7  8  2  0
  8  9  1  0
  9 10  2  0
  9 11  1  0
 11 12  1  0
 12 13  1  0
 13 14  1  0
 14 15  1  6
 15 16  1  0
 15 17  1  0
 15 18  1  0
 14 19  1  0
 19 20  1  0
 20 21  2  0
  8  3  1  0
 20 12  1  0
M  END
>  <ref_pdb>  (288) 
A4954a

>  <tags>  (288) 
{'fragmenstein_placed', 'openbind_a71ev2a_c1_fragmenstein'}

>  <distance_score>  (288) 
0.772307

>  <energy_score>  (288) 
-35.589642

>  <inchikey>  (288) 
PUPGQZFKQUNUEK-UHFFFAOYSA-N

>  <alias>  (288) 
CSc1ccccc1C(=O)CN1C[C@H](C(N)(O)O)CC1=O

>  <smiles>  (288) 
C277954-P555

>  <HIPPO Pose ID>  (288) 
110336

>  <ref_mols>  (288) 
A2351a,A5065a

>  <HIPPO Compound ID>  (288) 
277954

$$$$
CO[C@@H](C)CC[C@@H]1C[C@H]1CN(C)N
     RDKit          3D

 13 13  0  0  0  0  0  0  0  0999 V2000
   11.8994   14.9185   23.1060 C   0  0  0  0  0  0  0  0  0  0  0  0
   10.7888   15.7425   23.4337 O   0  0  0  0  0  0  0  0  0  0  0  0
    9.7147   15.7341   22.4849 C   0  0  1  0  0  0  0  0  0  0  0  0
   10.1652   15.8210   21.0338 C   0  0  0  0  0  0  0  0  0  0  0  0
    8.8070   14.5378   22.7016 C   0  0  0  0  0  0  0  0  0  0  0  0
    8.2357   14.4782   24.1230 C   0  0  0  0  0  0  0  0  0  0  0  0
    7.7868   13.0819   24.3384 C   0  0  2  0  0  0  0  0  0  0  0  0
    7.6771   12.3815   25.6473 C   0  0  0  0  0  0  0  0  0  0  0  0
    8.8842   12.1274   24.7384 C   0  0  1  0  0  0  0  0  0  0  0  0
    9.1861   11.0363   23.7635 C   0  0  0  0  0  0  0  0  0  0  0  0
    9.2177    9.7087   24.3558 N   0  0  0  0  0  0  0  0  0  0  0  0
    9.6224    8.7053   23.3623 C   0  0  0  0  0  0  0  0  0  0  0  0
    7.9442    9.3441   24.9250 N   0  0  0  0  0  0  0  0  0  0  0  0
  1  2  1  0
  2  3  1  0
  3  4  1  6
  3  5  1  0
  5  6  1  0
  7  6  1  1
  7  8  1  0
  8  9  1  0
  9 10  1  6
 10 11  1  0
 11 12  1  0
 11 13  1  0
  9  7  1  0
M  END
>  <ref_pdb>  (289) 
A5081b

>  <tags>  (289) 
{'fragmenstein_placed', 'openbind_a71ev2a_c1_fragmenstein'}

>  <distance_score>  (289) 
0.954407

>  <energy_score>  (289) 
-21.492744

>  <inchikey>  (289) 
QOPZJBUCVFBGAX-UHFFFAOYSA-N

>  <alias>  (289) 
CO[C@@H](C)CC[C@@H]1C[C@H]1CN(C)N

>  <smiles>  (289) 
C242679-P563

>  <HIPPO Pose ID>  (289) 
111322

>  <ref_mols>  (289) 
A5090a,A3210a

>  <HIPPO Compound ID>  (289) 
242679

$$$$
CSc1ccc(Br)cc1CC(O)(O)N1CC[C@H](C(N)=O)[C@@H](O)CC1
     RDKit          3D

 24 25  0  0  0  0  0  0  0  0999 V2000
    9.3481    8.9836   23.2849 C   0  0  0  0  0  0  0  0  0  0  0  0
    9.2458   10.7720   23.5412 S   0  0  0  0  0  0  0  0  0  0  0  0
    7.9673   11.0049   24.7746 C   0  0  0  0  0  0  0  0  0  0  0  0
    7.3952    9.9332   25.4692 C   0  0  0  0  0  0  0  0  0  0  0  0
    6.4175   10.1407   26.4471 C   0  0  0  0  0  0  0  0  0  0  0  0
    6.0196   11.4298   26.7655 C   0  0  0  0  0  0  0  0  0  0  0  0
    4.7252   11.7081   28.1115 Br  0  0  0  0  0  0  0  0  0  0  0  0
    6.5671   12.5114   26.0887 C   0  0  0  0  0  0  0  0  0  0  0  0
    7.5252   12.3146   25.0714 C   0  0  0  0  0  0  0  0  0  0  0  0
    7.9786   13.5496   24.2958 C   0  0  0  0  0  0  0  0  0  0  0  0
    9.2980   14.2343   24.7683 C   0  0  0  0  0  0  0  0  0  0  0  0
    9.1374   14.5461   26.1364 O   0  0  0  0  0  0  0  0  0  0  0  0
   10.4063   13.3665   24.6955 O   0  0  0  0  0  0  0  0  0  0  0  0
    9.6254   15.4914   24.1191 N   0  0  0  0  0  0  0  0  0  0  0  0
   11.0268   15.8952   24.0734 C   0  0  0  0  0  0  0  0  0  0  0  0
   11.9686   15.1642   23.1122 C   0  0  0  0  0  0  0  0  0  0  0  0
   11.3319   14.6531   21.8281 C   0  0  2  0  0  0  0  0  0  0  0  0
   12.3414   14.2006   20.9411 O   0  0  0  0  0  0  0  0  0  0  0  0
   10.4483   15.6670   21.1090 C   0  0  1  0  0  0  0  0  0  0  0  0
   10.4555   15.6913   19.5478 C   0  0  0  0  0  0  0  0  0  0  0  0
   10.8664   14.4550   18.9377 N   0  0  0  0  0  0  0  0  0  0  0  0
   10.0623   16.7127   19.0552 O   0  0  0  0  0  0  0  0  0  0  0  0
    9.0101   15.5176   21.6229 C   0  0  0  0  0  0  0  0  0  0  0  0
    8.7988   16.0361   23.0479 C   0  0  0  0  0  0  0  0  0  0  0  0
  1  2  1  0
  2  3  1  0
  3  4  2  0
  4  5  1  0
  5  6  2  0
  6  7  1  0
  6  8  1  0
  8  9  2  0
  9 10  1  0
 10 11  1  0
 11 12  1  0
 11 13  1  0
 11 14  1  0
 14 15  1  0
 15 16  1  0
 16 17  1  0
 17 18  1  6
 17 19  1  0
 19 20  1  6
 20 21  1  0
 20 22  2  0
 19 23  1  0
 23 24  1  0
  9  3  1  0
 24 14  1  0
M  END
>  <ref_pdb>  (290) 
A5081b

>  <tags>  (290) 
{'fragmenstein_placed', 'openbind_a71ev2a_c1_fragmenstein'}

>  <distance_score>  (290) 
0.819698

>  <energy_score>  (290) 
-43.223764

>  <inchikey>  (290) 
QFWNWXWQRXYKOP-UHFFFAOYSA-N

>  <alias>  (290) 
CSc1ccc(Br)cc1CC(O)(O)N1CC[C@H](C(N)=O)[C@@H](O)CC1

>  <smiles>  (290) 
C244966-P575

>  <HIPPO Pose ID>  (290) 
112961

>  <ref_mols>  (290) 
A3178a,A3585a,A5203b

>  <HIPPO Compound ID>  (290) 
244966

$$$$
Cc1ccc2c(c1)[C@@](C)(N1C[C@@H](C(=O)NO)CCC1=O)[C@H](O)CC2
     RDKit          3D

 24 26  0  0  0  0  0  0  0  0999 V2000
    9.6377    9.7845   23.2505 C   0  0  0  0  0  0  0  0  0  0  0  0
    8.7839   10.7803   23.9697 C   0  0  0  0  0  0  0  0  0  0  0  0
    7.6329   10.3785   24.6300 C   0  0  0  0  0  0  0  0  0  0  0  0
    6.7544   11.3267   25.1328 C   0  0  0  0  0  0  0  0  0  0  0  0
    7.0097   12.6896   24.9553 C   0  0  0  0  0  0  0  0  0  0  0  0
    8.2506   13.1215   24.4504 C   0  0  0  0  0  0  0  0  0  0  0  0
    9.1327   12.1346   23.9804 C   0  0  0  0  0  0  0  0  0  0  0  0
    8.5194   14.6408   24.3144 C   0  0  1  0  0  0  0  0  0  0  0  0
    8.5805   15.3773   25.6897 C   0  0  0  0  0  0  0  0  0  0  0  0
    9.8064   14.9103   23.5391 N   0  0  0  0  0  0  0  0  0  0  0  0
    9.8191   14.6905   22.0836 C   0  0  0  0  0  0  0  0  0  0  0  0
   10.9987   15.3073   21.3154 C   0  0  1  0  0  0  0  0  0  0  0  0
   10.3498   16.2777   20.3599 C   0  0  0  0  0  0  0  0  0  0  0  0
   10.1059   17.3803   20.6265 O   0  0  0  0  0  0  0  0  0  0  0  0
   10.0295   15.4664   19.1026 N   0  0  0  0  0  0  0  0  0  0  0  0
    9.2924   15.7948   17.9952 O   0  0  0  0  0  0  0  0  0  0  0  0
   12.0276   15.9548   22.2106 C   0  0  0  0  0  0  0  0  0  0  0  0
   12.2692   15.0183   23.3642 C   0  0  0  0  0  0  0  0  0  0  0  0
   11.0343   14.8921   24.2141 C   0  0  0  0  0  0  0  0  0  0  0  0
   11.1807   14.7363   25.4236 O   0  0  0  0  0  0  0  0  0  0  0  0
    7.2258   15.1920   23.5901 C   0  0  2  0  0  0  0  0  0  0  0  0
    7.2576   16.6095   23.4284 O   0  0  0  0  0  0  0  0  0  0  0  0
    5.9066   14.8761   24.3370 C   0  0  0  0  0  0  0  0  0  0  0  0
    5.9385   13.6839   25.2964 C   0  0  0  0  0  0  0  0  0  0  0  0
  1  2  1  0
  2  3  2  0
  3  4  1  0
  4  5  2  0
  5  6  1  0
  6  7  2  0
  6  8  1  0
  8  9  1  1
  8 10  1  0
 10 11  1  0
 11 12  1  0
 12 13  1  6
 13 14  2  0
 13 15  1  0
 15 16  1  0
 12 17  1  0
 17 18  1  0
 18 19  1  0
 19 20  2  0
  8 21  1  0
 21 22  1  1
 21 23  1  0
 23 24  1  0
  7  2  1  0
 19 10  1  0
 24  5  1  0
M  END
>  <ref_pdb>  (291) 
A5081b

>  <tags>  (291) 
{'fragmenstein_placed', 'openbind_a71ev2a_c1_fragmenstein'}

>  <distance_score>  (291) 
0.748778

>  <energy_score>  (291) 
-6.73107

>  <inchikey>  (291) 
PRXPYPJGLWYXFD-UHFFFAOYSA-N

>  <alias>  (291) 
Cc1ccc2c(c1)[C@@](C)(N1C[C@@H](C(=O)NO)CCC1=O)[C@H](O)CC2

>  <smiles>  (291) 
C245300-P576

>  <HIPPO Pose ID>  (291) 
113124

>  <ref_mols>  (291) 
A5210a,A0487a

>  <HIPPO Compound ID>  (291) 
245300

$$$$
CC[C@H]1CCCC[C@@H]1OC(O)(O)N1CC[C@H]2CNC(=O)[C@@H]2C1
     RDKit          3D

 22 24  0  0  0  0  0  0  0  0999 V2000
    9.6339    9.7161   24.6464 C   0  0  0  0  0  0  0  0  0  0  0  0
    9.4669   11.0664   25.3350 C   0  0  0  0  0  0  0  0  0  0  0  0
    7.9793   11.5044   25.4076 C   0  0  1  0  0  0  0  0  0  0  0  0
    7.2383   10.6586   26.4586 C   0  0  0  0  0  0  0  0  0  0  0  0
    6.3490   11.4205   27.4357 C   0  0  0  0  0  0  0  0  0  0  0  0
    5.5074   12.4704   26.7387 C   0  0  0  0  0  0  0  0  0  0  0  0
    6.3305   13.4132   25.8668 C   0  0  0  0  0  0  0  0  0  0  0  0
    7.7984   12.9939   25.7123 C   0  0  2  0  0  0  0  0  0  0  0  0
    8.4974   13.8914   24.8844 O   0  0  0  0  0  0  0  0  0  0  0  0
    8.4390   13.8982   23.4764 C   0  0  0  0  0  0  0  0  0  0  0  0
    7.1765   13.5732   22.9766 O   0  0  0  0  0  0  0  0  0  0  0  0
    9.3034   12.9437   22.9452 O   0  0  0  0  0  0  0  0  0  0  0  0
    8.8271   15.2277   23.0572 N   0  0  0  0  0  0  0  0  0  0  0  0
   10.1509   15.5994   23.6134 C   0  0  0  0  0  0  0  0  0  0  0  0
   11.3797   15.0614   22.8597 C   0  0  0  0  0  0  0  0  0  0  0  0
   11.2428   15.4915   21.4206 C   0  0  1  0  0  0  0  0  0  0  0  0
   12.2065   14.9619   20.3897 C   0  0  0  0  0  0  0  0  0  0  0  0
   11.5127   15.1849   19.1541 N   0  0  0  0  0  0  0  0  0  0  0  0
   10.1775   15.4481   19.4068 C   0  0  0  0  0  0  0  0  0  0  0  0
    9.4160   15.9517   18.6120 O   0  0  0  0  0  0  0  0  0  0  0  0
    9.9287   15.0089   20.8281 C   0  0  2  0  0  0  0  0  0  0  0  0
    8.7518   15.5375   21.6088 C   0  0  0  0  0  0  0  0  0  0  0  0
  1  2  1  0
  3  2  1  1
  3  4  1  0
  4  5  1  0
  5  6  1  0
  6  7  1  0
  7  8  1  0
  8  9  1  6
  9 10  1  0
 10 11  1  0
 10 12  1  0
 10 13  1  0
 13 14  1  0
 14 15  1  0
 16 15  1  1
 16 17  1  0
 17 18  1  0
 18 19  1  0
 19 20  2  0
 19 21  1  0
 21 22  1  1
  8  3  1  0
 22 13  1  0
 21 16  1  0
M  END
>  <ref_pdb>  (292) 
A5213a

>  <tags>  (292) 
{'fragmenstein_placed', 'openbind_a71ev2a_c1_fragmenstein'}

>  <distance_score>  (292) 
0.616556

>  <energy_score>  (292) 
-27.98923

>  <inchikey>  (292) 
DKZDUCVJXRXBBA-UHFFFAOYSA-N

>  <alias>  (292) 
CC[C@H]1CCCC[C@@H]1OC(O)(O)N1CC[C@H]2CNC(=O)[C@@H]2C1

>  <smiles>  (292) 
C195891-P582

>  <HIPPO Pose ID>  (292) 
114219

>  <ref_mols>  (292) 
A4736a,A5219b

>  <HIPPO Compound ID>  (292) 
195891

$$$$
Cc1[nH]c2cc(C#N)cc3c2c1C[C@@](O)(N1C[C@H](C)[C@@](N)(O)CCCC1=O)C3
     RDKit          3D

 28 31  0  0  0  0  0  0  0  0999 V2000
    9.2009    9.0108   23.2970 C   0  0  0  0  0  0  0  0  0  0  0  0
    8.3746    9.8643   24.1880 C   0  0  0  0  0  0  0  0  0  0  0  0
    7.4675    9.3599   25.0873 N   0  0  0  0  0  0  0  0  0  0  0  0
    6.8343   10.3675   25.7771 C   0  0  0  0  0  0  0  0  0  0  0  0
    5.8503   10.3687   26.7588 C   0  0  0  0  0  0  0  0  0  0  0  0
    5.4539   11.6333   27.2424 C   0  0  0  0  0  0  0  0  0  0  0  0
    4.4266   11.6647   28.2417 C   0  0  0  0  0  0  0  0  0  0  0  0
    3.5839   11.6369   29.0397 N   0  0  0  0  0  0  0  0  0  0  0  0
    6.0267   12.8355   26.7654 C   0  0  0  0  0  0  0  0  0  0  0  0
    7.0251   12.8091   25.7822 C   0  0  0  0  0  0  0  0  0  0  0  0
    7.3810   11.5420   25.3133 C   0  0  0  0  0  0  0  0  0  0  0  0
    8.3265   11.2265   24.3383 C   0  0  0  0  0  0  0  0  0  0  0  0
    9.0880   12.2976   23.6871 C   0  0  0  0  0  0  0  0  0  0  0  0
    9.1024   13.6333   24.4900 C   0  0  1  0  0  0  0  0  0  0  0  0
   10.0113   13.3421   25.5520 O   0  0  0  0  0  0  0  0  0  0  0  0
    9.7459   14.7220   23.7134 N   0  0  0  0  0  0  0  0  0  0  0  0
    9.3382   14.9313   22.3337 C   0  0  0  0  0  0  0  0  0  0  0  0
   10.2466   14.2620   21.2901 C   0  0  2  0  0  0  0  0  0  0  0  0
   11.2943   13.2966   21.8723 C   0  0  0  0  0  0  0  0  0  0  0  0
   10.8846   15.2300   20.2864 C   0  0  1  0  0  0  0  0  0  0  0  0
   11.3524   14.5906   19.0726 N   0  0  0  0  0  0  0  0  0  0  0  0
    9.9294   16.1632   19.8591 O   0  0  0  0  0  0  0  0  0  0  0  0
   12.0848   15.8779   20.9367 C   0  0  0  0  0  0  0  0  0  0  0  0
   11.7897   16.6827   22.1713 C   0  0  0  0  0  0  0  0  0  0  0  0
   11.9207   15.9832   23.5044 C   0  0  0  0  0  0  0  0  0  0  0  0
   10.7187   15.5028   24.2997 C   0  0  0  0  0  0  0  0  0  0  0  0
   10.7402   15.6587   25.5293 O   0  0  0  0  0  0  0  0  0  0  0  0
    7.7100   14.0101   25.1394 C   0  0  0  0  0  0  0  0  0  0  0  0
  1  2  1  0
  2  3  1  0
  3  4  1  0
  4  5  2  0
  5  6  1  0
  6  7  1  0
  7  8  3  0
  6  9  2  0
  9 10  1  0
 10 11  2  0
 11 12  1  0
 12 13  1  0
 13 14  1  0
 14 15  1  1
 14 16  1  0
 16 17  1  0
 17 18  1  0
 18 19  1  1
 18 20  1  0
 20 21  1  6
 20 22  1  0
 20 23  1  0
 23 24  1  0
 24 25  1  0
 25 26  1  0
 26 27  2  0
 14 28  1  0
 12  2  2  0
 26 16  1  0
 11  4  1  0
 28 10  1  0
M  END
>  <ref_pdb>  (293) 
A5213a

>  <tags>  (293) 
{'fragmenstein_placed', 'openbind_a71ev2a_c1_fragmenstein'}

>  <distance_score>  (293) 
0.953507

>  <energy_score>  (293) 
-54.825586

>  <inchikey>  (293) 
AGRJYFIWFUELBQ-UHFFFAOYSA-N

>  <alias>  (293) 
Cc1[nH]c2cc(C#N)cc3c2c1C[C@@](O)(N1C[C@H](C)[C@@](N)(O)CCCC1=O)C3

>  <smiles>  (293) 
C196558-P584

>  <HIPPO Pose ID>  (293) 
114445

>  <ref_mols>  (293) 
A5222a,A3975a

>  <HIPPO Compound ID>  (293) 
196558

$$$$
Cc1[nH]c2cc(C#N)cc3c2c1C[C@](O)(N1C[C@@H](C(N)(O)O)CCC1=O)C3
     RDKit          3D

 27 30  0  0  0  0  0  0  0  0999 V2000
    9.4878    8.9214   23.1052 C   0  0  0  0  0  0  0  0  0  0  0  0
    8.6725    9.7902   23.9882 C   0  0  0  0  0  0  0  0  0  0  0  0
    7.7181    9.2785   24.8336 N   0  0  0  0  0  0  0  0  0  0  0  0
    7.0817   10.2763   25.5334 C   0  0  0  0  0  0  0  0  0  0  0  0
    6.0601   10.2712   26.4827 C   0  0  0  0  0  0  0  0  0  0  0  0
    5.6651   11.5250   26.9951 C   0  0  0  0  0  0  0  0  0  0  0  0
    4.6271   11.5504   27.9875 C   0  0  0  0  0  0  0  0  0  0  0  0
    3.7815   11.5272   28.7834 N   0  0  0  0  0  0  0  0  0  0  0  0
    6.2580   12.7265   26.5505 C   0  0  0  0  0  0  0  0  0  0  0  0
    7.2662   12.7079   25.5736 C   0  0  0  0  0  0  0  0  0  0  0  0
    7.6660   11.4508   25.1126 C   0  0  0  0  0  0  0  0  0  0  0  0
    8.6638   11.1486   24.1718 C   0  0  0  0  0  0  0  0  0  0  0  0
    9.4800   12.2254   23.5821 C   0  0  0  0  0  0  0  0  0  0  0  0
    8.7212   13.5954   23.6095 C   0  0  2  0  0  0  0  0  0  0  0  0
    7.6682   13.5221   22.6130 O   0  0  0  0  0  0  0  0  0  0  0  0
    9.6968   14.6146   23.1563 N   0  0  0  0  0  0  0  0  0  0  0  0
    9.7898   14.8932   21.6975 C   0  0  0  0  0  0  0  0  0  0  0  0
   11.2319   15.0009   21.2228 C   0  0  1  0  0  0  0  0  0  0  0  0
   11.4330   15.2946   19.7386 C   0  0  0  0  0  0  0  0  0  0  0  0
   11.1431   14.3239   18.7656 N   0  0  0  0  0  0  0  0  0  0  0  0
   10.8072   16.4660   19.3400 O   0  0  0  0  0  0  0  0  0  0  0  0
   12.7978   15.3976   19.5867 O   0  0  0  0  0  0  0  0  0  0  0  0
   11.8607   16.1188   22.0582 C   0  0  0  0  0  0  0  0  0  0  0  0
   11.9446   15.6703   23.4889 C   0  0  0  0  0  0  0  0  0  0  0  0
   10.7398   14.9377   24.0202 C   0  0  0  0  0  0  0  0  0  0  0  0
   10.7797   14.5905   25.2044 O   0  0  0  0  0  0  0  0  0  0  0  0
    7.9807   13.9215   24.9967 C   0  0  0  0  0  0  0  0  0  0  0  0
  1  2  1  0
  2  3  1  0
  3  4  1  0
  4  5  2  0
  5  6  1  0
  6  7  1  0
  7  8  3  0
  6  9  2  0
  9 10  1  0
 10 11  2  0
 11 12  1  0
 12 13  1  0
 13 14  1  0
 14 15  1  6
 14 16  1  0
 16 17  1  0
 17 18  1  0
 18 19  1  6
 19 20  1  0
 19 21  1  0
 19 22  1  0
 18 23  1  0
 23 24  1  0
 24 25  1  0
 25 26  2  0
 14 27  1  0
 12  2  2  0
 25 16  1  0
 11  4  1  0
 27 10  1  0
M  END
>  <ref_pdb>  (294) 
A5213a

>  <tags>  (294) 
{'fragmenstein_placed', 'openbind_a71ev2a_c1_fragmenstein'}

>  <distance_score>  (294) 
0.577176

>  <energy_score>  (294) 
-49.722211

>  <inchikey>  (294) 
RSGIPRSFTBBUPQ-UHFFFAOYSA-N

>  <alias>  (294) 
Cc1[nH]c2cc(C#N)cc3c2c1C[C@](O)(N1C[C@@H](C(N)(O)O)CCC1=O)C3

>  <smiles>  (294) 
C196587-P584

>  <HIPPO Pose ID>  (294) 
114471

>  <ref_mols>  (294) 
A5222a,A4372a

>  <HIPPO Compound ID>  (294) 
196587

$$$$
CSc1ccc(C)c2c1N([C@](C)(O)N1CCC[C@@H](C(N)=O)C1)CCCO2
     RDKit          3D

 26 28  0  0  0  0  0  0  0  0999 V2000
    9.2405    9.2954   23.7356 C   0  0  0  0  0  0  0  0  0  0  0  0
    9.3439   10.9270   24.5314 S   0  0  0  0  0  0  0  0  0  0  0  0
    7.6677   11.2126   25.1984 C   0  0  0  0  0  0  0  0  0  0  0  0
    6.9837   10.0696   25.6517 C   0  0  0  0  0  0  0  0  0  0  0  0
    5.8809   10.1670   26.4872 C   0  0  0  0  0  0  0  0  0  0  0  0
    5.4544   11.4157   26.9172 C   0  0  0  0  0  0  0  0  0  0  0  0
    4.3429   11.5145   27.9270 C   0  0  0  0  0  0  0  0  0  0  0  0
    6.0820   12.5788   26.4138 C   0  0  0  0  0  0  0  0  0  0  0  0
    7.1751   12.5311   25.4884 C   0  0  0  0  0  0  0  0  0  0  0  0
    7.7918   13.7052   24.9965 N   0  0  0  0  0  0  0  0  0  0  0  0
    8.0181   14.0178   23.5528 C   0  0  2  0  0  0  0  0  0  0  0  0
    6.7771   14.7319   22.9726 C   0  0  0  0  0  0  0  0  0  0  0  0
    8.0315   12.8112   22.8132 O   0  0  0  0  0  0  0  0  0  0  0  0
    9.2265   14.7978   23.1984 N   0  0  0  0  0  0  0  0  0  0  0  0
   10.4441   14.4032   23.8941 C   0  0  0  0  0  0  0  0  0  0  0  0
   11.3635   13.5433   23.0573 C   0  0  0  0  0  0  0  0  0  0  0  0
   11.8428   14.2786   21.8252 C   0  0  0  0  0  0  0  0  0  0  0  0
   10.8494   15.2901   21.2421 C   0  0  1  0  0  0  0  0  0  0  0  0
   10.7922   15.3846   19.6743 C   0  0  0  0  0  0  0  0  0  0  0  0
   12.0556   15.0897   19.0326 N   0  0  0  0  0  0  0  0  0  0  0  0
    9.7375   15.7162   19.2062 O   0  0  0  0  0  0  0  0  0  0  0  0
    9.4069   15.0095   21.7465 C   0  0  0  0  0  0  0  0  0  0  0  0
    7.9009   14.8206   25.9486 C   0  0  0  0  0  0  0  0  0  0  0  0
    6.6423   15.6609   26.0853 C   0  0  0  0  0  0  0  0  0  0  0  0
    5.3910   14.8154   26.1214 C   0  0  0  0  0  0  0  0  0  0  0  0
    5.5862   13.7245   27.0061 O   0  0  0  0  0  0  0  0  0  0  0  0
  1  2  1  0
  2  3  1  0
  3  4  2  0
  4  5  1  0
  5  6  2  0
  6  7  1  0
  6  8  1  0
  8  9  2  0
  9 10  1  0
 10 11  1  0
 11 12  1  6
 11 13  1  0
 11 14  1  0
 14 15  1  0
 15 16  1  0
 16 17  1  0
 17 18  1  0
 18 19  1  6
 19 20  1  0
 19 21  2  0
 18 22  1  0
 10 23  1  0
 23 24  1  0
 24 25  1  0
 25 26  1  0
  9  3  1  0
 22 14  1  0
 26  8  1  0
M  END
>  <ref_pdb>  (295) 
A5213a

>  <tags>  (295) 
{'fragmenstein_placed', 'openbind_a71ev2a_c1_fragmenstein'}

>  <distance_score>  (295) 
0.856879

>  <energy_score>  (295) 
-12.620145

>  <inchikey>  (295) 
YVJXSLHMEKVBFH-UHFFFAOYSA-N

>  <alias>  (295) 
CSc1ccc(C)c2c1N([C@](C)(O)N1CCC[C@@H](C(N)=O)C1)CCCO2

>  <smiles>  (295) 
C197752-P588

>  <HIPPO Pose ID>  (295) 
115222

>  <ref_mols>  (295) 
A5249a,A4303b

>  <HIPPO Compound ID>  (295) 
197752

$$$$
CC(C)Sc1cccc2c1[C@]1(CNN2C)N[C@@H]2C[C@@H]3[C@@H](N)N(O)CN3OC[C@H]2CNC1=O
     RDKit          3D

 32 36  0  0  0  0  0  0  0  0999 V2000
    5.4896   14.0778   29.1211 C   0  0  0  0  0  0  0  0  0  0  0  0
    5.6761   14.7863   27.7860 C   0  0  0  0  0  0  0  0  0  0  0  0
    4.4863   14.7359   26.8471 C   0  0  0  0  0  0  0  0  0  0  0  0
    7.2713   14.4074   26.9883 S   0  0  0  0  0  0  0  0  0  0  0  0
    7.2924   12.7687   26.2677 C   0  0  0  0  0  0  0  0  0  0  0  0
    6.3421   11.8072   26.6347 C   0  0  0  0  0  0  0  0  0  0  0  0
    6.4386   10.4865   26.2179 C   0  0  0  0  0  0  0  0  0  0  0  0
    7.4733   10.1083   25.3792 C   0  0  0  0  0  0  0  0  0  0  0  0
    8.4195   11.0332   24.9131 C   0  0  0  0  0  0  0  0  0  0  0  0
    8.3564   12.3896   25.3887 C   0  0  0  0  0  0  0  0  0  0  0  0
    9.5023   13.3886   24.9616 C   0  0  2  0  0  0  0  0  0  0  0  0
   10.2113   12.7963   23.7026 C   0  0  0  0  0  0  0  0  0  0  0  0
   10.5666   11.3977   23.9180 N   0  0  0  0  0  0  0  0  0  0  0  0
    9.4061   10.6346   23.9895 N   0  0  0  0  0  0  0  0  0  0  0  0
    9.5034    9.2637   23.4685 C   0  0  0  0  0  0  0  0  0  0  0  0
   10.5072   13.4686   26.0674 N   0  0  0  0  0  0  0  0  0  0  0  0
   11.4620   14.5939   26.1197 C   0  0  2  0  0  0  0  0  0  0  0  0
   12.8587   14.0678   26.5689 C   0  0  0  0  0  0  0  0  0  0  0  0
   13.4583   14.5302   27.8979 C   0  0  2  0  0  0  0  0  0  0  0  0
   14.4163   13.4986   28.5159 C   0  0  1  0  0  0  0  0  0  0  0  0
   15.7290   13.4544   27.9103 N   0  0  0  0  0  0  0  0  0  0  0  0
   14.5592   14.0506   29.8568 N   0  0  0  0  0  0  0  0  0  0  0  0
   14.9552   12.9584   30.7349 O   0  0  0  0  0  0  0  0  0  0  0  0
   13.1736   14.4215   30.2077 C   0  0  0  0  0  0  0  0  0  0  0  0
   12.4528   14.7235   28.9521 N   0  0  0  0  0  0  0  0  0  0  0  0
   12.1665   16.1522   28.9888 O   0  0  0  0  0  0  0  0  0  0  0  0
   11.5797   16.6360   27.7760 C   0  0  0  0  0  0  0  0  0  0  0  0
   10.7264   15.6486   26.9654 C   0  0  1  0  0  0  0  0  0  0  0  0
    9.8057   16.4811   26.0660 C   0  0  0  0  0  0  0  0  0  0  0  0
    9.3602   15.9625   24.7886 N   0  0  0  0  0  0  0  0  0  0  0  0
    8.9497   14.7208   24.4169 C   0  0  0  0  0  0  0  0  0  0  0  0
    8.1447   14.7017   23.4784 O   0  0  0  0  0  0  0  0  0  0  0  0
  1  2  1  0
  2  3  1  0
  2  4  1  0
  4  5  1  0
  5  6  2  0
  6  7  1  0
  7  8  2  0
  8  9  1  0
  9 10  2  0
 10 11  1  0
 11 12  1  6
 12 13  1  0
 13 14  1  0
 14 15  1  0
 11 16  1  0
 16 17  1  0
 17 18  1  1
 19 18  1  6
 19 20  1  0
 20 21  1  6
 20 22  1  0
 22 23  1  0
 22 24  1  0
 24 25  1  0
 25 26  1  0
 26 27  1  0
 28 27  1  6
 28 29  1  0
 29 30  1  0
 30 31  1  0
 31 32  2  0
 10  5  1  0
 31 11  1  0
 14  9  1  0
 28 17  1  0
 25 19  1  0
M  END
>  <ref_pdb>  (296) 
A5288a

>  <tags>  (296) 
{'fragmenstein_placed', 'openbind_a71ev2a_c1_fragmenstein'}

>  <distance_score>  (296) 
0.996102

>  <energy_score>  (296) 
-92.496366

>  <inchikey>  (296) 
WJNYPPPXBFUKQL-UHFFFAOYSA-N

>  <alias>  (296) 
CC(C)Sc1cccc2c1[C@]1(CNN2C)N[C@@H]2C[C@@H]3[C@@H](N)N(O)CN3OC[C@H]2CNC1=O

>  <smiles>  (296) 
C230260-P600

>  <HIPPO Pose ID>  (296) 
116684

>  <ref_mols>  (296) 
A5289b,A0446a

>  <HIPPO Compound ID>  (296) 
197218

$$$$
CSc1ccc(Br)cc1CC(=O)[C@]1(C)C[C@H](C(=O)NN)CC[C@H]1C
     RDKit          3D

 24 25  0  0  0  0  0  0  0  0999 V2000
    9.0982    8.9451   23.3409 C   0  0  0  0  0  0  0  0  0  0  0  0
    9.0864   10.6979   23.8099 S   0  0  0  0  0  0  0  0  0  0  0  0
    7.6138   10.9164   24.8110 C   0  0  0  0  0  0  0  0  0  0  0  0
    6.9128    9.8170   25.3211 C   0  0  0  0  0  0  0  0  0  0  0  0
    5.7387    9.9664   26.0672 C   0  0  0  0  0  0  0  0  0  0  0  0
    5.2588   11.2335   26.3414 C   0  0  0  0  0  0  0  0  0  0  0  0
    3.6954   11.4575   27.3742 Br  0  0  0  0  0  0  0  0  0  0  0  0
    5.9491   12.3457   25.8813 C   0  0  0  0  0  0  0  0  0  0  0  0
    7.1326   12.2080   25.1206 C   0  0  0  0  0  0  0  0  0  0  0  0
    7.8687   13.4927   24.8098 C   0  0  0  0  0  0  0  0  0  0  0  0
    8.2660   13.7675   23.3686 C   0  0  0  0  0  0  0  0  0  0  0  0
    7.6558   13.2437   22.4299 O   0  0  0  0  0  0  0  0  0  0  0  0
    9.3670   14.8529   23.1369 C   0  0  2  0  0  0  0  0  0  0  0  0
    8.9658   16.0787   23.9873 C   0  0  0  0  0  0  0  0  0  0  0  0
    9.3132   15.2474   21.6400 C   0  0  0  0  0  0  0  0  0  0  0  0
   10.3640   16.2839   21.2082 C   0  0  2  0  0  0  0  0  0  0  0  0
   10.4879   16.3013   19.6870 C   0  0  0  0  0  0  0  0  0  0  0  0
   10.2284   17.2455   19.0525 O   0  0  0  0  0  0  0  0  0  0  0  0
   11.0488   14.9175   19.2511 N   0  0  0  0  0  0  0  0  0  0  0  0
   11.4650   14.4798   18.0372 N   0  0  0  0  0  0  0  0  0  0  0  0
   11.7681   16.1404   21.8088 C   0  0  0  0  0  0  0  0  0  0  0  0
   11.8117   15.5535   23.2019 C   0  0  0  0  0  0  0  0  0  0  0  0
   10.8351   14.3829   23.3946 C   0  0  1  0  0  0  0  0  0  0  0  0
   11.1607   13.7774   24.7519 C   0  0  0  0  0  0  0  0  0  0  0  0
  1  2  1  0
  2  3  1  0
  3  4  2  0
  4  5  1  0
  5  6  2  0
  6  7  1  0
  6  8  1  0
  8  9  2  0
  9 10  1  0
 10 11  1  0
 11 12  2  0
 11 13  1  0
 13 14  1  1
 13 15  1  0
 15 16  1  0
 16 17  1  6
 17 18  2  0
 17 19  1  0
 19 20  1  0
 16 21  1  0
 21 22  1  0
 22 23  1  0
 23 24  1  1
  9  3  1  0
 23 13  1  0
M  END
>  <ref_pdb>  (297) 
A5288a

>  <tags>  (297) 
{'fragmenstein_placed', 'openbind_a71ev2a_c1_fragmenstein'}

>  <distance_score>  (297) 
0.791485

>  <energy_score>  (297) 
-30.319066

>  <inchikey>  (297) 
AZEOFDDNIYRHDU-UHFFFAOYSA-N

>  <alias>  (297) 
CSc1ccc(Br)cc1CC(=O)[C@]1(C)C[C@H](C(=O)NN)CC[C@H]1C

>  <smiles>  (297) 
C231005-P602

>  <HIPPO Pose ID>  (297) 
117144

>  <ref_mols>  (297) 
A5339a,A3178a

>  <HIPPO Compound ID>  (297) 
230890

$$$$
C=Cc1cc2c(cc1CS(=O)(=O)N1CCC[C@H](C(N)=O)C1)CCCCC2
     RDKit          3D

 26 28  0  0  0  0  0  0  0  0999 V2000
    8.6363    9.0861   24.1375 C   0  0  0  0  0  0  0  0  0  0  0  0
    8.3060   10.3716   24.2876 C   0  0  0  0  0  0  0  0  0  0  0  0
    7.5097   10.9743   25.3761 C   0  0  0  0  0  0  0  0  0  0  0  0
    6.5686   10.2295   26.1096 C   0  0  0  0  0  0  0  0  0  0  0  0
    5.7787   10.7958   27.1409 C   0  0  0  0  0  0  0  0  0  0  0  0
    5.8843   12.1659   27.4061 C   0  0  0  0  0  0  0  0  0  0  0  0
    6.7976   12.9175   26.6486 C   0  0  0  0  0  0  0  0  0  0  0  0
    7.6314   12.3404   25.6710 C   0  0  0  0  0  0  0  0  0  0  0  0
    8.6566   13.2279   25.0186 C   0  0  0  0  0  0  0  0  0  0  0  0
    7.9447   14.0969   23.6204 S   0  0  0  0  0  0  0  0  0  0  0  0
    7.0900   15.1612   24.0986 O   0  0  0  0  0  0  0  0  0  0  0  0
    7.5082   13.1419   22.6205 O   0  0  0  0  0  0  0  0  0  0  0  0
    9.3789   14.8200   23.0275 N   0  0  0  0  0  0  0  0  0  0  0  0
    9.8684   15.9881   23.8038 C   0  0  0  0  0  0  0  0  0  0  0  0
   11.3235   16.2445   23.4325 C   0  0  0  0  0  0  0  0  0  0  0  0
   11.4676   16.4896   21.9324 C   0  0  0  0  0  0  0  0  0  0  0  0
   10.8506   15.3263   21.1469 C   0  0  2  0  0  0  0  0  0  0  0  0
   10.8955   15.5705   19.6350 C   0  0  0  0  0  0  0  0  0  0  0  0
   11.0399   14.3247   18.9253 N   0  0  0  0  0  0  0  0  0  0  0  0
   10.8240   16.6937   19.2301 O   0  0  0  0  0  0  0  0  0  0  0  0
    9.3940   15.1161   21.5658 C   0  0  0  0  0  0  0  0  0  0  0  0
    5.0724   12.9359   28.4261 C   0  0  0  0  0  0  0  0  0  0  0  0
    4.3626   12.1999   29.5669 C   0  0  0  0  0  0  0  0  0  0  0  0
    5.1992   11.0850   30.1794 C   0  0  0  0  0  0  0  0  0  0  0  0
    5.1335    9.7755   29.3922 C   0  0  0  0  0  0  0  0  0  0  0  0
    4.8235    9.9131   27.9019 C   0  0  0  0  0  0  0  0  0  0  0  0
  1  2  2  0
  2  3  1  0
  3  4  2  0
  4  5  1  0
  5  6  2  0
  6  7  1  0
  7  8  2  0
  8  9  1  0
  9 10  1  0
 10 11  2  0
 10 12  2  0
 10 13  1  0
 13 14  1  0
 14 15  1  0
 15 16  1  0
 16 17  1  0
 17 18  1  6
 18 19  1  0
 18 20  2  0
 17 21  1  0
  6 22  1  0
 22 23  1  0
 23 24  1  0
 24 25  1  0
 25 26  1  0
  8  3  1  0
 21 13  1  0
 26  5  1  0
M  END
>  <ref_pdb>  (298) 
A5288a

>  <tags>  (298) 
{'fragmenstein_placed', 'openbind_a71ev2a_c1_fragmenstein'}

>  <distance_score>  (298) 
0.795478

>  <energy_score>  (298) 
-9.511672

>  <inchikey>  (298) 
QUQJXZGKMPTGAK-UHFFFAOYSA-N

>  <alias>  (298) 
C=Cc1cc2c(cc1CS(=O)(=O)N1CCC[C@H](C(N)=O)C1)CCCCC2

>  <smiles>  (298) 
C231412-P604

>  <HIPPO Pose ID>  (298) 
117462

>  <ref_mols>  (298) 
A4415a,A5359a

>  <HIPPO Compound ID>  (298) 
231412

$$$$
CSCCC[C@H](C)S(C)(=O)=O
     RDKit          3D

 11 10  0  0  0  0  0  0  0  0999 V2000
    5.3895   14.2075   25.6218 C   0  0  0  0  0  0  0  0  0  0  0  0
    6.6497   13.1331   26.3417 S   0  0  0  0  0  0  0  0  0  0  0  0
    7.2368   12.2539   24.8614 C   0  0  0  0  0  0  0  0  0  0  0  0
    7.7439   13.1476   23.7345 C   0  0  0  0  0  0  0  0  0  0  0  0
    9.1471   13.6646   24.0135 C   0  0  0  0  0  0  0  0  0  0  0  0
    9.6550   14.7093   23.0104 C   0  0  2  0  0  0  0  0  0  0  0  0
    9.3941   14.3875   21.5530 C   0  0  0  0  0  0  0  0  0  0  0  0
   11.3985   14.9611   23.3467 S   0  0  0  0  0  0  0  0  0  0  0  0
   11.9837   15.9801   22.0093 C   0  0  0  0  0  0  0  0  0  0  0  0
   11.4341   15.6933   24.6012 O   0  0  0  0  0  0  0  0  0  0  0  0
   12.1025   13.6986   23.2632 O   0  0  0  0  0  0  0  0  0  0  0  0
  1  2  1  0
  2  3  1  0
  3  4  1  0
  4  5  1  0
  5  6  1  0
  6  7  1  6
  6  8  1  0
  8  9  1  0
  8 10  2  0
  8 11  2  0
M  END
>  <ref_pdb>  (299) 
A5424b

>  <tags>  (299) 
{'fragmenstein_placed', 'openbind_a71ev2a_c1_fragmenstein'}

>  <distance_score>  (299) 
0.979302

>  <energy_score>  (299) 
-38.529097

>  <inchikey>  (299) 
CPWFSKJMEDRRBR-UHFFFAOYSA-N

>  <alias>  (299) 
CSCCC[C@H](C)S(C)(=O)=O

>  <smiles>  (299) 
C255845-P619

>  <HIPPO Pose ID>  (299) 
119597

>  <ref_mols>  (299) 
A5427a,A4928a

>  <HIPPO Compound ID>  (299) 
255845

$$$$
CCCCCCCCCC(CC)CC
     RDKit          3D

 14 13  0  0  0  0  0  0  0  0999 V2000
   12.3926   14.8088   25.2722 C   0  0  0  0  0  0  0  0  0  0  0  0
   11.6658   15.5473   24.1712 C   0  0  0  0  0  0  0  0  0  0  0  0
   12.3545   15.3517   22.8336 C   0  0  0  0  0  0  0  0  0  0  0  0
   11.5100   15.8224   21.6572 C   0  0  0  0  0  0  0  0  0  0  0  0
   10.4837   14.7751   21.2133 C   0  0  0  0  0  0  0  0  0  0  0  0
    9.0457   15.2788   21.2342 C   0  0  0  0  0  0  0  0  0  0  0  0
    8.3290   15.2439   22.5819 C   0  0  0  0  0  0  0  0  0  0  0  0
    7.9153   13.8446   23.0665 C   0  0  0  0  0  0  0  0  0  0  0  0
    8.7989   13.2934   24.1812 C   0  0  0  0  0  0  0  0  0  0  0  0
    8.1773   12.1758   25.0312 C   0  0  0  0  0  0  0  0  0  0  0  0
    7.9205   10.8498   24.3276 C   0  0  0  0  0  0  0  0  0  0  0  0
    9.0788   10.2593   23.5446 C   0  0  0  0  0  0  0  0  0  0  0  0
    6.8974   12.6058   25.7902 C   0  0  0  0  0  0  0  0  0  0  0  0
    6.9357   13.9926   26.4208 C   0  0  0  0  0  0  0  0  0  0  0  0
  1  2  1  0
  2  3  1  0
  3  4  1  0
  4  5  1  0
  5  6  1  0
  6  7  1  0
  7  8  1  0
  8  9  1  0
  9 10  1  0
 10 11  1  0
 11 12  1  0
 10 13  1  0
 13 14  1  0
M  END
>  <ref_pdb>  (300) 
A5424b

>  <tags>  (300) 
{'fragmenstein_placed', 'openbind_a71ev2a_c1_fragmenstein'}

>  <distance_score>  (300) 
0.936966

>  <energy_score>  (300) 
-34.382495

>  <inchikey>  (300) 
RPDFRSKJKOQCIT-UHFFFAOYSA-N

>  <alias>  (300) 
CCCCCCCCCC(CC)CC

>  <smiles>  (300) 
C256490-P622

>  <HIPPO Pose ID>  (300) 
119965

>  <ref_mols>  (300) 
A3510a,A5460a

>  <HIPPO Compound ID>  (300) 
256490

$$$$
Cc1cccc2ccccc12
     RDKit          3D

 11 12  0  0  0  0  0  0  0  0999 V2000
    5.8615   12.3958   26.5863 C   0  0  0  0  0  0  0  0  0  0  0  0
    6.9365   12.9370   25.6864 C   0  0  0  0  0  0  0  0  0  0  0  0
    7.1163   14.3274   25.6077 C   0  0  0  0  0  0  0  0  0  0  0  0
    8.0909   14.8730   24.7780 C   0  0  0  0  0  0  0  0  0  0  0  0
    8.9015   14.0364   24.0170 C   0  0  0  0  0  0  0  0  0  0  0  0
    8.7472   12.6450   24.0768 C   0  0  0  0  0  0  0  0  0  0  0  0
    9.5628   11.8130   23.2998 C   0  0  0  0  0  0  0  0  0  0  0  0
    9.4134   10.4284   23.3384 C   0  0  0  0  0  0  0  0  0  0  0  0
    8.4588    9.8581   24.1630 C   0  0  0  0  0  0  0  0  0  0  0  0
    7.6385   10.6703   24.9431 C   0  0  0  0  0  0  0  0  0  0  0  0
    7.7581   12.0758   24.9169 C   0  0  0  0  0  0  0  0  0  0  0  0
  1  2  1  0
  2  3  2  0
  3  4  1  0
  4  5  2  0
  5  6  1  0
  6  7  2  0
  7  8  1  0
  8  9  2  0
  9 10  1  0
 10 11  2  0
 11  2  1  0
 11  6  1  0
M  END
>  <ref_pdb>  (301) 
A5424b

>  <tags>  (301) 
{'fragmenstein_placed', 'openbind_a71ev2a_c1_fragmenstein'}

>  <distance_score>  (301) 
0.658235

>  <energy_score>  (301) 
-8.250726

>  <inchikey>  (301) 
QPUYECUOLPXSFR-UHFFFAOYSA-N

>  <alias>  (301) 
Cc1cccc2ccccc12

>  <smiles>  (301) 
C256517-P622

>  <HIPPO Pose ID>  (301) 
119976

>  <ref_mols>  (301) 
A3956a,A5460a

>  <HIPPO Compound ID>  (301) 
256517

$$$$
C[C@@H]1C[C@H]2CCC[C@H]3CC[C@H](N4C[C@@H](C(=O)NO)CCC4=O)[C@@H](C1)[C@@H]32
     RDKit          3D

 25 28  0  0  0  0  0  0  0  0999 V2000
    9.5172    9.3518   22.8012 C   0  0  0  0  0  0  0  0  0  0  0  0
    9.1603   10.3597   23.8890 C   0  0  2  0  0  0  0  0  0  0  0  0
    7.9320   10.0056   24.6989 C   0  0  0  0  0  0  0  0  0  0  0  0
    6.9325   11.0869   25.0207 C   0  0  1  0  0  0  0  0  0  0  0  0
    6.0691   10.6639   26.2201 C   0  0  0  0  0  0  0  0  0  0  0  0
    5.4952   11.7981   27.0512 C   0  0  0  0  0  0  0  0  0  0  0  0
    5.2044   13.0476   26.2500 C   0  0  0  0  0  0  0  0  0  0  0  0
    6.3805   13.5045   25.3769 C   0  0  1  0  0  0  0  0  0  0  0  0
    6.9847   14.8275   25.8570 C   0  0  0  0  0  0  0  0  0  0  0  0
    8.0574   15.3125   24.8841 C   0  0  0  0  0  0  0  0  0  0  0  0
    9.0923   14.2191   24.5746 C   0  0  2  0  0  0  0  0  0  0  0  0
   10.1410   14.6988   23.6920 N   0  0  0  0  0  0  0  0  0  0  0  0
    9.7674   15.1235   22.3485 C   0  0  0  0  0  0  0  0  0  0  0  0
   10.9407   14.9749   21.4090 C   0  0  1  0  0  0  0  0  0  0  0  0
   10.5136   15.3221   20.0071 C   0  0  0  0  0  0  0  0  0  0  0  0
    9.4883   15.7933   19.7434 O   0  0  0  0  0  0  0  0  0  0  0  0
   11.6637   14.8898   19.1058 N   0  0  0  0  0  0  0  0  0  0  0  0
   11.7601   14.8575   17.7440 O   0  0  0  0  0  0  0  0  0  0  0  0
   12.0628   15.8596   21.9235 C   0  0  0  0  0  0  0  0  0  0  0  0
   12.4837   15.3233   23.2724 C   0  0  0  0  0  0  0  0  0  0  0  0
   11.3627   15.0571   24.2456 C   0  0  0  0  0  0  0  0  0  0  0  0
   11.6050   15.0094   25.4522 O   0  0  0  0  0  0  0  0  0  0  0  0
    8.4357   12.8934   24.0913 C   0  0  1  0  0  0  0  0  0  0  0  0
    9.4631   11.8403   23.6246 C   0  0  0  0  0  0  0  0  0  0  0  0
    7.5083   12.4547   25.2262 C   0  0  2  0  0  0  0  0  0  0  0  0
  2  1  1  6
  2  3  1  0
  4  3  1  1
  4  5  1  0
  5  6  1  0
  6  7  1  0
  8  7  1  1
  8  9  1  0
  9 10  1  0
 10 11  1  0
 11 12  1  6
 12 13  1  0
 13 14  1  0
 14 15  1  6
 15 16  2  0
 15 17  1  0
 17 18  1  0
 14 19  1  0
 19 20  1  0
 20 21  1  0
 21 22  2  0
 11 23  1  0
 23 24  1  1
 23 25  1  0
 24  2  1  0
 25  4  1  6
 25  8  1  0
 21 12  1  0
M  END
>  <ref_pdb>  (302) 
A5424b

>  <tags>  (302) 
{'fragmenstein_placed', 'openbind_a71ev2a_c1_fragmenstein'}

>  <distance_score>  (302) 
0.951619

>  <energy_score>  (302) 
-17.614513

>  <inchikey>  (302) 
JBOZGUXJXYOBFI-UHFFFAOYSA-N

>  <alias>  (302) 
C[C@@H]1C[C@H]2CCC[C@H]3CC[C@H](N4C[C@@H](C(=O)NO)CCC4=O)[C@@H](C1)[C@@H]32

>  <smiles>  (302) 
C256535-P622

>  <HIPPO Pose ID>  (302) 
119993

>  <ref_mols>  (302) 
A5460a,A4303a

>  <HIPPO Compound ID>  (302) 
256535

$$$$
C=Cc1ccc2c(c1CCC)CCC2
     RDKit          3D

 14 15  0  0  0  0  0  0  0  0999 V2000
    9.3467    9.3963   23.3262 C   0  0  0  0  0  0  0  0  0  0  0  0
    9.0753   10.6947   23.5158 C   0  0  0  0  0  0  0  0  0  0  0  0
    8.0672   11.2780   24.4299 C   0  0  0  0  0  0  0  0  0  0  0  0
    7.2972   10.4264   25.2530 C   0  0  0  0  0  0  0  0  0  0  0  0
    6.3555   10.9065   26.1625 C   0  0  0  0  0  0  0  0  0  0  0  0
    6.1765   12.2675   26.2448 C   0  0  0  0  0  0  0  0  0  0  0  0
    6.9001   13.1446   25.4247 C   0  0  0  0  0  0  0  0  0  0  0  0
    7.8446   12.6777   24.4998 C   0  0  0  0  0  0  0  0  0  0  0  0
    8.5566   13.6582   23.5919 C   0  0  0  0  0  0  0  0  0  0  0  0
    9.9983   13.9642   24.0028 C   0  0  0  0  0  0  0  0  0  0  0  0
   10.0927   14.9168   25.1793 C   0  0  0  0  0  0  0  0  0  0  0  0
    6.4978   14.5559   25.7276 C   0  0  0  0  0  0  0  0  0  0  0  0
    5.1601   14.3579   26.4522 C   0  0  0  0  0  0  0  0  0  0  0  0
    5.2505   13.0048   27.1587 C   0  0  0  0  0  0  0  0  0  0  0  0
  1  2  2  0
  2  3  1  0
  3  4  2  0
  4  5  1  0
  5  6  2  0
  6  7  1  0
  7  8  2  0
  8  9  1  0
  9 10  1  0
 10 11  1  0
  7 12  1  0
 12 13  1  0
 13 14  1  0
  8  3  1  0
 14  6  1  0
M  END
>  <ref_pdb>  (303) 
A5424b

>  <tags>  (303) 
{'fragmenstein_placed', 'openbind_a71ev2a_c1_fragmenstein'}

>  <distance_score>  (303) 
0.932921

>  <energy_score>  (303) 
-27.032826

>  <inchikey>  (303) 
POSUBGQGUWKMGE-UHFFFAOYSA-N

>  <alias>  (303) 
C=Cc1ccc2c(c1CCC)CCC2

>  <smiles>  (303) 
C256575-P622

>  <HIPPO Pose ID>  (303) 
120019

>  <ref_mols>  (303) 
A4421a,A5460a

>  <HIPPO Compound ID>  (303) 
256575

$$$$
CSc1ccc2c(c1)[C@H](C=O)[C@@H](C)[C@@H](SC)O2
     RDKit          3D

 17 18  0  0  0  0  0  0  0  0999 V2000
    3.9522   16.0693   25.3499 C   0  0  0  0  0  0  0  0  0  0  0  0
    4.0318   15.1063   26.8782 S   0  0  0  0  0  0  0  0  0  0  0  0
    5.3229   13.9429   26.4876 C   0  0  0  0  0  0  0  0  0  0  0  0
    5.1992   12.6533   27.0078 C   0  0  0  0  0  0  0  0  0  0  0  0
    6.1937   11.7134   26.7783 C   0  0  0  0  0  0  0  0  0  0  0  0
    7.3175   12.0647   26.0360 C   0  0  0  0  0  0  0  0  0  0  0  0
    7.4590   13.3345   25.4778 C   0  0  0  0  0  0  0  0  0  0  0  0
    6.4532   14.2774   25.7281 C   0  0  0  0  0  0  0  0  0  0  0  0
    8.6431   13.6832   24.5989 C   0  0  2  0  0  0  0  0  0  0  0  0
    8.2077   13.9208   23.1634 C   0  0  0  0  0  0  0  0  0  0  0  0
    7.5283   13.1215   22.5222 O   0  0  0  0  0  0  0  0  0  0  0  0
    9.7254   12.5816   24.5616 C   0  0  1  0  0  0  0  0  0  0  0  0
   10.8228   12.8894   25.5819 C   0  0  0  0  0  0  0  0  0  0  0  0
    9.0191   11.2255   24.7293 C   0  0  1  0  0  0  0  0  0  0  0  0
   10.1488    9.8279   24.6467 S   0  0  0  0  0  0  0  0  0  0  0  0
    9.8279    9.3484   22.9609 C   0  0  0  0  0  0  0  0  0  0  0  0
    8.2924   11.1212   25.9438 O   0  0  0  0  0  0  0  0  0  0  0  0
  1  2  1  0
  2  3  1  0
  3  4  2  0
  4  5  1  0
  5  6  2  0
  6  7  1  0
  7  8  2  0
  7  9  1  0
  9 10  1  6
 10 11  2  0
  9 12  1  0
 12 13  1  1
 12 14  1  0
 14 15  1  1
 15 16  1  0
 14 17  1  0
  8  3  1  0
 17  6  1  0
M  END
>  <ref_pdb>  (304) 
A5424b

>  <tags>  (304) 
{'fragmenstein_placed', 'openbind_a71ev2a_c1_fragmenstein'}

>  <distance_score>  (304) 
0.935883

>  <energy_score>  (304) 
-18.720772

>  <inchikey>  (304) 
UXHKPKPTEJXYTA-UHFFFAOYSA-N

>  <alias>  (304) 
CSc1ccc2c(c1)[C@H](C=O)[C@@H](C)[C@@H](SC)O2

>  <smiles>  (304) 
C257314-P625

>  <HIPPO Pose ID>  (304) 
120496

>  <ref_mols>  (304) 
A5475b,A4365a

>  <HIPPO Compound ID>  (304) 
257314

$$$$
CSc1ccc(C(=O)Nc2ccncc2)cc1CC(O)(O)N1CC[C@@H](O)[C@]2(CNNN2)C1
     RDKit          3D

 32 35  0  0  0  0  0  0  0  0999 V2000
    8.9658    8.7534   23.5169 C   0  0  0  0  0  0  0  0  0  0  0  0
    9.0781   10.5176   23.8798 S   0  0  0  0  0  0  0  0  0  0  0  0
    7.6325   10.9094   24.8779 C   0  0  0  0  0  0  0  0  0  0  0  0
    6.7261    9.9405   25.3066 C   0  0  0  0  0  0  0  0  0  0  0  0
    5.5189   10.2741   25.9410 C   0  0  0  0  0  0  0  0  0  0  0  0
    5.2163   11.6089   26.2002 C   0  0  0  0  0  0  0  0  0  0  0  0
    3.9159   12.1011   26.7612 C   0  0  0  0  0  0  0  0  0  0  0  0
    3.5934   13.1825   26.4615 O   0  0  0  0  0  0  0  0  0  0  0  0
    3.2269   11.0702   27.6820 N   0  0  0  0  0  0  0  0  0  0  0  0
    1.9973   11.1162   28.3269 C   0  0  0  0  0  0  0  0  0  0  0  0
    1.5624   10.0160   29.0511 C   0  0  0  0  0  0  0  0  0  0  0  0
    0.3332   10.1067   29.6813 C   0  0  0  0  0  0  0  0  0  0  0  0
   -0.4673   11.1961   29.6249 N   0  0  0  0  0  0  0  0  0  0  0  0
   -0.0077   12.2500   28.9197 C   0  0  0  0  0  0  0  0  0  0  0  0
    1.2043   12.2571   28.2570 C   0  0  0  0  0  0  0  0  0  0  0  0
    6.1531   12.5858   25.8485 C   0  0  0  0  0  0  0  0  0  0  0  0
    7.3555   12.2528   25.2041 C   0  0  0  0  0  0  0  0  0  0  0  0
    8.2875   13.3910   24.8473 C   0  0  0  0  0  0  0  0  0  0  0  0
    8.1224   13.9365   23.3987 C   0  0  0  0  0  0  0  0  0  0  0  0
    7.1015   14.9006   23.3590 O   0  0  0  0  0  0  0  0  0  0  0  0
    7.7328   12.8983   22.5362 O   0  0  0  0  0  0  0  0  0  0  0  0
    9.3836   14.4635   22.9122 N   0  0  0  0  0  0  0  0  0  0  0  0
    9.8693   15.5613   23.7418 C   0  0  0  0  0  0  0  0  0  0  0  0
   11.2661   15.9454   23.3148 C   0  0  0  0  0  0  0  0  0  0  0  0
   11.3243   16.3824   21.8537 C   0  0  1  0  0  0  0  0  0  0  0  0
   12.7058   16.5838   21.5175 O   0  0  0  0  0  0  0  0  0  0  0  0
   10.6773   15.3364   20.9269 C   0  0  1  0  0  0  0  0  0  0  0  0
   10.4946   15.8341   19.4844 C   0  0  0  0  0  0  0  0  0  0  0  0
   11.2344   14.8756   18.6801 N   0  0  0  0  0  0  0  0  0  0  0  0
   12.2711   14.4398   19.5164 N   0  0  0  0  0  0  0  0  0  0  0  0
   11.6586   14.2194   20.7970 N   0  0  0  0  0  0  0  0  0  0  0  0
    9.3046   14.9121   21.5062 C   0  0  0  0  0  0  0  0  0  0  0  0
  1  2  1  0
  2  3  1  0
  3  4  2  0
  4  5  1  0
  5  6  2  0
  6  7  1  0
  7  8  2  0
  7  9  1  0
  9 10  1  0
 10 11  2  0
 11 12  1  0
 12 13  2  0
 13 14  1  0
 14 15  2  0
  6 16  1  0
 16 17  2  0
 17 18  1  0
 18 19  1  0
 19 20  1  0
 19 21  1  0
 19 22  1  0
 22 23  1  0
 23 24  1  0
 24 25  1  0
 25 26  1  6
 25 27  1  0
 27 28  1  6
 28 29  1  0
 29 30  1  0
 30 31  1  0
 27 32  1  0
 17  3  1  0
 32 22  1  0
 15 10  1  0
 31 27  1  0
M  END
>  <ref_pdb>  (305) 
A5424b

>  <tags>  (305) 
{'fragmenstein_placed', 'openbind_a71ev2a_c1_fragmenstein'}

>  <distance_score>  (305) 
0.892966

>  <energy_score>  (305) 
-54.863006

>  <inchikey>  (305) 
GHHHFUBRGPPHPF-UHFFFAOYSA-N

>  <alias>  (305) 
CSc1ccc(C(=O)Nc2ccncc2)cc1CC(O)(O)N1CC[C@@H](O)[C@]2(CNNN2)C1

>  <smiles>  (305) 
C258167-P628

>  <HIPPO Pose ID>  (305) 
121001

>  <ref_mols>  (305) 
A5512a,A2629a

>  <HIPPO Compound ID>  (305) 
258167

$$$$
CSc1ccc(-c2ccn[nH]2)cc1CC(O)(O)N1CC[C@@H](O)[C@]2(CNNN2)C1
     RDKit          3D

 28 31  0  0  0  0  0  0  0  0999 V2000
    9.2781    8.7711   23.5028 C   0  0  0  0  0  0  0  0  0  0  0  0
    9.4193   10.4843   24.0684 S   0  0  0  0  0  0  0  0  0  0  0  0
    7.8455   10.8246   24.8600 C   0  0  0  0  0  0  0  0  0  0  0  0
    6.9653    9.8094   25.2175 C   0  0  0  0  0  0  0  0  0  0  0  0
    5.7319   10.0695   25.8317 C   0  0  0  0  0  0  0  0  0  0  0  0
    5.3427   11.3725   26.1295 C   0  0  0  0  0  0  0  0  0  0  0  0
    4.0635   11.6699   26.7770 C   0  0  0  0  0  0  0  0  0  0  0  0
    3.4089   12.8718   26.9876 C   0  0  0  0  0  0  0  0  0  0  0  0
    2.2135   12.5448   27.6456 C   0  0  0  0  0  0  0  0  0  0  0  0
    2.0908   11.2348   27.8440 N   0  0  0  0  0  0  0  0  0  0  0  0
    3.2175   10.7222   27.3134 N   0  0  0  0  0  0  0  0  0  0  0  0
    6.2233   12.4022   25.7822 C   0  0  0  0  0  0  0  0  0  0  0  0
    7.4657   12.1435   25.1631 C   0  0  0  0  0  0  0  0  0  0  0  0
    8.3421   13.3263   24.8138 C   0  0  0  0  0  0  0  0  0  0  0  0
    8.0747   13.9781   23.4208 C   0  0  0  0  0  0  0  0  0  0  0  0
    7.0853   14.9650   23.6030 O   0  0  0  0  0  0  0  0  0  0  0  0
    7.4758   13.0619   22.5322 O   0  0  0  0  0  0  0  0  0  0  0  0
    9.3051   14.5141   22.8600 N   0  0  0  0  0  0  0  0  0  0  0  0
    9.9613   15.4820   23.7336 C   0  0  0  0  0  0  0  0  0  0  0  0
   11.3626   15.7595   23.2346 C   0  0  0  0  0  0  0  0  0  0  0  0
   11.3334   16.3681   21.8399 C   0  0  1  0  0  0  0  0  0  0  0  0
   12.6819   16.6139   21.4434 O   0  0  0  0  0  0  0  0  0  0  0  0
   10.5816   15.4473   20.8608 C   0  0  1  0  0  0  0  0  0  0  0  0
   10.3329   16.0917   19.4938 C   0  0  0  0  0  0  0  0  0  0  0  0
   11.4314   15.6418   18.6552 N   0  0  0  0  0  0  0  0  0  0  0  0
   11.7018   14.3449   19.1303 N   0  0  0  0  0  0  0  0  0  0  0  0
   11.5124   14.3406   20.5554 N   0  0  0  0  0  0  0  0  0  0  0  0
    9.2174   15.0224   21.4825 C   0  0  0  0  0  0  0  0  0  0  0  0
  1  2  1  0
  2  3  1  0
  3  4  2  0
  4  5  1  0
  5  6  2  0
  6  7  1  0
  7  8  2  0
  8  9  1  0
  9 10  2  0
 10 11  1  0
  6 12  1  0
 12 13  2  0
 13 14  1  0
 14 15  1  0
 15 16  1  0
 15 17  1  0
 15 18  1  0
 18 19  1  0
 19 20  1  0
 20 21  1  0
 21 22  1  6
 21 23  1  0
 23 24  1  6
 24 25  1  0
 25 26  1  0
 26 27  1  0
 23 28  1  0
 13  3  1  0
 28 18  1  0
 11  7  1  0
 27 23  1  0
M  END
>  <ref_pdb>  (306) 
A5424b

>  <tags>  (306) 
{'fragmenstein_placed', 'openbind_a71ev2a_c1_fragmenstein'}

>  <distance_score>  (306) 
0.64226

>  <energy_score>  (306) 
-51.711916

>  <inchikey>  (306) 
YMLYXJKQZYKRTB-UHFFFAOYSA-N

>  <alias>  (306) 
CSc1ccc(-c2ccn[nH]2)cc1CC(O)(O)N1CC[C@@H](O)[C@]2(CNNN2)C1

>  <smiles>  (306) 
C258565-P630

>  <HIPPO Pose ID>  (306) 
121264

>  <ref_mols>  (306) 
A5525a,A0732a

>  <HIPPO Compound ID>  (306) 
258565

$$$$
CS(F)(F)c1ccc(N2CCOCC2)c(C(F)(F)F)c1NC(=O)N1CCC[C@H](C(N)=O)C1
     RDKit          3D

 32 34  0  0  0  0  0  0  0  0999 V2000
    9.6302    8.8740   23.7358 C   0  0  0  0  0  0  0  0  0  0  0  0
    9.3287   10.5581   24.0314 S   0  0  0  0  0  0  0  0  0  0  0  0
    8.8649   11.2428   22.6988 F   0  0  0  0  0  0  0  0  0  0  0  0
   10.6726   11.3362   24.3442 F   0  0  0  0  0  0  0  0  0  0  0  0
    8.1138   10.9554   25.2421 C   0  0  0  0  0  0  0  0  0  0  0  0
    7.3780    9.9584   25.8460 C   0  0  0  0  0  0  0  0  0  0  0  0
    6.3554   10.3054   26.7228 C   0  0  0  0  0  0  0  0  0  0  0  0
    6.0840   11.6463   27.0581 C   0  0  0  0  0  0  0  0  0  0  0  0
    5.0923   11.9567   27.9998 N   0  0  0  0  0  0  0  0  0  0  0  0
    3.8769   12.5833   27.4206 C   0  0  0  0  0  0  0  0  0  0  0  0
    3.0312   13.1943   28.5479 C   0  0  0  0  0  0  0  0  0  0  0  0
    2.6665   12.1906   29.5141 O   0  0  0  0  0  0  0  0  0  0  0  0
    3.8492   11.6206   30.1007 C   0  0  0  0  0  0  0  0  0  0  0  0
    4.7364   10.9580   29.0333 C   0  0  0  0  0  0  0  0  0  0  0  0
    6.8615   12.6750   26.4499 C   0  0  0  0  0  0  0  0  0  0  0  0
    6.7769   14.0925   26.9783 C   0  0  0  0  0  0  0  0  0  0  0  0
    7.9316   14.8109   26.8159 F   0  0  0  0  0  0  0  0  0  0  0  0
    6.5837   14.1427   28.3368 F   0  0  0  0  0  0  0  0  0  0  0  0
    5.7680   14.8354   26.4527 F   0  0  0  0  0  0  0  0  0  0  0  0
    7.8142   12.3203   25.4776 C   0  0  0  0  0  0  0  0  0  0  0  0
    8.4982   13.1862   24.6240 N   0  0  0  0  0  0  0  0  0  0  0  0
    8.1106   14.4543   24.0524 C   0  0  0  0  0  0  0  0  0  0  0  0
    7.1527   15.1134   24.2260 O   0  0  0  0  0  0  0  0  0  0  0  0
    9.2120   14.6204   23.1293 N   0  0  0  0  0  0  0  0  0  0  0  0
   10.3228   15.4277   23.7836 C   0  0  0  0  0  0  0  0  0  0  0  0
   11.7154   15.0121   23.2926 C   0  0  0  0  0  0  0  0  0  0  0  0
   11.8780   15.4212   21.8458 C   0  0  0  0  0  0  0  0  0  0  0  0
   10.5696   15.0823   21.1504 C   0  0  2  0  0  0  0  0  0  0  0  0
   10.6177   15.5514   19.7055 C   0  0  0  0  0  0  0  0  0  0  0  0
   11.2142   14.5166   18.8751 N   0  0  0  0  0  0  0  0  0  0  0  0
   10.2625   16.6612   19.4325 O   0  0  0  0  0  0  0  0  0  0  0  0
    9.4246   15.6303   22.0164 C   0  0  0  0  0  0  0  0  0  0  0  0
  1  2  1  0
  2  3  1  0
  2  4  1  0
  2  5  1  0
  5  6  2  0
  6  7  1  0
  7  8  2  0
  8  9  1  0
  9 10  1  0
 10 11  1  0
 11 12  1  0
 12 13  1  0
 13 14  1  0
  8 15  1  0
 15 16  1  0
 16 17  1  0
 16 18  1  0
 16 19  1  0
 15 20  2  0
 20 21  1  0
 21 22  1  0
 22 23  2  0
 22 24  1  0
 24 25  1  0
 25 26  1  0
 26 27  1  0
 27 28  1  0
 28 29  1  6
 29 30  1  0
 29 31  2  0
 28 32  1  0
 20  5  1  0
 32 24  1  0
 14  9  1  0
M  END
>  <ref_pdb>  (307) 
A5544a

>  <tags>  (307) 
{'fragmenstein_placed', 'openbind_a71ev2a_c1_fragmenstein'}

>  <distance_score>  (307) 
0.924434

>  <energy_score>  (307) 
-160.926574

>  <inchikey>  (307) 
WIUNUEFYQJMMSD-UHFFFAOYSA-N

>  <alias>  (307) 
CS(F)(F)c1ccc(N2CCOCC2)c(C(F)(F)F)c1NC(=O)N1CCC[C@H](C(N)=O)C1

>  <smiles>  (307) 
C151234-P640

>  <HIPPO Pose ID>  (307) 
122480

>  <ref_mols>  (307) 
A5598b,A5666a

>  <HIPPO Compound ID>  (307) 
151234

$$$$
Cc1ccc2c(c1OC(O)(O)N1C[C@@H](O)C[C@@]3(CNNN3)C1)CCC2
     RDKit          3D

 25 28  0  0  0  0  0  0  0  0999 V2000
    6.3054   13.6898   26.1432 C   0  0  0  0  0  0  0  0  0  0  0  0
    6.8225   12.3640   25.6629 C   0  0  0  0  0  0  0  0  0  0  0  0
    6.1477   11.1811   26.0087 C   0  0  0  0  0  0  0  0  0  0  0  0
    6.5942    9.9407   25.5492 C   0  0  0  0  0  0  0  0  0  0  0  0
    7.7255    9.8891   24.7554 C   0  0  0  0  0  0  0  0  0  0  0  0
    8.3931   11.0539   24.3951 C   0  0  0  0  0  0  0  0  0  0  0  0
    7.9427   12.2933   24.8202 C   0  0  0  0  0  0  0  0  0  0  0  0
    8.6118   13.4471   24.5477 O   0  0  0  0  0  0  0  0  0  0  0  0
    8.6302   13.8579   23.1752 C   0  0  0  0  0  0  0  0  0  0  0  0
    9.5398   13.1134   22.4370 O   0  0  0  0  0  0  0  0  0  0  0  0
    7.3573   13.6897   22.5868 O   0  0  0  0  0  0  0  0  0  0  0  0
    8.9679   15.2624   23.0981 N   0  0  0  0  0  0  0  0  0  0  0  0
   10.1325   15.6636   23.8874 C   0  0  0  0  0  0  0  0  0  0  0  0
   11.4794   15.6261   23.1564 C   0  0  1  0  0  0  0  0  0  0  0  0
   11.8835   14.2813   22.9711 O   0  0  0  0  0  0  0  0  0  0  0  0
   11.4693   16.3889   21.8348 C   0  0  0  0  0  0  0  0  0  0  0  0
   10.2989   15.9538   20.9484 C   0  0  2  0  0  0  0  0  0  0  0  0
   10.6426   14.6989   20.1725 C   0  0  0  0  0  0  0  0  0  0  0  0
   11.2661   15.1547   18.9309 N   0  0  0  0  0  0  0  0  0  0  0  0
   10.6985   16.4224   18.6880 N   0  0  0  0  0  0  0  0  0  0  0  0
   10.0604   16.8916   19.8498 N   0  0  0  0  0  0  0  0  0  0  0  0
    8.9736   15.8725   21.7584 C   0  0  0  0  0  0  0  0  0  0  0  0
    9.5732   10.7194   23.5437 C   0  0  0  0  0  0  0  0  0  0  0  0
    9.7614    9.2293   23.7552 C   0  0  0  0  0  0  0  0  0  0  0  0
    8.3839    8.7061   24.1242 C   0  0  0  0  0  0  0  0  0  0  0  0
  1  2  1  0
  2  3  2  0
  3  4  1  0
  4  5  2  0
  5  6  1  0
  6  7  2  0
  7  8  1  0
  8  9  1  0
  9 10  1  0
  9 11  1  0
  9 12  1  0
 12 13  1  0
 13 14  1  0
 14 15  1  6
 14 16  1  0
 17 16  1  1
 17 18  1  0
 18 19  1  0
 19 20  1  0
 20 21  1  0
 17 22  1  0
  6 23  1  0
 23 24  1  0
 24 25  1  0
  7  2  1  0
 22 12  1  0
 25  5  1  0
 21 17  1  0
M  END
>  <ref_pdb>  (308) 
A5544a

>  <tags>  (308) 
{'fragmenstein_placed', 'openbind_a71ev2a_c1_fragmenstein'}

>  <distance_score>  (308) 
0.897382

>  <energy_score>  (308) 
-42.916265

>  <inchikey>  (308) 
BVAHRGRTNGLSFN-UHFFFAOYSA-N

>  <alias>  (308) 
Cc1ccc2c(c1OC(O)(O)N1C[C@@H](O)C[C@@]3(CNNN3)C1)CCC2

>  <smiles>  (308) 
C151519-P641

>  <HIPPO Pose ID>  (308) 
122607

>  <ref_mols>  (308) 
A5599a,A3509b

>  <HIPPO Compound ID>  (308) 
151519

$$$$
Cc1cc([S@@H](C)F)c([C@H](C)C(=O)N2CCC[C@@H](C(N)=O)C2)cc1-n1cccn1
     RDKit          3D

 28 30  0  0  0  0  0  0  0  0999 V2000
    4.5930    9.5158   26.3343 C   0  0  0  0  0  0  0  0  0  0  0  0
    5.4944   10.6596   25.9779 C   0  0  0  0  0  0  0  0  0  0  0  0
    6.7267   10.3278   25.3749 C   0  0  0  0  0  0  0  0  0  0  0  0
    7.6084   11.3070   24.9183 C   0  0  0  0  0  0  0  0  0  0  0  0
    9.1313   10.8105   24.2113 S   0  0  1  0  0  4  0  0  0  0  0  0
    9.1131    9.1280   23.7279 C   0  0  0  0  0  0  0  0  0  0  0  0
    9.3836   11.6711   22.9058 F   0  0  0  0  0  0  0  0  0  0  0  0
    7.2991   12.6632   25.0643 C   0  0  0  0  0  0  0  0  0  0  0  0
    8.2468   13.7954   24.6553 C   0  0  2  0  0  0  0  0  0  0  0  0
    8.2853   14.9013   25.7269 C   0  0  0  0  0  0  0  0  0  0  0  0
    7.8792   14.3860   23.2640 C   0  0  0  0  0  0  0  0  0  0  0  0
    6.7242   14.5257   22.9596 O   0  0  0  0  0  0  0  0  0  0  0  0
    9.0793   14.6951   22.5368 N   0  0  0  0  0  0  0  0  0  0  0  0
    9.5337   16.0992   22.8562 C   0  0  0  0  0  0  0  0  0  0  0  0
   11.0732   16.1317   22.9358 C   0  0  0  0  0  0  0  0  0  0  0  0
   11.6741   15.6217   21.6355 C   0  0  0  0  0  0  0  0  0  0  0  0
   10.5906   15.8309   20.6012 C   0  0  1  0  0  0  0  0  0  0  0  0
   10.9745   15.5419   19.1416 C   0  0  0  0  0  0  0  0  0  0  0  0
   11.4281   14.2003   18.9160 N   0  0  0  0  0  0  0  0  0  0  0  0
   10.9203   16.4825   18.4009 O   0  0  0  0  0  0  0  0  0  0  0  0
    9.2764   15.1924   21.1033 C   0  0  0  0  0  0  0  0  0  0  0  0
    6.0503   12.9874   25.6441 C   0  0  0  0  0  0  0  0  0  0  0  0
    5.1677   12.0132   26.1514 C   0  0  0  0  0  0  0  0  0  0  0  0
    3.9862   12.4732   26.8182 N   0  0  0  0  0  0  0  0  0  0  0  0
    3.1873   11.8193   27.7371 C   0  0  0  0  0  0  0  0  0  0  0  0
    2.1259   12.6409   28.0295 C   0  0  0  0  0  0  0  0  0  0  0  0
    2.4033   13.8187   27.3299 C   0  0  0  0  0  0  0  0  0  0  0  0
    3.5399   13.7476   26.6391 N   0  0  0  0  0  0  0  0  0  0  0  0
  1  2  1  0
  2  3  2  0
  3  4  1  0
  4  5  1  0
  5  6  1  6
  5  7  1  0
  4  8  2  0
  8  9  1  0
  9 10  1  1
  9 11  1  0
 11 12  2  0
 11 13  1  0
 13 14  1  0
 14 15  1  0
 15 16  1  0
 16 17  1  0
 17 18  1  6
 18 19  1  0
 18 20  2  0
 17 21  1  0
  8 22  1  0
 22 23  2  0
 23 24  1  0
 24 25  1  0
 25 26  2  0
 26 27  1  0
 27 28  2  0
 23  2  1  0
 28 24  1  0
 21 13  1  0
M  END
>  <ref_pdb>  (309) 
A5544a

>  <tags>  (309) 
{'fragmenstein_placed', 'openbind_a71ev2a_c1_fragmenstein'}

>  <distance_score>  (309) 
0.956105

>  <energy_score>  (309) 
-34.528676

>  <inchikey>  (309) 
AJHJYWCUIVFJRP-UHFFFAOYSA-N

>  <alias>  (309) 
Cc1cc([S@@H](C)F)c([C@H](C)C(=O)N2CCC[C@@H](C(N)=O)C2)cc1-n1cccn1

>  <smiles>  (309) 
C151891-P643

>  <HIPPO Pose ID>  (309) 
122831

>  <ref_mols>  (309) 
A5604a,A0450a,A0416a

>  <HIPPO Compound ID>  (309) 
151891

$$$$
